/*---------------------------------------------------------------------------*\
  =========                 |
  \\      /  F ield         | OpenFOAM: The Open Source CFD Toolbox
   \\    /   O peration     | Website:  https://openfoam.org
    \\  /    A nd           | Version:  8
     \\/     M anipulation  |
\*---------------------------------------------------------------------------*/
Build  : 8-13d66902f78c
Exec   : icoFoam
Date   : Jul 14 2021
Time   : 01:29:16
Host   : "uc2n538.localdomain"
PID    : 2766491
I/O    : uncollated
Case   : /pfs/data5/home/kit/scc/nq7776/code/OGL_DATA/lidDrivenCavity3D/v0.1-136-g40fef35/f584ccac99/IntelXeonGold6230CPU@2.10GHz/Test_2021-07-14-01:26:15/75/p-CG-OF-none-reference/lidDrivenCavity3D
nProcs : 1
sigFpe : Enabling floating point exception trapping (FOAM_SIGFPE).
fileModificationChecking : Monitoring run-time modified files using timeStampMaster (fileModificationSkew 10)
allowSystemOperations : Allowing user-supplied system call operations

// * * * * * * * * * * * * * * * * * * * * * * * * * * * * * * * * * * * * * //
Create time

Create mesh for time = 0

Reading transportProperties

Reading field p

Reading field U

Reading/calculating face flux field phi


Starting time loop

Time = 0.00133333

Courant Number mean: 0 max: 0
nonePBiCGStab:  Solving for Ux, Initial residual = 1, Final residual = 0.0730209, No Iterations 5
nonePBiCGStab:  Solving for Uy, Initial residual = 0, Final residual = 0, No Iterations 0
nonePBiCGStab:  Solving for Uz, Initial residual = 0, Final residual = 0, No Iterations 0
nonePCG:  Solving for p, Initial residual = 1, Final residual = 9.51894e-07, No Iterations 672
time step continuity errors : sum local = 6.04785e-10, global = 1.21052e-20, cumulative = 1.21052e-20
nonePCG:  Solving for p, Initial residual = 0.697098, Final residual = 9.55446e-07, No Iterations 667
time step continuity errors : sum local = 8.46711e-10, global = 1.35406e-20, cumulative = 2.56459e-20
ExecutionTime = 8.78 s  ClockTime = 8 s

Time = 0.00266667

Courant Number mean: 0.0508075 max: 0.767258
nonePBiCGStab:  Solving for Ux, Initial residual = 0.140589, Final residual = 0.0324514, No Iterations 5
nonePBiCGStab:  Solving for Uy, Initial residual = 0.413641, Final residual = 0.092326, No Iterations 5
nonePBiCGStab:  Solving for Uz, Initial residual = 0.983212, Final residual = 0.249881, No Iterations 5
nonePCG:  Solving for p, Initial residual = 0.746892, Final residual = 9.6594e-07, No Iterations 644
time step continuity errors : sum local = 1.30071e-09, global = -1.14482e-20, cumulative = 1.41977e-20
nonePCG:  Solving for p, Initial residual = 0.668132, Final residual = 9.39199e-07, No Iterations 642
time step continuity errors : sum local = 1.2899e-09, global = -1.95636e-21, cumulative = 1.22413e-20
ExecutionTime = 15.74 s  ClockTime = 15 s

Time = 0.004

Courant Number mean: 0.0796134 max: 0.886044
nonePBiCGStab:  Solving for Ux, Initial residual = 0.0584495, Final residual = 0.0111487, No Iterations 5
nonePBiCGStab:  Solving for Uy, Initial residual = 0.171954, Final residual = 0.0398777, No Iterations 5
nonePBiCGStab:  Solving for Uz, Initial residual = 0.610948, Final residual = 0.142317, No Iterations 5
nonePCG:  Solving for p, Initial residual = 0.73036, Final residual = 9.67591e-07, No Iterations 650
time step continuity errors : sum local = 9.68215e-10, global = 3.80934e-21, cumulative = 1.60506e-20
nonePCG:  Solving for p, Initial residual = 0.660892, Final residual = 9.97727e-07, No Iterations 647
time step continuity errors : sum local = 9.70491e-10, global = 9.34148e-21, cumulative = 2.53921e-20
ExecutionTime = 22.85 s  ClockTime = 22 s

Time = 0.00533333

Courant Number mean: 0.0948106 max: 0.902572
nonePBiCGStab:  Solving for Ux, Initial residual = 0.034594, Final residual = 0.00682892, No Iterations 5
nonePBiCGStab:  Solving for Uy, Initial residual = 0.11955, Final residual = 0.0298198, No Iterations 5
nonePBiCGStab:  Solving for Uz, Initial residual = 0.386287, Final residual = 0.0806814, No Iterations 5
nonePCG:  Solving for p, Initial residual = 0.609797, Final residual = 9.75014e-07, No Iterations 640
time step continuity errors : sum local = 9.61723e-10, global = -1.03096e-20, cumulative = 1.50825e-20
nonePCG:  Solving for p, Initial residual = 0.521107, Final residual = 9.81624e-07, No Iterations 637
time step continuity errors : sum local = 9.88922e-10, global = -4.24391e-21, cumulative = 1.08386e-20
ExecutionTime = 29.82 s  ClockTime = 29 s

Time = 0.00666667

Courant Number mean: 0.107177 max: 0.916781
nonePBiCGStab:  Solving for Ux, Initial residual = 0.0257325, Final residual = 0.00503143, No Iterations 5
nonePBiCGStab:  Solving for Uy, Initial residual = 0.0750463, Final residual = 0.0208208, No Iterations 5
nonePBiCGStab:  Solving for Uz, Initial residual = 0.212733, Final residual = 0.049546, No Iterations 5
nonePCG:  Solving for p, Initial residual = 0.629324, Final residual = 9.83167e-07, No Iterations 638
time step continuity errors : sum local = 8.32198e-10, global = -2.1707e-20, cumulative = -1.08684e-20
nonePCG:  Solving for p, Initial residual = 0.552157, Final residual = 9.53228e-07, No Iterations 637
time step continuity errors : sum local = 7.9537e-10, global = -7.3464e-21, cumulative = -1.82148e-20
ExecutionTime = 36.78 s  ClockTime = 36 s

End

