/*---------------------------------------------------------------------------*\
  =========                 |
  \\      /  F ield         | OpenFOAM: The Open Source CFD Toolbox
   \\    /   O peration     | Website:  https://openfoam.org
    \\  /    A nd           | Version:  8
     \\/     M anipulation  |
\*---------------------------------------------------------------------------*/
Build  : 8-13d66902f78c
Exec   : icoFoam
Date   : Jul 14 2021
Time   : 02:42:50
Host   : "uc2n399.localdomain"
PID    : 4102676
I/O    : uncollated
Case   : /pfs/data5/home/kit/scc/nq7776/code/OGL_DATA/lidDrivenCavity3D/v0.1-136-g40fef35/f584ccac99/IntelXeonGold6230CPU@2.10GHz/Test_2021-07-14-01:16:21/100/p-U-BiCGStab-GKO-none-omp/lidDrivenCavity3D
nProcs : 1
sigFpe : Enabling floating point exception trapping (FOAM_SIGFPE).
fileModificationChecking : Monitoring run-time modified files using timeStampMaster (fileModificationSkew 10)
allowSystemOperations : Allowing user-supplied system call operations

// * * * * * * * * * * * * * * * * * * * * * * * * * * * * * * * * * * * * * //
Create time

Create mesh for time = 0

Reading transportProperties

Reading field p

Reading field U

Reading/calculating face flux field phi


Starting time loop

Time = 0.001

Courant Number mean: 0 max: 0
[OGL LOG] init_host_sparsity_pattern : 289 ms
[OGL LOG] matrix not stored update host matrix
[OGL LOG] update_host_mtx : 145 ms
[OGL LOG] matrix is not yet sorted, compute sorting idxs
[OGL LOG] compute_sort : 8290 ms
[OGL LOG] matrix is not yet sorted, sorting host matrix
[OGL LOG] sort_host_mtx_sparsity_pattern : 184 ms
[OGL LOG] sort_host_mtx : 124 ms
[OGL LOG] init_preconditioner : 0 ms
[OGL LOG] solve : 3693 ms
noneompGKOBiCGStab:  Solving for Ux, Initial residual = 1, Final residual = 8.92714e-07, No Iterations 56
[OGL LOG] init_host_sparsity_pattern : 276 ms
[OGL LOG] matrix not stored update host matrix
[OGL LOG] update_host_mtx : 145 ms
[OGL LOG] matrix is not yet sorted, sorting host matrix
[OGL LOG] sort_host_mtx_sparsity_pattern : 192 ms
[OGL LOG] sort_host_mtx : 123 ms
[OGL LOG] init_preconditioner : 0 ms
[OGL LOG] solve : 99 ms
noneompGKOBiCGStab:  Solving for Uy, Initial residual = 0, Final residual = 0, No Iterations 0
[OGL LOG] init_host_sparsity_pattern : 266 ms
[OGL LOG] matrix not stored update host matrix
[OGL LOG] update_host_mtx : 144 ms
[OGL LOG] matrix is not yet sorted, sorting host matrix
[OGL LOG] sort_host_mtx_sparsity_pattern : 192 ms
[OGL LOG] sort_host_mtx : 123 ms
[OGL LOG] init_preconditioner : 0 ms
[OGL LOG] solve : 90 ms
noneompGKOBiCGStab:  Solving for Uz, Initial residual = 0, Final residual = 0, No Iterations 0
[OGL LOG] init_host_sparsity_pattern : 285 ms
[OGL LOG] matrix not stored update host matrix
[OGL LOG] update_host_mtx : 146 ms
[OGL LOG] matrix is not yet sorted, sorting host matrix
[OGL LOG] sort_host_mtx_sparsity_pattern : 191 ms
[OGL LOG] sort_host_mtx : 122 ms
[OGL LOG] init_preconditioner : 0 ms
[OGL LOG] solve : 48542 ms
noneompGKOBiCGStab:  Solving for p, Initial residual = 1, Final residual = 5.91819e-07, No Iterations 757
time step continuity errors : sum local = 7.31368e-09, global = -9.14583e-21, cumulative = -9.14583e-21
[OGL LOG] init_preconditioner : 0 ms
[OGL LOG] solve : 50921 ms
noneompGKOBiCGStab:  Solving for p, Initial residual = 0.783573, Final residual = 8.25456e-07, No Iterations 794
time step continuity errors : sum local = 4.95577e-09, global = -5.15637e-21, cumulative = -1.43022e-20
ExecutionTime = 119.22 s  ClockTime = 120 s

Time = 0.002

Courant Number mean: 0.0571435 max: 0.804774
[OGL LOG] init_host_sparsity_pattern : 266 ms
[OGL LOG] matrix not stored update host matrix
[OGL LOG] update_host_mtx : 126 ms
[OGL LOG] matrix is not yet sorted, sorting host matrix
[OGL LOG] sort_host_mtx_sparsity_pattern : 181 ms
[OGL LOG] sort_host_mtx : 124 ms
[OGL LOG] init_preconditioner : 0 ms
[OGL LOG] solve : 3042 ms
noneompGKOBiCGStab:  Solving for Ux, Initial residual = 0.169064, Final residual = 8.88615e-07, No Iterations 46
[OGL LOG] init_host_sparsity_pattern : 266 ms
[OGL LOG] matrix not stored update host matrix
[OGL LOG] update_host_mtx : 129 ms
[OGL LOG] matrix is not yet sorted, sorting host matrix
[OGL LOG] sort_host_mtx_sparsity_pattern : 191 ms
[OGL LOG] sort_host_mtx : 124 ms
[OGL LOG] init_preconditioner : 0 ms
[OGL LOG] solve : 3547 ms
noneompGKOBiCGStab:  Solving for Uy, Initial residual = 0.620196, Final residual = 7.53756e-07, No Iterations 54
[OGL LOG] init_host_sparsity_pattern : 273 ms
[OGL LOG] matrix not stored update host matrix
[OGL LOG] update_host_mtx : 126 ms
[OGL LOG] matrix is not yet sorted, sorting host matrix
[OGL LOG] sort_host_mtx_sparsity_pattern : 192 ms
[OGL LOG] sort_host_mtx : 124 ms
[OGL LOG] init_preconditioner : 0 ms
[OGL LOG] solve : 3394 ms
noneompGKOBiCGStab:  Solving for Uz, Initial residual = 0.646918, Final residual = 9.98669e-07, No Iterations 52
[OGL LOG] init_preconditioner : 0 ms
[OGL LOG] solve : 48696 ms
noneompGKOBiCGStab:  Solving for p, Initial residual = 0.798468, Final residual = 3.90734e-07, No Iterations 758
time step continuity errors : sum local = 1.29652e-08, global = 6.81804e-21, cumulative = -7.48416e-21
[OGL LOG] init_preconditioner : 0 ms
[OGL LOG] solve : 47655 ms
noneompGKOBiCGStab:  Solving for p, Initial residual = 0.738625, Final residual = 8.45897e-07, No Iterations 743
time step continuity errors : sum local = 4.23478e-08, global = 1.39211e-21, cumulative = -6.09206e-21
ExecutionTime = 228.52 s  ClockTime = 229 s

Time = 0.003

Courant Number mean: 0.0867391 max: 0.944827
[OGL LOG] init_host_sparsity_pattern : 266 ms
[OGL LOG] matrix not stored update host matrix
[OGL LOG] update_host_mtx : 127 ms
[OGL LOG] matrix is not yet sorted, sorting host matrix
[OGL LOG] sort_host_mtx_sparsity_pattern : 191 ms
[OGL LOG] sort_host_mtx : 124 ms
[OGL LOG] init_preconditioner : 0 ms
[OGL LOG] solve : 3132 ms
noneompGKOBiCGStab:  Solving for Ux, Initial residual = 0.102582, Final residual = 7.2566e-07, No Iterations 48
[OGL LOG] init_host_sparsity_pattern : 266 ms
[OGL LOG] matrix not stored update host matrix
[OGL LOG] update_host_mtx : 127 ms
[OGL LOG] matrix is not yet sorted, sorting host matrix
[OGL LOG] sort_host_mtx_sparsity_pattern : 192 ms
[OGL LOG] sort_host_mtx : 124 ms
[OGL LOG] init_preconditioner : 0 ms
[OGL LOG] solve : 3287 ms
noneompGKOBiCGStab:  Solving for Uy, Initial residual = 0.39732, Final residual = 8.24145e-07, No Iterations 50
[OGL LOG] init_host_sparsity_pattern : 266 ms
[OGL LOG] matrix not stored update host matrix
[OGL LOG] update_host_mtx : 126 ms
[OGL LOG] matrix is not yet sorted, sorting host matrix
[OGL LOG] sort_host_mtx_sparsity_pattern : 191 ms
[OGL LOG] sort_host_mtx : 124 ms
[OGL LOG] init_preconditioner : 0 ms
[OGL LOG] solve : 3556 ms
noneompGKOBiCGStab:  Solving for Uz, Initial residual = 0.999585, Final residual = 7.06358e-07, No Iterations 54
[OGL LOG] init_preconditioner : 0 ms
[OGL LOG] solve : 47298 ms
noneompGKOBiCGStab:  Solving for p, Initial residual = 0.832636, Final residual = 4.06608e-07, No Iterations 736
time step continuity errors : sum local = 6.41493e-09, global = 6.79497e-21, cumulative = 7.02916e-22
[OGL LOG] init_preconditioner : 0 ms
[OGL LOG] solve : 48334 ms
noneompGKOBiCGStab:  Solving for p, Initial residual = 0.80284, Final residual = 6.31584e-09, No Iterations 753
time step continuity errors : sum local = 8.22802e-09, global = 1.10567e-20, cumulative = 1.17596e-20
ExecutionTime = 337.11 s  ClockTime = 338 s

Time = 0.004

Courant Number mean: 0.0995296 max: 0.926365
[OGL LOG] init_host_sparsity_pattern : 266 ms
[OGL LOG] matrix not stored update host matrix
[OGL LOG] update_host_mtx : 126 ms
[OGL LOG] matrix is not yet sorted, sorting host matrix
[OGL LOG] sort_host_mtx_sparsity_pattern : 192 ms
[OGL LOG] sort_host_mtx : 124 ms
[OGL LOG] init_preconditioner : 0 ms
[OGL LOG] solve : 2974 ms
noneompGKOBiCGStab:  Solving for Ux, Initial residual = 0.0541441, Final residual = 9.55186e-07, No Iterations 45
[OGL LOG] init_host_sparsity_pattern : 265 ms
[OGL LOG] matrix not stored update host matrix
[OGL LOG] update_host_mtx : 126 ms
[OGL LOG] matrix is not yet sorted, sorting host matrix
[OGL LOG] sort_host_mtx_sparsity_pattern : 192 ms
[OGL LOG] sort_host_mtx : 124 ms
[OGL LOG] init_preconditioner : 0 ms
[OGL LOG] solve : 3259 ms
noneompGKOBiCGStab:  Solving for Uy, Initial residual = 0.255118, Final residual = 9.85169e-07, No Iterations 50
[OGL LOG] init_host_sparsity_pattern : 266 ms
[OGL LOG] matrix not stored update host matrix
[OGL LOG] update_host_mtx : 126 ms
[OGL LOG] matrix is not yet sorted, sorting host matrix
[OGL LOG] sort_host_mtx_sparsity_pattern : 192 ms
[OGL LOG] sort_host_mtx : 124 ms
[OGL LOG] init_preconditioner : 0 ms
[OGL LOG] solve : 3842 ms
noneompGKOBiCGStab:  Solving for Uz, Initial residual = 0.876345, Final residual = 7.69407e-07, No Iterations 59
[OGL LOG] init_preconditioner : 0 ms
[OGL LOG] solve : 50842 ms
noneompGKOBiCGStab:  Solving for p, Initial residual = 0.750226, Final residual = 3.46376e-07, No Iterations 792
time step continuity errors : sum local = 1.0363e-08, global = 5.3372e-21, cumulative = 1.70968e-20
[OGL LOG] init_preconditioner : 0 ms
[OGL LOG] solve : 45925 ms
noneompGKOBiCGStab:  Solving for p, Initial residual = 0.685241, Final residual = 9.66664e-07, No Iterations 715
time step continuity errors : sum local = 9.48073e-08, global = 1.81642e-20, cumulative = 3.5261e-20
ExecutionTime = 446.91 s  ClockTime = 448 s

Time = 0.005

Courant Number mean: 0.112164 max: 0.946345
[OGL LOG] init_host_sparsity_pattern : 266 ms
[OGL LOG] matrix not stored update host matrix
[OGL LOG] update_host_mtx : 126 ms
[OGL LOG] matrix is not yet sorted, sorting host matrix
[OGL LOG] sort_host_mtx_sparsity_pattern : 192 ms
[OGL LOG] sort_host_mtx : 124 ms
[OGL LOG] init_preconditioner : 0 ms
[OGL LOG] solve : 2749 ms
noneompGKOBiCGStab:  Solving for Ux, Initial residual = 0.0411786, Final residual = 7.71322e-07, No Iterations 42
[OGL LOG] init_host_sparsity_pattern : 266 ms
[OGL LOG] matrix not stored update host matrix
[OGL LOG] update_host_mtx : 126 ms
[OGL LOG] matrix is not yet sorted, sorting host matrix
[OGL LOG] sort_host_mtx_sparsity_pattern : 191 ms
[OGL LOG] sort_host_mtx : 124 ms
[OGL LOG] init_preconditioner : 0 ms
[OGL LOG] solve : 3044 ms
noneompGKOBiCGStab:  Solving for Uy, Initial residual = 0.131792, Final residual = 9.77239e-07, No Iterations 46
[OGL LOG] init_host_sparsity_pattern : 266 ms
[OGL LOG] matrix not stored update host matrix
[OGL LOG] update_host_mtx : 126 ms
[OGL LOG] matrix is not yet sorted, sorting host matrix
[OGL LOG] sort_host_mtx_sparsity_pattern : 192 ms
[OGL LOG] sort_host_mtx : 124 ms
[OGL LOG] init_preconditioner : 0 ms
[OGL LOG] solve : 3907 ms
noneompGKOBiCGStab:  Solving for Uz, Initial residual = 0.869614, Final residual = 3.15369e-07, No Iterations 60
[OGL LOG] init_preconditioner : 0 ms
[OGL LOG] solve : 48391 ms
noneompGKOBiCGStab:  Solving for p, Initial residual = 0.759854, Final residual = 3.71908e-07, No Iterations 754
time step continuity errors : sum local = 2.68873e-09, global = 1.39614e-21, cumulative = 3.66571e-20
[OGL LOG] init_preconditioner : 0 ms
[OGL LOG] solve : 45988 ms
noneompGKOBiCGStab:  Solving for p, Initial residual = 0.713119, Final residual = 5.75603e-07, No Iterations 716
time step continuity errors : sum local = 3.58509e-08, global = -3.58896e-21, cumulative = 3.30682e-20
ExecutionTime = 553.97 s  ClockTime = 555 s

End

