/*---------------------------------------------------------------------------*\
  =========                 |
  \\      /  F ield         | OpenFOAM: The Open Source CFD Toolbox
   \\    /   O peration     | Website:  https://openfoam.org
    \\  /    A nd           | Version:  8
     \\/     M anipulation  |
\*---------------------------------------------------------------------------*/
Build  : 8-13d66902f78c
Exec   : icoFoam
Date   : Jul 12 2021
Time   : 13:06:37
Host   : "uc2n448.localdomain"
PID    : 408744
I/O    : uncollated
Case   : /pfs/data5/home/kit/scc/nq7776/code/OGL_DATA/lidDrivenCavity3D/v0.1-136-g40fef35/f584ccac99/IntelXeonGold6230CPU@2.10GHz/Test_2021-07-12-13:00:18/25/p-U-CG-GKO-BJ-omp/lidDrivenCavity3D
nProcs : 1
sigFpe : Enabling floating point exception trapping (FOAM_SIGFPE).
fileModificationChecking : Monitoring run-time modified files using timeStampMaster (fileModificationSkew 10)
allowSystemOperations : Allowing user-supplied system call operations

// * * * * * * * * * * * * * * * * * * * * * * * * * * * * * * * * * * * * * //
Create time

Create mesh for time = 0

Reading transportProperties

Reading field p

Reading field U

Reading/calculating face flux field phi


Starting time loop

Time = 0.004

Courant Number mean: 0 max: 0
[OGL LOG] init_host_sparsity_pattern : 4 ms
[OGL LOG] matrix not stored update host matrix
[OGL LOG] update_host_mtx : 2 ms
[OGL LOG] matrix is not yet sorted, compute sorting idxs
[OGL LOG] compute_sort : 108 ms
[OGL LOG] matrix is not yet sorted, sorting host matrix
[OGL LOG] sort_host_mtx_sparsity_pattern : 3 ms
[OGL LOG] sort_host_mtx : 1 ms
[OGL LOG] init_preconditioner : 8 ms
[OGL LOG] solve : 42 ms
BJompGKOBiCGStab:  Solving for Ux, Initial residual = 1, Final residual = 6.47745e-07, No Iterations 22
[OGL LOG] init_host_sparsity_pattern : 5 ms
[OGL LOG] matrix not stored update host matrix
[OGL LOG] update_host_mtx : 2 ms
[OGL LOG] matrix is not yet sorted, sorting host matrix
[OGL LOG] sort_host_mtx_sparsity_pattern : 3 ms
[OGL LOG] sort_host_mtx : 1 ms
[OGL LOG] init_preconditioner : 0 ms
[OGL LOG] solve : 0 ms
BJompGKOBiCGStab:  Solving for Uy, Initial residual = 0, Final residual = 0, No Iterations 0
[OGL LOG] init_host_sparsity_pattern : 5 ms
[OGL LOG] matrix not stored update host matrix
[OGL LOG] update_host_mtx : 2 ms
[OGL LOG] matrix is not yet sorted, sorting host matrix
[OGL LOG] sort_host_mtx_sparsity_pattern : 2 ms
[OGL LOG] sort_host_mtx : 1 ms
[OGL LOG] init_preconditioner : 0 ms
[OGL LOG] solve : 1 ms
BJompGKOBiCGStab:  Solving for Uz, Initial residual = 0, Final residual = 0, No Iterations 0
[OGL LOG] init_host_sparsity_pattern : 5 ms
[OGL LOG] matrix not stored update host matrix
[OGL LOG] update_host_mtx : 2 ms
[OGL LOG] matrix is not yet sorted, sorting host matrix
[OGL LOG] sort_host_mtx_sparsity_pattern : 2 ms
[OGL LOG] sort_host_mtx : 1 ms
[OGL LOG] init_preconditioner : 0 ms
 CG create  precond 
[OGL LOG] solve : 86 ms
BJompGKOCG:  Solving for p, Initial residual = 1, Final residual = 9.97301e-07, No Iterations 185
time step continuity errors : sum local = 4.42673e-09, global = 3.21266e-20, cumulative = 3.21266e-20
[OGL LOG] init_preconditioner : 0 ms
 CG create  precond 
[OGL LOG] solve : 84 ms
BJompGKOCG:  Solving for p, Initial residual = 0.644082, Final residual = 8.74198e-07, No Iterations 182
time step continuity errors : sum local = 5.48477e-09, global = 2.06498e-20, cumulative = 5.27764e-20
ExecutionTime = 16.1 s  ClockTime = 1 s

Time = 0.008

Courant Number mean: 0.0870973 max: 0.619854
[OGL LOG] init_host_sparsity_pattern : 5 ms
[OGL LOG] matrix not stored update host matrix
[OGL LOG] update_host_mtx : 2 ms
[OGL LOG] matrix is not yet sorted, sorting host matrix
[OGL LOG] sort_host_mtx_sparsity_pattern : 2 ms
[OGL LOG] sort_host_mtx : 1 ms
[OGL LOG] init_preconditioner : 0 ms
[OGL LOG] solve : 18 ms
BJompGKOBiCGStab:  Solving for Ux, Initial residual = 0.238938, Final residual = 8.64681e-07, No Iterations 19
[OGL LOG] init_host_sparsity_pattern : 5 ms
[OGL LOG] matrix not stored update host matrix
[OGL LOG] update_host_mtx : 2 ms
[OGL LOG] matrix is not yet sorted, sorting host matrix
[OGL LOG] sort_host_mtx_sparsity_pattern : 2 ms
[OGL LOG] sort_host_mtx : 1 ms
[OGL LOG] init_preconditioner : 0 ms
[OGL LOG] solve : 19 ms
BJompGKOBiCGStab:  Solving for Uy, Initial residual = 0.615478, Final residual = 7.77152e-07, No Iterations 20
[OGL LOG] init_host_sparsity_pattern : 5 ms
[OGL LOG] matrix not stored update host matrix
[OGL LOG] update_host_mtx : 2 ms
[OGL LOG] matrix is not yet sorted, sorting host matrix
[OGL LOG] sort_host_mtx_sparsity_pattern : 2 ms
[OGL LOG] sort_host_mtx : 1 ms
[OGL LOG] init_preconditioner : 0 ms
[OGL LOG] solve : 18 ms
BJompGKOBiCGStab:  Solving for Uz, Initial residual = 0.391818, Final residual = 7.3409e-07, No Iterations 19
[OGL LOG] init_preconditioner : 0 ms
 CG create  precond 
[OGL LOG] solve : 91 ms
BJompGKOCG:  Solving for p, Initial residual = 0.527354, Final residual = 9.48316e-07, No Iterations 194
time step continuity errors : sum local = 5.68299e-09, global = -3.52668e-20, cumulative = 1.75096e-20
[OGL LOG] init_preconditioner : 0 ms
 CG create  precond 
[OGL LOG] solve : 90 ms
BJompGKOCG:  Solving for p, Initial residual = 0.437513, Final residual = 9.94139e-07, No Iterations 193
time step continuity errors : sum local = 6.20826e-09, global = -8.26186e-20, cumulative = -6.5109e-20
ExecutionTime = 32.82 s  ClockTime = 1 s

Time = 0.012

Courant Number mean: 0.127403 max: 0.798792
[OGL LOG] init_host_sparsity_pattern : 5 ms
[OGL LOG] matrix not stored update host matrix
[OGL LOG] update_host_mtx : 1 ms
[OGL LOG] matrix is not yet sorted, sorting host matrix
[OGL LOG] sort_host_mtx_sparsity_pattern : 2 ms
[OGL LOG] sort_host_mtx : 1 ms
[OGL LOG] init_preconditioner : 0 ms
[OGL LOG] solve : 16 ms
BJompGKOBiCGStab:  Solving for Ux, Initial residual = 0.0920495, Final residual = 9.4204e-07, No Iterations 18
[OGL LOG] init_host_sparsity_pattern : 5 ms
[OGL LOG] matrix not stored update host matrix
[OGL LOG] update_host_mtx : 2 ms
[OGL LOG] matrix is not yet sorted, sorting host matrix
[OGL LOG] sort_host_mtx_sparsity_pattern : 2 ms
[OGL LOG] sort_host_mtx : 1 ms
[OGL LOG] init_preconditioner : 0 ms
[OGL LOG] solve : 16 ms
BJompGKOBiCGStab:  Solving for Uy, Initial residual = 0.145852, Final residual = 9.21786e-07, No Iterations 17
[OGL LOG] init_host_sparsity_pattern : 5 ms
[OGL LOG] matrix not stored update host matrix
[OGL LOG] update_host_mtx : 2 ms
[OGL LOG] matrix is not yet sorted, sorting host matrix
[OGL LOG] sort_host_mtx_sparsity_pattern : 2 ms
[OGL LOG] sort_host_mtx : 1 ms
[OGL LOG] init_preconditioner : 0 ms
[OGL LOG] solve : 18 ms
BJompGKOBiCGStab:  Solving for Uz, Initial residual = 0.339763, Final residual = 6.60917e-07, No Iterations 19
[OGL LOG] init_preconditioner : 0 ms
 CG create  precond 
[OGL LOG] solve : 93 ms
BJompGKOCG:  Solving for p, Initial residual = 0.305735, Final residual = 9.81193e-07, No Iterations 189
time step continuity errors : sum local = 4.38441e-09, global = 8.42532e-20, cumulative = 1.91442e-20
[OGL LOG] init_preconditioner : 0 ms
 CG create  precond 
[OGL LOG] solve : 95 ms
BJompGKOCG:  Solving for p, Initial residual = 0.265167, Final residual = 9.31802e-07, No Iterations 182
time step continuity errors : sum local = 4.08564e-09, global = 1.31749e-19, cumulative = 1.50894e-19
ExecutionTime = 49.83 s  ClockTime = 1 s

Time = 0.016

Courant Number mean: 0.145254 max: 0.82722
[OGL LOG] init_host_sparsity_pattern : 5 ms
[OGL LOG] matrix not stored update host matrix
[OGL LOG] update_host_mtx : 1 ms
[OGL LOG] matrix is not yet sorted, sorting host matrix
[OGL LOG] sort_host_mtx_sparsity_pattern : 2 ms
[OGL LOG] sort_host_mtx : 1 ms
[OGL LOG] init_preconditioner : 0 ms
[OGL LOG] solve : 15 ms
BJompGKOBiCGStab:  Solving for Ux, Initial residual = 0.0235044, Final residual = 9.82956e-07, No Iterations 15
[OGL LOG] init_host_sparsity_pattern : 6 ms
[OGL LOG] matrix not stored update host matrix
[OGL LOG] update_host_mtx : 1 ms
[OGL LOG] matrix is not yet sorted, sorting host matrix
[OGL LOG] sort_host_mtx_sparsity_pattern : 2 ms
[OGL LOG] sort_host_mtx : 1 ms
[OGL LOG] init_preconditioner : 0 ms
[OGL LOG] solve : 17 ms
BJompGKOBiCGStab:  Solving for Uy, Initial residual = 0.0608565, Final residual = 8.18907e-07, No Iterations 17
[OGL LOG] init_host_sparsity_pattern : 6 ms
[OGL LOG] matrix not stored update host matrix
[OGL LOG] update_host_mtx : 1 ms
[OGL LOG] matrix is not yet sorted, sorting host matrix
[OGL LOG] sort_host_mtx_sparsity_pattern : 2 ms
[OGL LOG] sort_host_mtx : 1 ms
[OGL LOG] init_preconditioner : 0 ms
[OGL LOG] solve : 19 ms
BJompGKOBiCGStab:  Solving for Uz, Initial residual = 0.184287, Final residual = 7.16206e-07, No Iterations 18
[OGL LOG] init_preconditioner : 0 ms
 CG create  precond 
[OGL LOG] solve : 99 ms
BJompGKOCG:  Solving for p, Initial residual = 0.239443, Final residual = 9.29314e-07, No Iterations 189
time step continuity errors : sum local = 4.3148e-09, global = -8.7387e-21, cumulative = 1.42155e-19
[OGL LOG] init_preconditioner : 0 ms
 CG create  precond 
[OGL LOG] solve : 112 ms
BJompGKOCG:  Solving for p, Initial residual = 0.222234, Final residual = 9.7387e-07, No Iterations 183
time step continuity errors : sum local = 4.573e-09, global = 1.62609e-20, cumulative = 1.58416e-19
ExecutionTime = 68.66 s  ClockTime = 2 s

Time = 0.02

Courant Number mean: 0.157058 max: 0.845844
[OGL LOG] init_host_sparsity_pattern : 4 ms
[OGL LOG] matrix not stored update host matrix
[OGL LOG] update_host_mtx : 2 ms
[OGL LOG] matrix is not yet sorted, sorting host matrix
[OGL LOG] sort_host_mtx_sparsity_pattern : 3 ms
[OGL LOG] sort_host_mtx : 1 ms
[OGL LOG] init_preconditioner : 0 ms
[OGL LOG] solve : 23 ms
BJompGKOBiCGStab:  Solving for Ux, Initial residual = 0.0150185, Final residual = 5.10258e-07, No Iterations 15
[OGL LOG] init_host_sparsity_pattern : 6 ms
[OGL LOG] matrix not stored update host matrix
[OGL LOG] update_host_mtx : 1 ms
[OGL LOG] matrix is not yet sorted, sorting host matrix
[OGL LOG] sort_host_mtx_sparsity_pattern : 2 ms
[OGL LOG] sort_host_mtx : 1 ms
[OGL LOG] init_preconditioner : 0 ms
[OGL LOG] solve : 22 ms
BJompGKOBiCGStab:  Solving for Uy, Initial residual = 0.0280961, Final residual = 7.78293e-07, No Iterations 16
[OGL LOG] init_host_sparsity_pattern : 6 ms
[OGL LOG] matrix not stored update host matrix
[OGL LOG] update_host_mtx : 1 ms
[OGL LOG] matrix is not yet sorted, sorting host matrix
[OGL LOG] sort_host_mtx_sparsity_pattern : 2 ms
[OGL LOG] sort_host_mtx : 1 ms
[OGL LOG] init_preconditioner : 0 ms
[OGL LOG] solve : 22 ms
BJompGKOBiCGStab:  Solving for Uz, Initial residual = 0.0757795, Final residual = 8.56242e-07, No Iterations 16
[OGL LOG] init_preconditioner : 0 ms
 CG create  precond 
[OGL LOG] solve : 94 ms
BJompGKOCG:  Solving for p, Initial residual = 0.234946, Final residual = 9.14545e-07, No Iterations 181
time step continuity errors : sum local = 4.19868e-09, global = -5.60601e-20, cumulative = 1.02356e-19
[OGL LOG] init_preconditioner : 0 ms
 CG create  precond 
[OGL LOG] solve : 93 ms
BJompGKOCG:  Solving for p, Initial residual = 0.233174, Final residual = 8.69129e-07, No Iterations 181
time step continuity errors : sum local = 3.99197e-09, global = -1.24571e-19, cumulative = -2.22156e-20
ExecutionTime = 86.59 s  ClockTime = 2 s

End

