/*---------------------------------------------------------------------------*\
  =========                 |
  \\      /  F ield         | OpenFOAM: The Open Source CFD Toolbox
   \\    /   O peration     | Website:  https://openfoam.org
    \\  /    A nd           | Version:  8
     \\/     M anipulation  |
\*---------------------------------------------------------------------------*/
Build  : 8-13d66902f78c
Exec   : icoFoam
Date   : Jul 13 2021
Time   : 22:50:33
Host   : "uc2n525.localdomain"
PID    : 3758175
I/O    : uncollated
Case   : /pfs/data5/home/kit/scc/nq7776/code/OGL_DATA/lidDrivenCavity3D/v0.1-136-g40fef35/f584ccac99/IntelXeonGold6230CPU@2.10GHz/Test_2021-07-13-22:16:26/75/p-BiCGStab-GKO-none-omp/lidDrivenCavity3D
nProcs : 1
sigFpe : Enabling floating point exception trapping (FOAM_SIGFPE).
fileModificationChecking : Monitoring run-time modified files using timeStampMaster (fileModificationSkew 10)
allowSystemOperations : Allowing user-supplied system call operations

// * * * * * * * * * * * * * * * * * * * * * * * * * * * * * * * * * * * * * //
Create time

Create mesh for time = 0

Reading transportProperties

Reading field p

Reading field U

Reading/calculating face flux field phi


Starting time loop

Time = 0.00133333

Courant Number mean: 0 max: 0
nonePBiCGStab:  Solving for Ux, Initial residual = 1, Final residual = 0.0730209, No Iterations 5
nonePBiCGStab:  Solving for Uy, Initial residual = 0, Final residual = 0, No Iterations 0
nonePBiCGStab:  Solving for Uz, Initial residual = 0, Final residual = 0, No Iterations 0
[OGL LOG] init_host_sparsity_pattern : 124 ms
[OGL LOG] matrix not stored update host matrix
[OGL LOG] update_host_mtx : 62 ms
[OGL LOG] matrix is not yet sorted, compute sorting idxs
[OGL LOG] compute_sort : 3340 ms
[OGL LOG] matrix is not yet sorted, sorting host matrix
[OGL LOG] sort_host_mtx_sparsity_pattern : 80 ms
[OGL LOG] sort_host_mtx : 52 ms
[OGL LOG] init_preconditioner : 0 ms
[OGL LOG] solve : 9373 ms
noneompGKOBiCGStab:  Solving for p, Initial residual = 1, Final residual = 8.1714e-07, No Iterations 521
time step continuity errors : sum local = 7.73612e-09, global = 7.57635e-21, cumulative = 7.57635e-21
[OGL LOG] init_preconditioner : 0 ms
[OGL LOG] solve : 9695 ms
noneompGKOBiCGStab:  Solving for p, Initial residual = 0.697113, Final residual = 5.13948e-07, No Iterations 536
time step continuity errors : sum local = 1.38858e-07, global = 7.72222e-21, cumulative = 1.52986e-20
ExecutionTime = 43.9 s  ClockTime = 25 s

Time = 0.00266667

Courant Number mean: 0.0508076 max: 0.767258
nonePBiCGStab:  Solving for Ux, Initial residual = 0.140583, Final residual = 0.0324472, No Iterations 5
nonePBiCGStab:  Solving for Uy, Initial residual = 0.413637, Final residual = 0.0924219, No Iterations 5
nonePBiCGStab:  Solving for Uz, Initial residual = 0.982262, Final residual = 0.250257, No Iterations 5
[OGL LOG] init_preconditioner : 0 ms
[OGL LOG] solve : 10010 ms
noneompGKOBiCGStab:  Solving for p, Initial residual = 0.746893, Final residual = 1.94444e-07, No Iterations 543
time step continuity errors : sum local = 1.63388e-06, global = -2.49491e-21, cumulative = 1.28037e-20
[OGL LOG] init_preconditioner : 0 ms
[OGL LOG] solve : 9715 ms
noneompGKOBiCGStab:  Solving for p, Initial residual = 0.668092, Final residual = 9.75518e-07, No Iterations 532
time step continuity errors : sum local = 8.74064e-09, global = 1.05586e-22, cumulative = 1.29092e-20
ExecutionTime = 83.79 s  ClockTime = 46 s

Time = 0.004

Courant Number mean: 0.0796118 max: 0.886041
nonePBiCGStab:  Solving for Ux, Initial residual = 0.0586308, Final residual = 0.0112195, No Iterations 5
nonePBiCGStab:  Solving for Uy, Initial residual = 0.171906, Final residual = 0.039977, No Iterations 5
nonePBiCGStab:  Solving for Uz, Initial residual = 0.625311, Final residual = 0.165243, No Iterations 5
[OGL LOG] init_preconditioner : 0 ms
[OGL LOG] solve : 9325 ms
noneompGKOBiCGStab:  Solving for p, Initial residual = 0.730098, Final residual = 6.03179e-07, No Iterations 506
time step continuity errors : sum local = 9.42566e-08, global = 8.58676e-21, cumulative = 2.1496e-20
[OGL LOG] init_preconditioner : 0 ms
[OGL LOG] solve : 9899 ms
noneompGKOBiCGStab:  Solving for p, Initial residual = 0.660411, Final residual = 9.97038e-07, No Iterations 539
time step continuity errors : sum local = 3.42262e-09, global = -1.73528e-20, cumulative = 4.14321e-21
ExecutionTime = 122.68 s  ClockTime = 65 s

Time = 0.00533333

Courant Number mean: 0.0948089 max: 0.902553
nonePBiCGStab:  Solving for Ux, Initial residual = 0.0346184, Final residual = 0.00686606, No Iterations 5
nonePBiCGStab:  Solving for Uy, Initial residual = 0.119817, Final residual = 0.0298902, No Iterations 5
nonePBiCGStab:  Solving for Uz, Initial residual = 0.392272, Final residual = 0.083905, No Iterations 5
[OGL LOG] init_preconditioner : 0 ms
[OGL LOG] solve : 9851 ms
noneompGKOBiCGStab:  Solving for p, Initial residual = 0.609055, Final residual = 1.07537e-07, No Iterations 535
time step continuity errors : sum local = 4.73942e-08, global = 1.51143e-20, cumulative = 1.92575e-20
[OGL LOG] init_preconditioner : 0 ms
[OGL LOG] solve : 9402 ms
noneompGKOBiCGStab:  Solving for p, Initial residual = 0.520288, Final residual = 9.94852e-07, No Iterations 516
time step continuity errors : sum local = 7.14057e-09, global = 8.57044e-21, cumulative = 2.7828e-20
ExecutionTime = 161.6 s  ClockTime = 85 s

Time = 0.00666667

Courant Number mean: 0.10716 max: 0.916778
nonePBiCGStab:  Solving for Ux, Initial residual = 0.0257783, Final residual = 0.00503705, No Iterations 5
nonePBiCGStab:  Solving for Uy, Initial residual = 0.075009, Final residual = 0.0209052, No Iterations 5
nonePBiCGStab:  Solving for Uz, Initial residual = 0.21838, Final residual = 0.051566, No Iterations 5
[OGL LOG] init_preconditioner : 0 ms
[OGL LOG] solve : 11276 ms
noneompGKOBiCGStab:  Solving for p, Initial residual = 0.628127, Final residual = 7.8789e-07, No Iterations 613
time step continuity errors : sum local = 9.78907e-10, global = 3.81659e-21, cumulative = 3.16445e-20
[OGL LOG] init_preconditioner : 0 ms
[OGL LOG] solve : 9169 ms
noneompGKOBiCGStab:  Solving for p, Initial residual = 0.550934, Final residual = 8.14802e-07, No Iterations 498
time step continuity errors : sum local = 4.56428e-09, global = 4.4371e-21, cumulative = 3.60817e-20
ExecutionTime = 202.65 s  ClockTime = 106 s

End

