/*---------------------------------------------------------------------------*\
  =========                 |
  \\      /  F ield         | OpenFOAM: The Open Source CFD Toolbox
   \\    /   O peration     | Website:  https://openfoam.org
    \\  /    A nd           | Version:  8
     \\/     M anipulation  |
\*---------------------------------------------------------------------------*/
Build  : 8-13d66902f78c
Exec   : icoFoam
Date   : Jul 12 2021
Time   : 13:33:34
Host   : "uc2n438.localdomain"
PID    : 4131227
I/O    : uncollated
Case   : /pfs/data5/home/kit/scc/nq7776/code/OGL_DATA/lidDrivenCavity3D/v0.1-136-g40fef35/f584ccac99/IntelXeonGold6230CPU@2.10GHz/Test_2021-07-12-12:41:27/75/p-BiCGStab-GKO-BJ-omp/lidDrivenCavity3D
nProcs : 1
sigFpe : Enabling floating point exception trapping (FOAM_SIGFPE).
fileModificationChecking : Monitoring run-time modified files using timeStampMaster (fileModificationSkew 10)
allowSystemOperations : Allowing user-supplied system call operations

// * * * * * * * * * * * * * * * * * * * * * * * * * * * * * * * * * * * * * //
Create time

Create mesh for time = 0

Reading transportProperties

Reading field p

Reading field U

Reading/calculating face flux field phi


Starting time loop

Time = 0.00133333

Courant Number mean: 0 max: 0
nonePBiCGStab:  Solving for Ux, Initial residual = 1, Final residual = 0.0730231, No Iterations 5
nonePBiCGStab:  Solving for Uy, Initial residual = 0, Final residual = 0, No Iterations 0
nonePBiCGStab:  Solving for Uz, Initial residual = 0, Final residual = 0, No Iterations 0
[OGL LOG] init_host_sparsity_pattern : 123 ms
[OGL LOG] matrix not stored update host matrix
[OGL LOG] update_host_mtx : 62 ms
[OGL LOG] matrix is not yet sorted, compute sorting idxs
[OGL LOG] compute_sort : 3629 ms
[OGL LOG] matrix is not yet sorted, sorting host matrix
[OGL LOG] sort_host_mtx_sparsity_pattern : 81 ms
[OGL LOG] sort_host_mtx : 53 ms
[OGL LOG] init_preconditioner : 60 ms
[OGL LOG] solve : 17102 ms
BJompGKOBiCGStab:  Solving for p, Initial residual = 1, Final residual = 4.64271e-07, No Iterations 415
time step continuity errors : sum local = 3.75427e-09, global = 5.36811e-21, cumulative = 5.36811e-21
[OGL LOG] init_preconditioner : 0 ms
[OGL LOG] solve : 17201 ms
BJompGKOBiCGStab:  Solving for p, Initial residual = 0.697113, Final residual = 9.18802e-07, No Iterations 412
time step continuity errors : sum local = 2.86719e-08, global = -1.771e-21, cumulative = 3.59711e-21
ExecutionTime = 74.55 s  ClockTime = 41 s

Time = 0.00266667

Courant Number mean: 0.0508076 max: 0.767232
nonePBiCGStab:  Solving for Ux, Initial residual = 0.140596, Final residual = 0.0324552, No Iterations 5
nonePBiCGStab:  Solving for Uy, Initial residual = 0.41364, Final residual = 0.092338, No Iterations 5
nonePBiCGStab:  Solving for Uz, Initial residual = 0.98305, Final residual = 0.250019, No Iterations 5
[OGL LOG] init_preconditioner : 0 ms
[OGL LOG] solve : 15766 ms
BJompGKOBiCGStab:  Solving for p, Initial residual = 0.746888, Final residual = 7.31091e-07, No Iterations 382
time step continuity errors : sum local = 2.24949e-08, global = 6.80211e-21, cumulative = 1.03992e-20
[OGL LOG] init_preconditioner : 0 ms
[OGL LOG] solve : 15546 ms
BJompGKOBiCGStab:  Solving for p, Initial residual = 0.668123, Final residual = 7.83355e-07, No Iterations 379
time step continuity errors : sum local = 1.15795e-08, global = 1.43296e-20, cumulative = 2.47288e-20
ExecutionTime = 137.59 s  ClockTime = 72 s

Time = 0.004

Courant Number mean: 0.0796132 max: 0.886021
nonePBiCGStab:  Solving for Ux, Initial residual = 0.0584462, Final residual = 0.0111469, No Iterations 5
nonePBiCGStab:  Solving for Uy, Initial residual = 0.17198, Final residual = 0.0398947, No Iterations 5
nonePBiCGStab:  Solving for Uz, Initial residual = 0.610401, Final residual = 0.142027, No Iterations 5
[OGL LOG] init_preconditioner : 0 ms
[OGL LOG] solve : 17089 ms
BJompGKOBiCGStab:  Solving for p, Initial residual = 0.730369, Final residual = 6.1694e-07, No Iterations 416
time step continuity errors : sum local = 2.38625e-09, global = 2.3369e-20, cumulative = 4.80978e-20
[OGL LOG] init_preconditioner : 0 ms
[OGL LOG] solve : 17897 ms
BJompGKOBiCGStab:  Solving for p, Initial residual = 0.660925, Final residual = 1.95495e-07, No Iterations 435
time step continuity errors : sum local = 1.23656e-08, global = -3.01165e-21, cumulative = 4.50861e-20
ExecutionTime = 207.91 s  ClockTime = 108 s

Time = 0.00533333

Courant Number mean: 0.0948101 max: 0.902547
nonePBiCGStab:  Solving for Ux, Initial residual = 0.0345932, Final residual = 0.00682961, No Iterations 5
nonePBiCGStab:  Solving for Uy, Initial residual = 0.119555, Final residual = 0.0298197, No Iterations 5
nonePBiCGStab:  Solving for Uz, Initial residual = 0.386113, Final residual = 0.080664, No Iterations 5
[OGL LOG] init_preconditioner : 0 ms
[OGL LOG] solve : 17079 ms
BJompGKOBiCGStab:  Solving for p, Initial residual = 0.609809, Final residual = 9.84864e-07, No Iterations 416
time step continuity errors : sum local = 9.73149e-10, global = -4.29512e-21, cumulative = 4.0791e-20
[OGL LOG] init_preconditioner : 0 ms
[OGL LOG] solve : 15994 ms
BJompGKOBiCGStab:  Solving for p, Initial residual = 0.521131, Final residual = 9.24403e-07, No Iterations 387
time step continuity errors : sum local = 1.51164e-09, global = -7.27771e-21, cumulative = 3.35133e-20
ExecutionTime = 274.43 s  ClockTime = 142 s

Time = 0.00666667

Courant Number mean: 0.107176 max: 0.916758
nonePBiCGStab:  Solving for Ux, Initial residual = 0.0257313, Final residual = 0.00503108, No Iterations 5
nonePBiCGStab:  Solving for Uy, Initial residual = 0.0750498, Final residual = 0.0208233, No Iterations 5
nonePBiCGStab:  Solving for Uz, Initial residual = 0.212667, Final residual = 0.0494956, No Iterations 5
[OGL LOG] init_preconditioner : 0 ms
[OGL LOG] solve : 16227 ms
BJompGKOBiCGStab:  Solving for p, Initial residual = 0.629329, Final residual = 9.03974e-07, No Iterations 394
time step continuity errors : sum local = 7.9973e-10, global = -7.76342e-21, cumulative = 2.57499e-20
[OGL LOG] init_preconditioner : 0 ms
[OGL LOG] solve : 17366 ms
BJompGKOBiCGStab:  Solving for p, Initial residual = 0.552169, Final residual = 9.05765e-07, No Iterations 422
time step continuity errors : sum local = 1.2942e-09, global = -2.5082e-20, cumulative = 6.67911e-22
ExecutionTime = 341.97 s  ClockTime = 176 s

End

