/*---------------------------------------------------------------------------*\
  =========                 |
  \\      /  F ield         | OpenFOAM: The Open Source CFD Toolbox
   \\    /   O peration     | Website:  https://openfoam.org
    \\  /    A nd           | Version:  8
     \\/     M anipulation  |
\*---------------------------------------------------------------------------*/
Build  : 8-13d66902f78c
Exec   : icoFoam
Date   : Jul 12 2021
Time   : 13:37:54
Host   : "uc2n445.localdomain"
PID    : 3208676
I/O    : uncollated
Case   : /pfs/data5/home/kit/scc/nq7776/code/OGL_DATA/lidDrivenCavity3D/v0.1-136-g40fef35/f584ccac99/IntelXeonGold6230CPU@2.10GHz/Test_2021-07-12-13:12:59/50/p-U-BiCGStab-GKO-BJ-omp/lidDrivenCavity3D
nProcs : 1
sigFpe : Enabling floating point exception trapping (FOAM_SIGFPE).
fileModificationChecking : Monitoring run-time modified files using timeStampMaster (fileModificationSkew 10)
allowSystemOperations : Allowing user-supplied system call operations

// * * * * * * * * * * * * * * * * * * * * * * * * * * * * * * * * * * * * * //
Create time

Create mesh for time = 0

Reading transportProperties

Reading field p

Reading field U

Reading/calculating face flux field phi


Starting time loop

Time = 0.002

Courant Number mean: 0 max: 0
[OGL LOG] init_host_sparsity_pattern : 35 ms
[OGL LOG] matrix not stored update host matrix
[OGL LOG] update_host_mtx : 18 ms
[OGL LOG] matrix is not yet sorted, compute sorting idxs
[OGL LOG] compute_sort : 986 ms
[OGL LOG] matrix is not yet sorted, sorting host matrix
[OGL LOG] sort_host_mtx_sparsity_pattern : 23 ms
[OGL LOG] sort_host_mtx : 14 ms
[OGL LOG] init_preconditioner : 12 ms
[OGL LOG] solve : 191 ms
BJompGKOBiCGStab:  Solving for Ux, Initial residual = 1, Final residual = 8.40984e-07, No Iterations 31
[OGL LOG] init_host_sparsity_pattern : 35 ms
[OGL LOG] matrix not stored update host matrix
[OGL LOG] update_host_mtx : 18 ms
[OGL LOG] matrix is not yet sorted, sorting host matrix
[OGL LOG] sort_host_mtx_sparsity_pattern : 23 ms
[OGL LOG] sort_host_mtx : 12 ms
[OGL LOG] init_preconditioner : 2 ms
[OGL LOG] solve : 4 ms
BJompGKOBiCGStab:  Solving for Uy, Initial residual = 0, Final residual = 0, No Iterations 0
[OGL LOG] init_host_sparsity_pattern : 34 ms
[OGL LOG] matrix not stored update host matrix
[OGL LOG] update_host_mtx : 15 ms
[OGL LOG] matrix is not yet sorted, sorting host matrix
[OGL LOG] sort_host_mtx_sparsity_pattern : 23 ms
[OGL LOG] sort_host_mtx : 12 ms
[OGL LOG] init_preconditioner : 2 ms
[OGL LOG] solve : 4 ms
BJompGKOBiCGStab:  Solving for Uz, Initial residual = 0, Final residual = 0, No Iterations 0
[OGL LOG] init_host_sparsity_pattern : 33 ms
[OGL LOG] matrix not stored update host matrix
[OGL LOG] update_host_mtx : 18 ms
[OGL LOG] matrix is not yet sorted, sorting host matrix
[OGL LOG] sort_host_mtx_sparsity_pattern : 22 ms
[OGL LOG] sort_host_mtx : 14 ms
[OGL LOG] init_preconditioner : 2 ms
[OGL LOG] solve : 1130 ms
BJompGKOBiCGStab:  Solving for p, Initial residual = 1, Final residual = 6.58821e-07, No Iterations 295
time step continuity errors : sum local = 2.31346e-08, global = 3.56411e-22, cumulative = 3.56411e-22
[OGL LOG] init_preconditioner : 0 ms
[OGL LOG] solve : 1026 ms
BJompGKOBiCGStab:  Solving for p, Initial residual = 0.721579, Final residual = 2.8788e-07, No Iterations 277
time step continuity errors : sum local = 1.7199e-07, global = 8.45309e-21, cumulative = 8.80951e-21
ExecutionTime = 155.22 s  ClockTime = 4 s

Time = 0.004

Courant Number mean: 0.0720723 max: 0.726639
[OGL LOG] init_host_sparsity_pattern : 33 ms
[OGL LOG] matrix not stored update host matrix
[OGL LOG] update_host_mtx : 15 ms
[OGL LOG] matrix is not yet sorted, sorting host matrix
[OGL LOG] sort_host_mtx_sparsity_pattern : 25 ms
[OGL LOG] sort_host_mtx : 13 ms
[OGL LOG] init_preconditioner : 0 ms
[OGL LOG] solve : 98 ms
BJompGKOBiCGStab:  Solving for Ux, Initial residual = 0.20346, Final residual = 6.83577e-07, No Iterations 23
[OGL LOG] init_host_sparsity_pattern : 34 ms
[OGL LOG] matrix not stored update host matrix
[OGL LOG] update_host_mtx : 15 ms
[OGL LOG] matrix is not yet sorted, sorting host matrix
[OGL LOG] sort_host_mtx_sparsity_pattern : 22 ms
[OGL LOG] sort_host_mtx : 12 ms
[OGL LOG] init_preconditioner : 0 ms
[OGL LOG] solve : 131 ms
BJompGKOBiCGStab:  Solving for Uy, Initial residual = 0.618435, Final residual = 9.27225e-07, No Iterations 32
[OGL LOG] init_host_sparsity_pattern : 34 ms
[OGL LOG] matrix not stored update host matrix
[OGL LOG] update_host_mtx : 15 ms
[OGL LOG] matrix is not yet sorted, sorting host matrix
[OGL LOG] sort_host_mtx_sparsity_pattern : 22 ms
[OGL LOG] sort_host_mtx : 12 ms
[OGL LOG] init_preconditioner : 0 ms
[OGL LOG] solve : 129 ms
BJompGKOBiCGStab:  Solving for Uz, Initial residual = 0.536114, Final residual = 9.44349e-07, No Iterations 32
[OGL LOG] init_preconditioner : 0 ms
[OGL LOG] solve : 996 ms
BJompGKOBiCGStab:  Solving for p, Initial residual = 0.67333, Final residual = 7.64285e-07, No Iterations 271
time step continuity errors : sum local = 2.81929e-07, global = 3.5035e-20, cumulative = 4.38445e-20
[OGL LOG] init_preconditioner : 0 ms
[OGL LOG] solve : 1008 ms
BJompGKOBiCGStab:  Solving for p, Initial residual = 0.598909, Final residual = 9.9573e-07, No Iterations 273
time step continuity errors : sum local = 4.54066e-09, global = -2.84431e-21, cumulative = 4.10002e-20
ExecutionTime = 308.66 s  ClockTime = 7 s

Time = 0.006

Courant Number mean: 0.107408 max: 0.881755
[OGL LOG] init_host_sparsity_pattern : 33 ms
[OGL LOG] matrix not stored update host matrix
[OGL LOG] update_host_mtx : 16 ms
[OGL LOG] matrix is not yet sorted, sorting host matrix
[OGL LOG] sort_host_mtx_sparsity_pattern : 23 ms
[OGL LOG] sort_host_mtx : 13 ms
[OGL LOG] init_preconditioner : 0 ms
[OGL LOG] solve : 80 ms
BJompGKOBiCGStab:  Solving for Ux, Initial residual = 0.0995552, Final residual = 9.79764e-07, No Iterations 20
[OGL LOG] init_host_sparsity_pattern : 34 ms
[OGL LOG] matrix not stored update host matrix
[OGL LOG] update_host_mtx : 15 ms
[OGL LOG] matrix is not yet sorted, sorting host matrix
[OGL LOG] sort_host_mtx_sparsity_pattern : 22 ms
[OGL LOG] sort_host_mtx : 12 ms
[OGL LOG] init_preconditioner : 0 ms
[OGL LOG] solve : 115 ms
BJompGKOBiCGStab:  Solving for Uy, Initial residual = 0.250008, Final residual = 8.26755e-07, No Iterations 29
[OGL LOG] init_host_sparsity_pattern : 35 ms
[OGL LOG] matrix not stored update host matrix
[OGL LOG] update_host_mtx : 15 ms
[OGL LOG] matrix is not yet sorted, sorting host matrix
[OGL LOG] sort_host_mtx_sparsity_pattern : 23 ms
[OGL LOG] sort_host_mtx : 12 ms
[OGL LOG] init_preconditioner : 0 ms
[OGL LOG] solve : 127 ms
BJompGKOBiCGStab:  Solving for Uz, Initial residual = 0.541091, Final residual = 8.89897e-07, No Iterations 32
[OGL LOG] init_preconditioner : 0 ms
[OGL LOG] solve : 1006 ms
BJompGKOBiCGStab:  Solving for p, Initial residual = 0.606877, Final residual = 9.79767e-07, No Iterations 258
time step continuity errors : sum local = 1.05868e-08, global = -2.68966e-20, cumulative = 1.41037e-20
[OGL LOG] init_preconditioner : 0 ms
[OGL LOG] solve : 990 ms
BJompGKOBiCGStab:  Solving for p, Initial residual = 0.560883, Final residual = 9.38925e-07, No Iterations 272
time step continuity errors : sum local = 1.65174e-09, global = -3.90979e-20, cumulative = -2.49943e-20
ExecutionTime = 459.44 s  ClockTime = 10 s

Time = 0.008

Courant Number mean: 0.123244 max: 0.890103
[OGL LOG] init_host_sparsity_pattern : 33 ms
[OGL LOG] matrix not stored update host matrix
[OGL LOG] update_host_mtx : 15 ms
[OGL LOG] matrix is not yet sorted, sorting host matrix
[OGL LOG] sort_host_mtx_sparsity_pattern : 22 ms
[OGL LOG] sort_host_mtx : 12 ms
[OGL LOG] init_preconditioner : 0 ms
[OGL LOG] solve : 96 ms
BJompGKOBiCGStab:  Solving for Ux, Initial residual = 0.0341384, Final residual = 7.92759e-07, No Iterations 25
[OGL LOG] init_host_sparsity_pattern : 34 ms
[OGL LOG] matrix not stored update host matrix
[OGL LOG] update_host_mtx : 15 ms
[OGL LOG] matrix is not yet sorted, sorting host matrix
[OGL LOG] sort_host_mtx_sparsity_pattern : 22 ms
[OGL LOG] sort_host_mtx : 12 ms
[OGL LOG] init_preconditioner : 0 ms
[OGL LOG] solve : 107 ms
BJompGKOBiCGStab:  Solving for Uy, Initial residual = 0.132381, Final residual = 8.14579e-07, No Iterations 28
[OGL LOG] init_host_sparsity_pattern : 34 ms
[OGL LOG] matrix not stored update host matrix
[OGL LOG] update_host_mtx : 15 ms
[OGL LOG] matrix is not yet sorted, sorting host matrix
[OGL LOG] sort_host_mtx_sparsity_pattern : 22 ms
[OGL LOG] sort_host_mtx : 12 ms
[OGL LOG] init_preconditioner : 0 ms
[OGL LOG] solve : 118 ms
BJompGKOBiCGStab:  Solving for Uz, Initial residual = 0.471996, Final residual = 9.31069e-07, No Iterations 31
[OGL LOG] init_preconditioner : 0 ms
[OGL LOG] solve : 958 ms
BJompGKOBiCGStab:  Solving for p, Initial residual = 0.423026, Final residual = 9.70066e-07, No Iterations 263
time step continuity errors : sum local = 1.64141e-09, global = -6.33755e-21, cumulative = -3.13318e-20
[OGL LOG] init_preconditioner : 0 ms
[OGL LOG] solve : 1024 ms
BJompGKOBiCGStab:  Solving for p, Initial residual = 0.368365, Final residual = 8.26541e-07, No Iterations 271
time step continuity errors : sum local = 1.95393e-09, global = -7.67647e-21, cumulative = -3.90083e-20
ExecutionTime = 609.24 s  ClockTime = 12 s

Time = 0.01

Courant Number mean: 0.136096 max: 0.906942
[OGL LOG] init_host_sparsity_pattern : 33 ms
[OGL LOG] matrix not stored update host matrix
[OGL LOG] update_host_mtx : 18 ms
[OGL LOG] matrix is not yet sorted, sorting host matrix
[OGL LOG] sort_host_mtx_sparsity_pattern : 24 ms
[OGL LOG] sort_host_mtx : 13 ms
[OGL LOG] init_preconditioner : 0 ms
[OGL LOG] solve : 97 ms
BJompGKOBiCGStab:  Solving for Ux, Initial residual = 0.0230739, Final residual = 7.3372e-07, No Iterations 24
[OGL LOG] init_host_sparsity_pattern : 34 ms
[OGL LOG] matrix not stored update host matrix
[OGL LOG] update_host_mtx : 15 ms
[OGL LOG] matrix is not yet sorted, sorting host matrix
[OGL LOG] sort_host_mtx_sparsity_pattern : 22 ms
[OGL LOG] sort_host_mtx : 12 ms
[OGL LOG] init_preconditioner : 0 ms
[OGL LOG] solve : 101 ms
BJompGKOBiCGStab:  Solving for Uy, Initial residual = 0.0484066, Final residual = 9.7667e-07, No Iterations 25
[OGL LOG] init_host_sparsity_pattern : 34 ms
[OGL LOG] matrix not stored update host matrix
[OGL LOG] update_host_mtx : 15 ms
[OGL LOG] matrix is not yet sorted, sorting host matrix
[OGL LOG] sort_host_mtx_sparsity_pattern : 22 ms
[OGL LOG] sort_host_mtx : 12 ms
[OGL LOG] init_preconditioner : 0 ms
[OGL LOG] solve : 114 ms
BJompGKOBiCGStab:  Solving for Uz, Initial residual = 0.159157, Final residual = 8.56944e-07, No Iterations 28
[OGL LOG] init_preconditioner : 0 ms
[OGL LOG] solve : 894 ms
BJompGKOBiCGStab:  Solving for p, Initial residual = 0.361659, Final residual = 6.47265e-07, No Iterations 247
time step continuity errors : sum local = 1.01122e-09, global = 2.57202e-20, cumulative = -1.32881e-20
[OGL LOG] init_preconditioner : 0 ms
[OGL LOG] solve : 929 ms
BJompGKOBiCGStab:  Solving for p, Initial residual = 0.333159, Final residual = 7.07846e-07, No Iterations 255
time step continuity errors : sum local = 9.70609e-10, global = 3.5916e-20, cumulative = 2.26279e-20
ExecutionTime = 748.32 s  ClockTime = 15 s

End

