/*---------------------------------------------------------------------------*\
  =========                 |
  \\      /  F ield         | OpenFOAM: The Open Source CFD Toolbox
   \\    /   O peration     | Website:  https://openfoam.org
    \\  /    A nd           | Version:  8
     \\/     M anipulation  |
\*---------------------------------------------------------------------------*/
Build  : 8-13d66902f78c
Exec   : icoFoam
Date   : Jul 12 2021
Time   : 12:58:03
Host   : "uc2n400.localdomain"
PID    : 3892349
I/O    : uncollated
Case   : /pfs/data5/home/kit/scc/nq7776/code/OGL_DATA/lidDrivenCavity3D/v0.1-136-g40fef35/f584ccac99/IntelXeonGold6230CPU@2.10GHz/Test_2021-07-12-12:50:00/50/p-U-BiCGStab-GKO-none-omp/lidDrivenCavity3D
nProcs : 1
sigFpe : Enabling floating point exception trapping (FOAM_SIGFPE).
fileModificationChecking : Monitoring run-time modified files using timeStampMaster (fileModificationSkew 10)
allowSystemOperations : Allowing user-supplied system call operations

// * * * * * * * * * * * * * * * * * * * * * * * * * * * * * * * * * * * * * //
Create time

Create mesh for time = 0

Reading transportProperties

Reading field p

Reading field U

Reading/calculating face flux field phi


Starting time loop

Time = 0.002

Courant Number mean: 0 max: 0
[OGL LOG] init_host_sparsity_pattern : 35 ms
[OGL LOG] matrix not stored update host matrix
[OGL LOG] update_host_mtx : 18 ms
[OGL LOG] matrix is not yet sorted, compute sorting idxs
[OGL LOG] compute_sort : 989 ms
[OGL LOG] matrix is not yet sorted, sorting host matrix
[OGL LOG] sort_host_mtx_sparsity_pattern : 23 ms
[OGL LOG] sort_host_mtx : 15 ms
[OGL LOG] init_preconditioner : 0 ms
[OGL LOG] solve : 322 ms
noneompGKOBiCGStab:  Solving for Ux, Initial residual = 1, Final residual = 8.72813e-07, No Iterations 41
[OGL LOG] init_host_sparsity_pattern : 35 ms
[OGL LOG] matrix not stored update host matrix
[OGL LOG] update_host_mtx : 18 ms
[OGL LOG] matrix is not yet sorted, sorting host matrix
[OGL LOG] sort_host_mtx_sparsity_pattern : 23 ms
[OGL LOG] sort_host_mtx : 12 ms
[OGL LOG] init_preconditioner : 0 ms
[OGL LOG] solve : 9 ms
noneompGKOBiCGStab:  Solving for Uy, Initial residual = 0, Final residual = 0, No Iterations 0
[OGL LOG] init_host_sparsity_pattern : 33 ms
[OGL LOG] matrix not stored update host matrix
[OGL LOG] update_host_mtx : 15 ms
[OGL LOG] matrix is not yet sorted, sorting host matrix
[OGL LOG] sort_host_mtx_sparsity_pattern : 23 ms
[OGL LOG] sort_host_mtx : 12 ms
[OGL LOG] init_preconditioner : 0 ms
[OGL LOG] solve : 8 ms
noneompGKOBiCGStab:  Solving for Uz, Initial residual = 0, Final residual = 0, No Iterations 0
[OGL LOG] init_host_sparsity_pattern : 33 ms
[OGL LOG] matrix not stored update host matrix
[OGL LOG] update_host_mtx : 18 ms
[OGL LOG] matrix is not yet sorted, sorting host matrix
[OGL LOG] sort_host_mtx_sparsity_pattern : 22 ms
[OGL LOG] sort_host_mtx : 13 ms
[OGL LOG] init_preconditioner : 0 ms
[OGL LOG] solve : 2686 ms
noneompGKOBiCGStab:  Solving for p, Initial residual = 1, Final residual = 8.43708e-07, No Iterations 349
time step continuity errors : sum local = 4.31885e-09, global = -3.71179e-21, cumulative = -3.71179e-21
[OGL LOG] init_preconditioner : 0 ms
[OGL LOG] solve : 2621 ms
noneompGKOBiCGStab:  Solving for p, Initial residual = 0.721587, Final residual = 6.29792e-07, No Iterations 339
time step continuity errors : sum local = 5.79064e-08, global = 9.75132e-21, cumulative = 6.03953e-21
ExecutionTime = 7.6 s  ClockTime = 8 s

Time = 0.004

Courant Number mean: 0.0720723 max: 0.726639
[OGL LOG] init_host_sparsity_pattern : 33 ms
[OGL LOG] matrix not stored update host matrix
[OGL LOG] update_host_mtx : 15 ms
[OGL LOG] matrix is not yet sorted, sorting host matrix
[OGL LOG] sort_host_mtx_sparsity_pattern : 21 ms
[OGL LOG] sort_host_mtx : 12 ms
[OGL LOG] init_preconditioner : 0 ms
[OGL LOG] solve : 295 ms
noneompGKOBiCGStab:  Solving for Ux, Initial residual = 0.203482, Final residual = 9.6974e-07, No Iterations 38
[OGL LOG] init_host_sparsity_pattern : 33 ms
[OGL LOG] matrix not stored update host matrix
[OGL LOG] update_host_mtx : 15 ms
[OGL LOG] matrix is not yet sorted, sorting host matrix
[OGL LOG] sort_host_mtx_sparsity_pattern : 21 ms
[OGL LOG] sort_host_mtx : 12 ms
[OGL LOG] init_preconditioner : 0 ms
[OGL LOG] solve : 318 ms
noneompGKOBiCGStab:  Solving for Uy, Initial residual = 0.618417, Final residual = 7.47832e-07, No Iterations 41
[OGL LOG] init_host_sparsity_pattern : 33 ms
[OGL LOG] matrix not stored update host matrix
[OGL LOG] update_host_mtx : 15 ms
[OGL LOG] matrix is not yet sorted, sorting host matrix
[OGL LOG] sort_host_mtx_sparsity_pattern : 21 ms
[OGL LOG] sort_host_mtx : 12 ms
[OGL LOG] init_preconditioner : 0 ms
[OGL LOG] solve : 299 ms
noneompGKOBiCGStab:  Solving for Uz, Initial residual = 0.537024, Final residual = 9.07641e-07, No Iterations 38
[OGL LOG] init_preconditioner : 0 ms
[OGL LOG] solve : 2559 ms
noneompGKOBiCGStab:  Solving for p, Initial residual = 0.673307, Final residual = 1.23084e-07, No Iterations 332
time step continuity errors : sum local = 5.96462e-08, global = 3.11566e-20, cumulative = 3.71962e-20
[OGL LOG] init_preconditioner : 0 ms
[OGL LOG] solve : 2635 ms
noneompGKOBiCGStab:  Solving for p, Initial residual = 0.598897, Final residual = 6.11724e-07, No Iterations 340
time step continuity errors : sum local = 1.42199e-08, global = -1.47986e-20, cumulative = 2.23976e-20
ExecutionTime = 14.05 s  ClockTime = 15 s

Time = 0.006

Courant Number mean: 0.107409 max: 0.881757
[OGL LOG] init_host_sparsity_pattern : 33 ms
[OGL LOG] matrix not stored update host matrix
[OGL LOG] update_host_mtx : 15 ms
[OGL LOG] matrix is not yet sorted, sorting host matrix
[OGL LOG] sort_host_mtx_sparsity_pattern : 21 ms
[OGL LOG] sort_host_mtx : 12 ms
[OGL LOG] init_preconditioner : 0 ms
[OGL LOG] solve : 273 ms
noneompGKOBiCGStab:  Solving for Ux, Initial residual = 0.0996172, Final residual = 9.7391e-07, No Iterations 35
[OGL LOG] init_host_sparsity_pattern : 33 ms
[OGL LOG] matrix not stored update host matrix
[OGL LOG] update_host_mtx : 15 ms
[OGL LOG] matrix is not yet sorted, sorting host matrix
[OGL LOG] sort_host_mtx_sparsity_pattern : 21 ms
[OGL LOG] sort_host_mtx : 12 ms
[OGL LOG] init_preconditioner : 0 ms
[OGL LOG] solve : 294 ms
noneompGKOBiCGStab:  Solving for Uy, Initial residual = 0.249854, Final residual = 8.93288e-07, No Iterations 38
[OGL LOG] init_host_sparsity_pattern : 33 ms
[OGL LOG] matrix not stored update host matrix
[OGL LOG] update_host_mtx : 15 ms
[OGL LOG] matrix is not yet sorted, sorting host matrix
[OGL LOG] sort_host_mtx_sparsity_pattern : 21 ms
[OGL LOG] sort_host_mtx : 12 ms
[OGL LOG] init_preconditioner : 0 ms
[OGL LOG] solve : 310 ms
noneompGKOBiCGStab:  Solving for Uz, Initial residual = 0.54424, Final residual = 6.53947e-07, No Iterations 40
[OGL LOG] init_preconditioner : 0 ms
[OGL LOG] solve : 2681 ms
noneompGKOBiCGStab:  Solving for p, Initial residual = 0.606932, Final residual = 8.48834e-07, No Iterations 348
time step continuity errors : sum local = 8.427e-08, global = 1.03999e-20, cumulative = 3.27975e-20
[OGL LOG] init_preconditioner : 0 ms
[OGL LOG] solve : 2534 ms
noneompGKOBiCGStab:  Solving for p, Initial residual = 0.56074, Final residual = 9.94212e-07, No Iterations 329
time step continuity errors : sum local = 1.51585e-07, global = -6.15366e-20, cumulative = -2.87391e-20
ExecutionTime = 20.49 s  ClockTime = 21 s

Time = 0.008

Courant Number mean: 0.123244 max: 0.890102
[OGL LOG] init_host_sparsity_pattern : 33 ms
[OGL LOG] matrix not stored update host matrix
[OGL LOG] update_host_mtx : 17 ms
[OGL LOG] matrix is not yet sorted, sorting host matrix
[OGL LOG] sort_host_mtx_sparsity_pattern : 21 ms
[OGL LOG] sort_host_mtx : 12 ms
[OGL LOG] init_preconditioner : 0 ms
[OGL LOG] solve : 246 ms
noneompGKOBiCGStab:  Solving for Ux, Initial residual = 0.0341688, Final residual = 8.30105e-07, No Iterations 31
[OGL LOG] init_host_sparsity_pattern : 33 ms
[OGL LOG] matrix not stored update host matrix
[OGL LOG] update_host_mtx : 15 ms
[OGL LOG] matrix is not yet sorted, sorting host matrix
[OGL LOG] sort_host_mtx_sparsity_pattern : 21 ms
[OGL LOG] sort_host_mtx : 12 ms
[OGL LOG] init_preconditioner : 0 ms
[OGL LOG] solve : 278 ms
noneompGKOBiCGStab:  Solving for Uy, Initial residual = 0.132389, Final residual = 9.68835e-07, No Iterations 36
[OGL LOG] init_host_sparsity_pattern : 33 ms
[OGL LOG] matrix not stored update host matrix
[OGL LOG] update_host_mtx : 15 ms
[OGL LOG] matrix is not yet sorted, sorting host matrix
[OGL LOG] sort_host_mtx_sparsity_pattern : 21 ms
[OGL LOG] sort_host_mtx : 12 ms
[OGL LOG] init_preconditioner : 0 ms
[OGL LOG] solve : 299 ms
noneompGKOBiCGStab:  Solving for Uz, Initial residual = 0.475466, Final residual = 9.20908e-07, No Iterations 38
[OGL LOG] init_preconditioner : 0 ms
[OGL LOG] solve : 2609 ms
noneompGKOBiCGStab:  Solving for p, Initial residual = 0.423113, Final residual = 9.28193e-07, No Iterations 342
time step continuity errors : sum local = 5.40482e-09, global = 1.63513e-20, cumulative = -1.23878e-20
[OGL LOG] init_preconditioner : 0 ms
[OGL LOG] solve : 2762 ms
noneompGKOBiCGStab:  Solving for p, Initial residual = 0.368461, Final residual = 9.95571e-07, No Iterations 359
time step continuity errors : sum local = 3.19051e-09, global = 2.10789e-21, cumulative = -1.02799e-20
ExecutionTime = 27.04 s  ClockTime = 28 s

Time = 0.01

Courant Number mean: 0.136096 max: 0.906946
[OGL LOG] init_host_sparsity_pattern : 33 ms
[OGL LOG] matrix not stored update host matrix
[OGL LOG] update_host_mtx : 15 ms
[OGL LOG] matrix is not yet sorted, sorting host matrix
[OGL LOG] sort_host_mtx_sparsity_pattern : 21 ms
[OGL LOG] sort_host_mtx : 12 ms
[OGL LOG] init_preconditioner : 0 ms
[OGL LOG] solve : 240 ms
noneompGKOBiCGStab:  Solving for Ux, Initial residual = 0.0230672, Final residual = 8.53619e-07, No Iterations 30
[OGL LOG] init_host_sparsity_pattern : 33 ms
[OGL LOG] matrix not stored update host matrix
[OGL LOG] update_host_mtx : 15 ms
[OGL LOG] matrix is not yet sorted, sorting host matrix
[OGL LOG] sort_host_mtx_sparsity_pattern : 21 ms
[OGL LOG] sort_host_mtx : 12 ms
[OGL LOG] init_preconditioner : 0 ms
[OGL LOG] solve : 252 ms
noneompGKOBiCGStab:  Solving for Uy, Initial residual = 0.0485193, Final residual = 8.77104e-07, No Iterations 32
[OGL LOG] init_host_sparsity_pattern : 33 ms
[OGL LOG] matrix not stored update host matrix
[OGL LOG] update_host_mtx : 15 ms
[OGL LOG] matrix is not yet sorted, sorting host matrix
[OGL LOG] sort_host_mtx_sparsity_pattern : 22 ms
[OGL LOG] sort_host_mtx : 12 ms
[OGL LOG] init_preconditioner : 0 ms
[OGL LOG] solve : 264 ms
noneompGKOBiCGStab:  Solving for Uz, Initial residual = 0.16135, Final residual = 9.126e-07, No Iterations 34
[OGL LOG] init_preconditioner : 0 ms
[OGL LOG] solve : 2514 ms
noneompGKOBiCGStab:  Solving for p, Initial residual = 0.361708, Final residual = 9.65643e-07, No Iterations 326
time step continuity errors : sum local = 3.27913e-09, global = 3.06467e-21, cumulative = -7.21524e-21
[OGL LOG] init_preconditioner : 0 ms
[OGL LOG] solve : 2574 ms
noneompGKOBiCGStab:  Solving for p, Initial residual = 0.333137, Final residual = 9.21851e-07, No Iterations 333
time step continuity errors : sum local = 5.85357e-09, global = 3.2133e-20, cumulative = 2.49178e-20
ExecutionTime = 33.23 s  ClockTime = 34 s

End

