/*---------------------------------------------------------------------------*\
  =========                 |
  \\      /  F ield         | OpenFOAM: The Open Source CFD Toolbox
   \\    /   O peration     | Website:  https://openfoam.org
    \\  /    A nd           | Version:  8
     \\/     M anipulation  |
\*---------------------------------------------------------------------------*/
Build  : 8-13d66902f78c
Exec   : icoFoam
Date   : Jul 14 2021
Time   : 00:39:46
Host   : "uc2n394.localdomain"
PID    : 3276453
I/O    : uncollated
Case   : /pfs/data5/home/kit/scc/nq7776/code/OGL_DATA/lidDrivenCavity3D/v0.1-136-g40fef35/f584ccac99/IntelXeonGold6230CPU@2.10GHz/Test_2021-07-14-00:31:10/50/p-BiCGStab-GKO-BJ-omp/lidDrivenCavity3D
nProcs : 1
sigFpe : Enabling floating point exception trapping (FOAM_SIGFPE).
fileModificationChecking : Monitoring run-time modified files using timeStampMaster (fileModificationSkew 10)
allowSystemOperations : Allowing user-supplied system call operations

// * * * * * * * * * * * * * * * * * * * * * * * * * * * * * * * * * * * * * //
Create time

Create mesh for time = 0

Reading transportProperties

Reading field p

Reading field U

Reading/calculating face flux field phi


Starting time loop

Time = 0.002

Courant Number mean: 0 max: 0
nonePBiCGStab:  Solving for Ux, Initial residual = 1, Final residual = 0.0592055, No Iterations 5
nonePBiCGStab:  Solving for Uy, Initial residual = 0, Final residual = 0, No Iterations 0
nonePBiCGStab:  Solving for Uz, Initial residual = 0, Final residual = 0, No Iterations 0
[OGL LOG] init_host_sparsity_pattern : 35 ms
[OGL LOG] matrix not stored update host matrix
[OGL LOG] update_host_mtx : 18 ms
[OGL LOG] matrix is not yet sorted, compute sorting idxs
[OGL LOG] compute_sort : 908 ms
[OGL LOG] matrix is not yet sorted, sorting host matrix
[OGL LOG] sort_host_mtx_sparsity_pattern : 23 ms
[OGL LOG] sort_host_mtx : 14 ms
[OGL LOG] init_preconditioner : 34 ms
[OGL LOG] solve : 7129 ms
BJompGKOBiCGStab:  Solving for p, Initial residual = 1, Final residual = 4.48358e-07, No Iterations 330
time step continuity errors : sum local = 1.65367e-08, global = 4.03106e-21, cumulative = 4.03106e-21
[OGL LOG] init_preconditioner : 0 ms
[OGL LOG] solve : 6864 ms
BJompGKOBiCGStab:  Solving for p, Initial residual = 0.67672, Final residual = 6.35782e-07, No Iterations 317
time step continuity errors : sum local = 8.96769e-09, global = 1.78915e-21, cumulative = 5.82021e-21
ExecutionTime = 15.61 s  ClockTime = 15 s

Time = 0.004

Courant Number mean: 0.0636233 max: 0.723792
nonePBiCGStab:  Solving for Ux, Initial residual = 0.144133, Final residual = 0.0219193, No Iterations 5
nonePBiCGStab:  Solving for Uy, Initial residual = 0.363931, Final residual = 0.0522855, No Iterations 5
nonePBiCGStab:  Solving for Uz, Initial residual = 0.973551, Final residual = 0.158907, No Iterations 5
[OGL LOG] init_preconditioner : 0 ms
[OGL LOG] solve : 6827 ms
BJompGKOBiCGStab:  Solving for p, Initial residual = 0.668521, Final residual = 3.87041e-07, No Iterations 316
time step continuity errors : sum local = 1.31774e-08, global = -3.56525e-20, cumulative = -2.98323e-20
[OGL LOG] init_preconditioner : 0 ms
[OGL LOG] solve : 6746 ms
BJompGKOBiCGStab:  Solving for p, Initial residual = 0.584683, Final residual = 7.84617e-07, No Iterations 312
time step continuity errors : sum local = 3.69761e-08, global = 2.65307e-20, cumulative = -3.30158e-21
ExecutionTime = 29.28 s  ClockTime = 29 s

Time = 0.006

Courant Number mean: 0.0972276 max: 0.862514
nonePBiCGStab:  Solving for Ux, Initial residual = 0.0524223, Final residual = 0.0068565, No Iterations 5
nonePBiCGStab:  Solving for Uy, Initial residual = 0.127035, Final residual = 0.0201153, No Iterations 5
nonePBiCGStab:  Solving for Uz, Initial residual = 0.367227, Final residual = 0.0532546, No Iterations 5
[OGL LOG] init_preconditioner : 0 ms
[OGL LOG] solve : 7125 ms
BJompGKOBiCGStab:  Solving for p, Initial residual = 0.594531, Final residual = 8.38491e-07, No Iterations 329
time step continuity errors : sum local = 3.24496e-09, global = 9.79109e-21, cumulative = 6.48952e-21
[OGL LOG] init_preconditioner : 0 ms
[OGL LOG] solve : 7173 ms
BJompGKOBiCGStab:  Solving for p, Initial residual = 0.528681, Final residual = 1.08767e-07, No Iterations 332
time step continuity errors : sum local = 1.16054e-08, global = -3.18804e-20, cumulative = -2.53909e-20
ExecutionTime = 43.69 s  ClockTime = 43 s

Time = 0.008

Courant Number mean: 0.113794 max: 0.882481
nonePBiCGStab:  Solving for Ux, Initial residual = 0.02896, Final residual = 0.00344474, No Iterations 5
nonePBiCGStab:  Solving for Uy, Initial residual = 0.0844209, Final residual = 0.0109198, No Iterations 5
nonePBiCGStab:  Solving for Uz, Initial residual = 0.229368, Final residual = 0.0298186, No Iterations 5
[OGL LOG] init_preconditioner : 0 ms
[OGL LOG] solve : 7649 ms
BJompGKOBiCGStab:  Solving for p, Initial residual = 0.411422, Final residual = 1.7606e-07, No Iterations 354
time step continuity errors : sum local = 1.55292e-09, global = 5.07939e-21, cumulative = -2.03115e-20
[OGL LOG] init_preconditioner : 0 ms
[OGL LOG] solve : 7212 ms
BJompGKOBiCGStab:  Solving for p, Initial residual = 0.342671, Final residual = 9.9413e-07, No Iterations 334
time step continuity errors : sum local = 1.65007e-09, global = -4.16596e-20, cumulative = -6.19711e-20
ExecutionTime = 58.64 s  ClockTime = 58 s

Time = 0.01

Courant Number mean: 0.127339 max: 0.898878
nonePBiCGStab:  Solving for Ux, Initial residual = 0.0202776, Final residual = 0.00208495, No Iterations 5
nonePBiCGStab:  Solving for Uy, Initial residual = 0.0505557, Final residual = 0.00623608, No Iterations 5
nonePBiCGStab:  Solving for Uz, Initial residual = 0.11299, Final residual = 0.0180788, No Iterations 5
[OGL LOG] init_preconditioner : 0 ms
[OGL LOG] solve : 6513 ms
BJompGKOBiCGStab:  Solving for p, Initial residual = 0.354045, Final residual = 6.38666e-07, No Iterations 301
time step continuity errors : sum local = 1.77574e-09, global = -7.76056e-21, cumulative = -6.97316e-20
[OGL LOG] init_preconditioner : 0 ms
[OGL LOG] solve : 6832 ms
BJompGKOBiCGStab:  Solving for p, Initial residual = 0.302211, Final residual = 5.80799e-07, No Iterations 316
time step continuity errors : sum local = 3.15439e-09, global = -1.20821e-20, cumulative = -8.18137e-20
ExecutionTime = 72.09 s  ClockTime = 72 s

End

