/*---------------------------------------------------------------------------*\
  =========                 |
  \\      /  F ield         | OpenFOAM: The Open Source CFD Toolbox
   \\    /   O peration     | Website:  https://openfoam.org
    \\  /    A nd           | Version:  8
     \\/     M anipulation  |
\*---------------------------------------------------------------------------*/
Build  : 8-13d66902f78c
Exec   : icoFoam
Date   : Jul 12 2021
Time   : 13:16:46
Host   : "uc2n445.localdomain"
PID    : 3202700
I/O    : uncollated
Case   : /pfs/data5/home/kit/scc/nq7776/code/OGL_DATA/lidDrivenCavity3D/v0.1-136-g40fef35/f584ccac99/IntelXeonGold6230CPU@2.10GHz/Test_2021-07-12-13:12:59/25/p-U-BiCGStab-GKO-BJ-omp/lidDrivenCavity3D
nProcs : 1
sigFpe : Enabling floating point exception trapping (FOAM_SIGFPE).
fileModificationChecking : Monitoring run-time modified files using timeStampMaster (fileModificationSkew 10)
allowSystemOperations : Allowing user-supplied system call operations

// * * * * * * * * * * * * * * * * * * * * * * * * * * * * * * * * * * * * * //
Create time

Create mesh for time = 0

Reading transportProperties

Reading field p

Reading field U

Reading/calculating face flux field phi


Starting time loop

Time = 0.004

Courant Number mean: 0 max: 0
[OGL LOG] init_host_sparsity_pattern : 4 ms
[OGL LOG] matrix not stored update host matrix
[OGL LOG] update_host_mtx : 2 ms
[OGL LOG] matrix is not yet sorted, compute sorting idxs
[OGL LOG] compute_sort : 105 ms
[OGL LOG] matrix is not yet sorted, sorting host matrix
[OGL LOG] sort_host_mtx_sparsity_pattern : 2 ms
[OGL LOG] sort_host_mtx : 1 ms
[OGL LOG] init_preconditioner : 1 ms
[OGL LOG] solve : 15 ms
BJompGKOBiCGStab:  Solving for Ux, Initial residual = 1, Final residual = 6.47745e-07, No Iterations 22
[OGL LOG] init_host_sparsity_pattern : 4 ms
[OGL LOG] matrix not stored update host matrix
[OGL LOG] update_host_mtx : 2 ms
[OGL LOG] matrix is not yet sorted, sorting host matrix
[OGL LOG] sort_host_mtx_sparsity_pattern : 2 ms
[OGL LOG] sort_host_mtx : 1 ms
[OGL LOG] init_preconditioner : 0 ms
[OGL LOG] solve : 0 ms
BJompGKOBiCGStab:  Solving for Uy, Initial residual = 0, Final residual = 0, No Iterations 0
[OGL LOG] init_host_sparsity_pattern : 4 ms
[OGL LOG] matrix not stored update host matrix
[OGL LOG] update_host_mtx : 1 ms
[OGL LOG] matrix is not yet sorted, sorting host matrix
[OGL LOG] sort_host_mtx_sparsity_pattern : 2 ms
[OGL LOG] sort_host_mtx : 1 ms
[OGL LOG] init_preconditioner : 0 ms
[OGL LOG] solve : 0 ms
BJompGKOBiCGStab:  Solving for Uz, Initial residual = 0, Final residual = 0, No Iterations 0
[OGL LOG] init_host_sparsity_pattern : 4 ms
[OGL LOG] matrix not stored update host matrix
[OGL LOG] update_host_mtx : 2 ms
[OGL LOG] matrix is not yet sorted, sorting host matrix
[OGL LOG] sort_host_mtx_sparsity_pattern : 2 ms
[OGL LOG] sort_host_mtx : 1 ms
[OGL LOG] init_preconditioner : 0 ms
[OGL LOG] solve : 90 ms
BJompGKOBiCGStab:  Solving for p, Initial residual = 1, Final residual = 9.69985e-07, No Iterations 144
time step continuity errors : sum local = 5.60212e-08, global = -1.20553e-20, cumulative = -1.20553e-20
[OGL LOG] init_preconditioner : 0 ms
[OGL LOG] solve : 80 ms
BJompGKOBiCGStab:  Solving for p, Initial residual = 0.644084, Final residual = 8.34496e-07, No Iterations 129
time step continuity errors : sum local = 1.79166e-07, global = -7.56252e-20, cumulative = -8.76806e-20
ExecutionTime = 1.92 s  ClockTime = 1 s

Time = 0.008

Courant Number mean: 0.0870974 max: 0.619854
[OGL LOG] init_host_sparsity_pattern : 4 ms
[OGL LOG] matrix not stored update host matrix
[OGL LOG] update_host_mtx : 1 ms
[OGL LOG] matrix is not yet sorted, sorting host matrix
[OGL LOG] sort_host_mtx_sparsity_pattern : 2 ms
[OGL LOG] sort_host_mtx : 1 ms
[OGL LOG] init_preconditioner : 0 ms
[OGL LOG] solve : 12 ms
BJompGKOBiCGStab:  Solving for Ux, Initial residual = 0.23894, Final residual = 8.64733e-07, No Iterations 19
[OGL LOG] init_host_sparsity_pattern : 4 ms
[OGL LOG] matrix not stored update host matrix
[OGL LOG] update_host_mtx : 1 ms
[OGL LOG] matrix is not yet sorted, sorting host matrix
[OGL LOG] sort_host_mtx_sparsity_pattern : 2 ms
[OGL LOG] sort_host_mtx : 1 ms
[OGL LOG] init_preconditioner : 0 ms
[OGL LOG] solve : 13 ms
BJompGKOBiCGStab:  Solving for Uy, Initial residual = 0.615476, Final residual = 7.76932e-07, No Iterations 20
[OGL LOG] init_host_sparsity_pattern : 4 ms
[OGL LOG] matrix not stored update host matrix
[OGL LOG] update_host_mtx : 2 ms
[OGL LOG] matrix is not yet sorted, sorting host matrix
[OGL LOG] sort_host_mtx_sparsity_pattern : 2 ms
[OGL LOG] sort_host_mtx : 1 ms
[OGL LOG] init_preconditioner : 0 ms
[OGL LOG] solve : 12 ms
BJompGKOBiCGStab:  Solving for Uz, Initial residual = 0.39194, Final residual = 7.31761e-07, No Iterations 19
[OGL LOG] init_preconditioner : 0 ms
[OGL LOG] solve : 94 ms
BJompGKOBiCGStab:  Solving for p, Initial residual = 0.527358, Final residual = 8.46644e-07, No Iterations 126
time step continuity errors : sum local = 1.6534e-07, global = 1.11759e-19, cumulative = 2.40784e-20
[OGL LOG] init_preconditioner : 0 ms
[OGL LOG] solve : 93 ms
BJompGKOBiCGStab:  Solving for p, Initial residual = 0.437518, Final residual = 4.28777e-07, No Iterations 124
time step continuity errors : sum local = 2.85292e-07, global = 8.99086e-20, cumulative = 1.13987e-19
ExecutionTime = 3.9 s  ClockTime = 1 s

Time = 0.012

Courant Number mean: 0.127403 max: 0.798793
[OGL LOG] init_host_sparsity_pattern : 4 ms
[OGL LOG] matrix not stored update host matrix
[OGL LOG] update_host_mtx : 1 ms
[OGL LOG] matrix is not yet sorted, sorting host matrix
[OGL LOG] sort_host_mtx_sparsity_pattern : 2 ms
[OGL LOG] sort_host_mtx : 1 ms
[OGL LOG] init_preconditioner : 0 ms
[OGL LOG] solve : 14 ms
BJompGKOBiCGStab:  Solving for Ux, Initial residual = 0.0920496, Final residual = 9.41245e-07, No Iterations 18
[OGL LOG] init_host_sparsity_pattern : 4 ms
[OGL LOG] matrix not stored update host matrix
[OGL LOG] update_host_mtx : 1 ms
[OGL LOG] matrix is not yet sorted, sorting host matrix
[OGL LOG] sort_host_mtx_sparsity_pattern : 2 ms
[OGL LOG] sort_host_mtx : 1 ms
[OGL LOG] init_preconditioner : 0 ms
[OGL LOG] solve : 13 ms
BJompGKOBiCGStab:  Solving for Uy, Initial residual = 0.145852, Final residual = 9.2214e-07, No Iterations 17
[OGL LOG] init_host_sparsity_pattern : 4 ms
[OGL LOG] matrix not stored update host matrix
[OGL LOG] update_host_mtx : 1 ms
[OGL LOG] matrix is not yet sorted, sorting host matrix
[OGL LOG] sort_host_mtx_sparsity_pattern : 2 ms
[OGL LOG] sort_host_mtx : 1 ms
[OGL LOG] init_preconditioner : 0 ms
[OGL LOG] solve : 14 ms
BJompGKOBiCGStab:  Solving for Uz, Initial residual = 0.339734, Final residual = 6.61236e-07, No Iterations 19
[OGL LOG] init_preconditioner : 0 ms
[OGL LOG] solve : 97 ms
BJompGKOBiCGStab:  Solving for p, Initial residual = 0.305723, Final residual = 8.86618e-07, No Iterations 132
time step continuity errors : sum local = 5.46863e-09, global = 8.68737e-20, cumulative = 2.00861e-19
[OGL LOG] init_preconditioner : 0 ms
[OGL LOG] solve : 89 ms
BJompGKOBiCGStab:  Solving for p, Initial residual = 0.265166, Final residual = 5.69424e-07, No Iterations 121
time step continuity errors : sum local = 7.7497e-09, global = 2.58113e-20, cumulative = 2.26672e-19
ExecutionTime = 5.91 s  ClockTime = 1 s

Time = 0.016

Courant Number mean: 0.145254 max: 0.82722
[OGL LOG] init_host_sparsity_pattern : 4 ms
[OGL LOG] matrix not stored update host matrix
[OGL LOG] update_host_mtx : 1 ms
[OGL LOG] matrix is not yet sorted, sorting host matrix
[OGL LOG] sort_host_mtx_sparsity_pattern : 2 ms
[OGL LOG] sort_host_mtx : 1 ms
[OGL LOG] init_preconditioner : 0 ms
[OGL LOG] solve : 11 ms
BJompGKOBiCGStab:  Solving for Ux, Initial residual = 0.0235029, Final residual = 9.79087e-07, No Iterations 15
[OGL LOG] init_host_sparsity_pattern : 4 ms
[OGL LOG] matrix not stored update host matrix
[OGL LOG] update_host_mtx : 1 ms
[OGL LOG] matrix is not yet sorted, sorting host matrix
[OGL LOG] sort_host_mtx_sparsity_pattern : 2 ms
[OGL LOG] sort_host_mtx : 1 ms
[OGL LOG] init_preconditioner : 0 ms
[OGL LOG] solve : 13 ms
BJompGKOBiCGStab:  Solving for Uy, Initial residual = 0.0608571, Final residual = 8.27024e-07, No Iterations 17
[OGL LOG] init_host_sparsity_pattern : 4 ms
[OGL LOG] matrix not stored update host matrix
[OGL LOG] update_host_mtx : 1 ms
[OGL LOG] matrix is not yet sorted, sorting host matrix
[OGL LOG] sort_host_mtx_sparsity_pattern : 2 ms
[OGL LOG] sort_host_mtx : 1 ms
[OGL LOG] init_preconditioner : 0 ms
[OGL LOG] solve : 13 ms
BJompGKOBiCGStab:  Solving for Uz, Initial residual = 0.184295, Final residual = 7.2427e-07, No Iterations 18
[OGL LOG] init_preconditioner : 0 ms
[OGL LOG] solve : 84 ms
BJompGKOBiCGStab:  Solving for p, Initial residual = 0.23944, Final residual = 6.34896e-07, No Iterations 117
time step continuity errors : sum local = 3.29871e-09, global = -7.86413e-20, cumulative = 1.48031e-19
[OGL LOG] init_preconditioner : 0 ms
[OGL LOG] solve : 82 ms
BJompGKOBiCGStab:  Solving for p, Initial residual = 0.222232, Final residual = 8.15707e-07, No Iterations 113
time step continuity errors : sum local = 6.28048e-09, global = -6.83223e-20, cumulative = 7.97084e-20
ExecutionTime = 7.72 s  ClockTime = 2 s

Time = 0.02

Courant Number mean: 0.157058 max: 0.845845
[OGL LOG] init_host_sparsity_pattern : 4 ms
[OGL LOG] matrix not stored update host matrix
[OGL LOG] update_host_mtx : 1 ms
[OGL LOG] matrix is not yet sorted, sorting host matrix
[OGL LOG] sort_host_mtx_sparsity_pattern : 2 ms
[OGL LOG] sort_host_mtx : 1 ms
[OGL LOG] init_preconditioner : 0 ms
[OGL LOG] solve : 10 ms
BJompGKOBiCGStab:  Solving for Ux, Initial residual = 0.0150183, Final residual = 6.82792e-07, No Iterations 14
[OGL LOG] init_host_sparsity_pattern : 4 ms
[OGL LOG] matrix not stored update host matrix
[OGL LOG] update_host_mtx : 2 ms
[OGL LOG] matrix is not yet sorted, sorting host matrix
[OGL LOG] sort_host_mtx_sparsity_pattern : 2 ms
[OGL LOG] sort_host_mtx : 1 ms
[OGL LOG] init_preconditioner : 0 ms
[OGL LOG] solve : 12 ms
BJompGKOBiCGStab:  Solving for Uy, Initial residual = 0.028096, Final residual = 7.77903e-07, No Iterations 16
[OGL LOG] init_host_sparsity_pattern : 4 ms
[OGL LOG] matrix not stored update host matrix
[OGL LOG] update_host_mtx : 1 ms
[OGL LOG] matrix is not yet sorted, sorting host matrix
[OGL LOG] sort_host_mtx_sparsity_pattern : 2 ms
[OGL LOG] sort_host_mtx : 1 ms
[OGL LOG] init_preconditioner : 0 ms
[OGL LOG] solve : 12 ms
BJompGKOBiCGStab:  Solving for Uz, Initial residual = 0.0758007, Final residual = 8.57755e-07, No Iterations 16
[OGL LOG] init_preconditioner : 0 ms
[OGL LOG] solve : 82 ms
BJompGKOBiCGStab:  Solving for p, Initial residual = 0.234835, Final residual = 9.36026e-07, No Iterations 108
time step continuity errors : sum local = 5.80782e-09, global = -2.79414e-20, cumulative = 5.1767e-20
[OGL LOG] init_preconditioner : 0 ms
[OGL LOG] solve : 77 ms
BJompGKOBiCGStab:  Solving for p, Initial residual = 0.233064, Final residual = 5.64299e-07, No Iterations 108
time step continuity errors : sum local = 4.01998e-09, global = -1.32425e-20, cumulative = 3.85245e-20
ExecutionTime = 9.47 s  ClockTime = 2 s

End

