/*---------------------------------------------------------------------------*\
  =========                 |
  \\      /  F ield         | OpenFOAM: The Open Source CFD Toolbox
   \\    /   O peration     | Website:  https://openfoam.org
    \\  /    A nd           | Version:  8
     \\/     M anipulation  |
\*---------------------------------------------------------------------------*/
Build  : 8-13d66902f78c
Exec   : icoFoam
Date   : Jul 14 2021
Time   : 01:47:55
Host   : "uc2n538.localdomain"
PID    : 2774024
I/O    : uncollated
Case   : /pfs/data5/home/kit/scc/nq7776/code/OGL_DATA/lidDrivenCavity3D/v0.1-136-g40fef35/f584ccac99/IntelXeonGold6230CPU@2.10GHz/Test_2021-07-14-01:45:13/75/p-CG-OF-DIC-reference/lidDrivenCavity3D
nProcs : 1
sigFpe : Enabling floating point exception trapping (FOAM_SIGFPE).
fileModificationChecking : Monitoring run-time modified files using timeStampMaster (fileModificationSkew 10)
allowSystemOperations : Allowing user-supplied system call operations

// * * * * * * * * * * * * * * * * * * * * * * * * * * * * * * * * * * * * * //
Create time

Create mesh for time = 0

Reading transportProperties

Reading field p

Reading field U

Reading/calculating face flux field phi


Starting time loop

Time = 0.00133333

Courant Number mean: 0 max: 0
nonePBiCGStab:  Solving for Ux, Initial residual = 1, Final residual = 0.0730209, No Iterations 5
nonePBiCGStab:  Solving for Uy, Initial residual = 0, Final residual = 0, No Iterations 0
nonePBiCGStab:  Solving for Uz, Initial residual = 0, Final residual = 0, No Iterations 0
DICPCG:  Solving for p, Initial residual = 1, Final residual = 9.14641e-07, No Iterations 211
time step continuity errors : sum local = 5.81118e-10, global = 1.52692e-20, cumulative = 1.52692e-20
DICPCG:  Solving for p, Initial residual = 0.697098, Final residual = 9.48476e-07, No Iterations 208
time step continuity errors : sum local = 8.40607e-10, global = 1.49117e-20, cumulative = 3.01809e-20
ExecutionTime = 5.9 s  ClockTime = 6 s

Time = 0.00266667

Courant Number mean: 0.0508075 max: 0.767258
nonePBiCGStab:  Solving for Ux, Initial residual = 0.140589, Final residual = 0.0324514, No Iterations 5
nonePBiCGStab:  Solving for Uy, Initial residual = 0.413641, Final residual = 0.092326, No Iterations 5
nonePBiCGStab:  Solving for Uz, Initial residual = 0.983212, Final residual = 0.24988, No Iterations 5
DICPCG:  Solving for p, Initial residual = 0.746892, Final residual = 9.01131e-07, No Iterations 206
time step continuity errors : sum local = 1.21332e-09, global = -8.63778e-21, cumulative = 2.15432e-20
DICPCG:  Solving for p, Initial residual = 0.668132, Final residual = 9.07634e-07, No Iterations 205
time step continuity errors : sum local = 1.24645e-09, global = 1.48531e-21, cumulative = 2.30285e-20
ExecutionTime = 10.24 s  ClockTime = 10 s

Time = 0.004

Courant Number mean: 0.0796134 max: 0.886044
nonePBiCGStab:  Solving for Ux, Initial residual = 0.0584495, Final residual = 0.0111487, No Iterations 5
nonePBiCGStab:  Solving for Uy, Initial residual = 0.171954, Final residual = 0.0398777, No Iterations 5
nonePBiCGStab:  Solving for Uz, Initial residual = 0.610944, Final residual = 0.142314, No Iterations 5
DICPCG:  Solving for p, Initial residual = 0.730359, Final residual = 8.40032e-07, No Iterations 206
time step continuity errors : sum local = 8.40541e-10, global = 1.30564e-20, cumulative = 3.60849e-20
DICPCG:  Solving for p, Initial residual = 0.660892, Final residual = 9.23082e-07, No Iterations 205
time step continuity errors : sum local = 8.97798e-10, global = -2.74161e-20, cumulative = 8.66873e-21
ExecutionTime = 14.59 s  ClockTime = 14 s

Time = 0.00533333

Courant Number mean: 0.0948106 max: 0.902572
nonePBiCGStab:  Solving for Ux, Initial residual = 0.034594, Final residual = 0.00682892, No Iterations 5
nonePBiCGStab:  Solving for Uy, Initial residual = 0.11955, Final residual = 0.0298198, No Iterations 5
nonePBiCGStab:  Solving for Uz, Initial residual = 0.386284, Final residual = 0.0806802, No Iterations 5
DICPCG:  Solving for p, Initial residual = 0.609797, Final residual = 8.39226e-07, No Iterations 204
time step continuity errors : sum local = 8.27643e-10, global = -1.70129e-20, cumulative = -8.34417e-21
DICPCG:  Solving for p, Initial residual = 0.521107, Final residual = 8.96983e-07, No Iterations 203
time step continuity errors : sum local = 9.03515e-10, global = -6.32625e-21, cumulative = -1.46704e-20
ExecutionTime = 18.81 s  ClockTime = 19 s

Time = 0.00666667

Courant Number mean: 0.107177 max: 0.916781
nonePBiCGStab:  Solving for Ux, Initial residual = 0.0257325, Final residual = 0.00503143, No Iterations 5
nonePBiCGStab:  Solving for Uy, Initial residual = 0.0750463, Final residual = 0.0208208, No Iterations 5
nonePBiCGStab:  Solving for Uz, Initial residual = 0.212732, Final residual = 0.0495459, No Iterations 5
DICPCG:  Solving for p, Initial residual = 0.629324, Final residual = 9.24252e-07, No Iterations 201
time step continuity errors : sum local = 7.82272e-10, global = -7.18876e-21, cumulative = -2.18592e-20
DICPCG:  Solving for p, Initial residual = 0.552156, Final residual = 8.23411e-07, No Iterations 201
time step continuity errors : sum local = 6.87011e-10, global = -4.30539e-21, cumulative = -2.61646e-20
ExecutionTime = 23.03 s  ClockTime = 23 s

End

