/*---------------------------------------------------------------------------*\
  =========                 |
  \\      /  F ield         | OpenFOAM: The Open Source CFD Toolbox
   \\    /   O peration     | Website:  https://openfoam.org
    \\  /    A nd           | Version:  8
     \\/     M anipulation  |
\*---------------------------------------------------------------------------*/
Build  : 8-13d66902f78c
Exec   : icoFoam
Date   : Jul 14 2021
Time   : 04:49:12
Host   : "uc2n399.localdomain"
PID    : 4110448
I/O    : uncollated
Case   : /pfs/data5/home/kit/scc/nq7776/code/OGL_DATA/lidDrivenCavity3D/v0.1-136-g40fef35/f584ccac99/IntelXeonGold6230CPU@2.10GHz/Test_2021-07-14-01:16:21/100/p-U-BiCGStab-GKO-none-omp/lidDrivenCavity3D
nProcs : 1
sigFpe : Enabling floating point exception trapping (FOAM_SIGFPE).
fileModificationChecking : Monitoring run-time modified files using timeStampMaster (fileModificationSkew 10)
allowSystemOperations : Allowing user-supplied system call operations

// * * * * * * * * * * * * * * * * * * * * * * * * * * * * * * * * * * * * * //
Create time

Create mesh for time = 0

Reading transportProperties

Reading field p

Reading field U

Reading/calculating face flux field phi


Starting time loop

Time = 0.001

Courant Number mean: 0 max: 0
[OGL LOG] init_host_sparsity_pattern : 292 ms
[OGL LOG] matrix not stored update host matrix
[OGL LOG] update_host_mtx : 145 ms
[OGL LOG] matrix is not yet sorted, compute sorting idxs
[OGL LOG] compute_sort : 8335 ms
[OGL LOG] matrix is not yet sorted, sorting host matrix
[OGL LOG] sort_host_mtx_sparsity_pattern : 184 ms
[OGL LOG] sort_host_mtx : 125 ms
[OGL LOG] init_preconditioner : 0 ms
[OGL LOG] solve : 1599 ms
noneompGKOBiCGStab:  Solving for Ux, Initial residual = 1, Final residual = 8.92714e-07, No Iterations 56
[OGL LOG] init_host_sparsity_pattern : 281 ms
[OGL LOG] matrix not stored update host matrix
[OGL LOG] update_host_mtx : 156 ms
[OGL LOG] matrix is not yet sorted, sorting host matrix
[OGL LOG] sort_host_mtx_sparsity_pattern : 195 ms
[OGL LOG] sort_host_mtx : 127 ms
[OGL LOG] init_preconditioner : 0 ms
[OGL LOG] solve : 35 ms
noneompGKOBiCGStab:  Solving for Uy, Initial residual = 0, Final residual = 0, No Iterations 0
[OGL LOG] init_host_sparsity_pattern : 287 ms
[OGL LOG] matrix not stored update host matrix
[OGL LOG] update_host_mtx : 169 ms
[OGL LOG] matrix is not yet sorted, sorting host matrix
[OGL LOG] sort_host_mtx_sparsity_pattern : 195 ms
[OGL LOG] sort_host_mtx : 125 ms
[OGL LOG] init_preconditioner : 0 ms
[OGL LOG] solve : 34 ms
noneompGKOBiCGStab:  Solving for Uz, Initial residual = 0, Final residual = 0, No Iterations 0
[OGL LOG] init_host_sparsity_pattern : 288 ms
[OGL LOG] matrix not stored update host matrix
[OGL LOG] update_host_mtx : 149 ms
[OGL LOG] matrix is not yet sorted, sorting host matrix
[OGL LOG] sort_host_mtx_sparsity_pattern : 213 ms
[OGL LOG] sort_host_mtx : 125 ms
[OGL LOG] init_preconditioner : 0 ms
[OGL LOG] solve : 16669 ms
noneompGKOBiCGStab:  Solving for p, Initial residual = 1, Final residual = 5.91819e-07, No Iterations 757
time step continuity errors : sum local = 2.22007e-07, global = -9.13249e-21, cumulative = -9.13249e-21
[OGL LOG] init_preconditioner : 0 ms
[OGL LOG] solve : 15673 ms
noneompGKOBiCGStab:  Solving for p, Initial residual = 0.783591, Final residual = 9.50145e-07, No Iterations 709
time step continuity errors : sum local = 5.96339e-08, global = 2.47505e-21, cumulative = -6.65743e-21
ExecutionTime = 559.45 s  ClockTime = 51 s

Time = 0.002

Courant Number mean: 0.0571436 max: 0.804774
[OGL LOG] init_host_sparsity_pattern : 274 ms
[OGL LOG] matrix not stored update host matrix
[OGL LOG] update_host_mtx : 129 ms
[OGL LOG] matrix is not yet sorted, sorting host matrix
[OGL LOG] sort_host_mtx_sparsity_pattern : 198 ms
[OGL LOG] sort_host_mtx : 125 ms
[OGL LOG] init_preconditioner : 0 ms
[OGL LOG] solve : 1187 ms
noneompGKOBiCGStab:  Solving for Ux, Initial residual = 0.169071, Final residual = 4.65563e-07, No Iterations 50
[OGL LOG] init_host_sparsity_pattern : 268 ms
[OGL LOG] matrix not stored update host matrix
[OGL LOG] update_host_mtx : 126 ms
[OGL LOG] matrix is not yet sorted, sorting host matrix
[OGL LOG] sort_host_mtx_sparsity_pattern : 193 ms
[OGL LOG] sort_host_mtx : 126 ms
[OGL LOG] init_preconditioner : 0 ms
[OGL LOG] solve : 1277 ms
noneompGKOBiCGStab:  Solving for Uy, Initial residual = 0.620183, Final residual = 8.46971e-07, No Iterations 53
[OGL LOG] init_host_sparsity_pattern : 278 ms
[OGL LOG] matrix not stored update host matrix
[OGL LOG] update_host_mtx : 140 ms
[OGL LOG] matrix is not yet sorted, sorting host matrix
[OGL LOG] sort_host_mtx_sparsity_pattern : 193 ms
[OGL LOG] sort_host_mtx : 125 ms
[OGL LOG] init_preconditioner : 0 ms
[OGL LOG] solve : 1316 ms
noneompGKOBiCGStab:  Solving for Uz, Initial residual = 0.646709, Final residual = 6.03061e-07, No Iterations 54
[OGL LOG] init_preconditioner : 0 ms
[OGL LOG] solve : 16175 ms
noneompGKOBiCGStab:  Solving for p, Initial residual = 0.798431, Final residual = 8.4208e-08, No Iterations 687
time step continuity errors : sum local = 1.88109e-06, global = -3.22924e-21, cumulative = -9.88667e-21
[OGL LOG] init_preconditioner : 0 ms
[OGL LOG] solve : 16752 ms
noneompGKOBiCGStab:  Solving for p, Initial residual = 0.738866, Final residual = 3.74673e-07, No Iterations 759
time step continuity errors : sum local = 1.31092e-07, global = 1.32444e-21, cumulative = -8.56223e-21
ExecutionTime = 1148.79 s  ClockTime = 91 s

Time = 0.003

Courant Number mean: 0.0867389 max: 0.944827
[OGL LOG] init_host_sparsity_pattern : 267 ms
[OGL LOG] matrix not stored update host matrix
[OGL LOG] update_host_mtx : 131 ms
[OGL LOG] matrix is not yet sorted, sorting host matrix
[OGL LOG] sort_host_mtx_sparsity_pattern : 201 ms
[OGL LOG] sort_host_mtx : 126 ms
[OGL LOG] init_preconditioner : 0 ms
[OGL LOG] solve : 1212 ms
noneompGKOBiCGStab:  Solving for Ux, Initial residual = 0.102707, Final residual = 8.41365e-07, No Iterations 50
[OGL LOG] init_host_sparsity_pattern : 271 ms
[OGL LOG] matrix not stored update host matrix
[OGL LOG] update_host_mtx : 128 ms
[OGL LOG] matrix is not yet sorted, sorting host matrix
[OGL LOG] sort_host_mtx_sparsity_pattern : 194 ms
[OGL LOG] sort_host_mtx : 126 ms
[OGL LOG] init_preconditioner : 0 ms
[OGL LOG] solve : 1208 ms
noneompGKOBiCGStab:  Solving for Uy, Initial residual = 0.396646, Final residual = 9.94857e-07, No Iterations 50
[OGL LOG] init_host_sparsity_pattern : 268 ms
[OGL LOG] matrix not stored update host matrix
[OGL LOG] update_host_mtx : 127 ms
[OGL LOG] matrix is not yet sorted, sorting host matrix
[OGL LOG] sort_host_mtx_sparsity_pattern : 194 ms
[OGL LOG] sort_host_mtx : 126 ms
[OGL LOG] init_preconditioner : 0 ms
[OGL LOG] solve : 1285 ms
noneompGKOBiCGStab:  Solving for Uz, Initial residual = 0.995742, Final residual = 9.28311e-07, No Iterations 54
[OGL LOG] init_preconditioner : 0 ms
[OGL LOG] solve : 15333 ms
noneompGKOBiCGStab:  Solving for p, Initial residual = 0.832641, Final residual = 8.75594e-07, No Iterations 741
time step continuity errors : sum local = 1.71734e-07, global = -9.09342e-21, cumulative = -1.76557e-20
[OGL LOG] init_preconditioner : 0 ms
[OGL LOG] solve : 13736 ms
noneompGKOBiCGStab:  Solving for p, Initial residual = 0.802699, Final residual = 5.06913e-07, No Iterations 665
time step continuity errors : sum local = 3.0984e-07, global = -1.58943e-21, cumulative = -1.92451e-20
ExecutionTime = 1675.57 s  ClockTime = 127 s

Time = 0.004

Courant Number mean: 0.0995278 max: 0.92635
[OGL LOG] init_host_sparsity_pattern : 267 ms
[OGL LOG] matrix not stored update host matrix
[OGL LOG] update_host_mtx : 130 ms
[OGL LOG] matrix is not yet sorted, sorting host matrix
[OGL LOG] sort_host_mtx_sparsity_pattern : 201 ms
[OGL LOG] sort_host_mtx : 125 ms
[OGL LOG] init_preconditioner : 0 ms
[OGL LOG] solve : 1152 ms
noneompGKOBiCGStab:  Solving for Ux, Initial residual = 0.0542026, Final residual = 9.64202e-07, No Iterations 49
[OGL LOG] init_host_sparsity_pattern : 268 ms
[OGL LOG] matrix not stored update host matrix
[OGL LOG] update_host_mtx : 127 ms
[OGL LOG] matrix is not yet sorted, sorting host matrix
[OGL LOG] sort_host_mtx_sparsity_pattern : 200 ms
[OGL LOG] sort_host_mtx : 125 ms
[OGL LOG] init_preconditioner : 0 ms
[OGL LOG] solve : 1233 ms
noneompGKOBiCGStab:  Solving for Uy, Initial residual = 0.255087, Final residual = 8.64138e-07, No Iterations 52
[OGL LOG] init_host_sparsity_pattern : 267 ms
[OGL LOG] matrix not stored update host matrix
[OGL LOG] update_host_mtx : 127 ms
[OGL LOG] matrix is not yet sorted, sorting host matrix
[OGL LOG] sort_host_mtx_sparsity_pattern : 193 ms
[OGL LOG] sort_host_mtx : 125 ms
[OGL LOG] init_preconditioner : 0 ms
[OGL LOG] solve : 1349 ms
noneompGKOBiCGStab:  Solving for Uz, Initial residual = 0.87504, Final residual = 6.42558e-07, No Iterations 57
[OGL LOG] init_preconditioner : 0 ms
[OGL LOG] solve : 16878 ms
noneompGKOBiCGStab:  Solving for p, Initial residual = 0.750206, Final residual = 8.9665e-07, No Iterations 794
time step continuity errors : sum local = 8.32739e-06, global = -1.02961e-20, cumulative = -2.95412e-20
[OGL LOG] init_preconditioner : 0 ms
[OGL LOG] solve : 16166 ms
noneompGKOBiCGStab:  Solving for p, Initial residual = 0.686337, Final residual = 5.43069e-07, No Iterations 768
time step continuity errors : sum local = 9.13876e-07, global = -5.44647e-21, cumulative = -3.49876e-20
ExecutionTime = 2266.28 s  ClockTime = 167 s

Time = 0.005

Courant Number mean: 0.112165 max: 0.946351
[OGL LOG] init_host_sparsity_pattern : 304 ms
[OGL LOG] matrix not stored update host matrix
[OGL LOG] update_host_mtx : 130 ms
[OGL LOG] matrix is not yet sorted, sorting host matrix
[OGL LOG] sort_host_mtx_sparsity_pattern : 200 ms
[OGL LOG] sort_host_mtx : 126 ms
[OGL LOG] init_preconditioner : 0 ms
[OGL LOG] solve : 1142 ms
noneompGKOBiCGStab:  Solving for Ux, Initial residual = 0.0416066, Final residual = 9.30781e-07, No Iterations 47
[OGL LOG] init_host_sparsity_pattern : 269 ms
[OGL LOG] matrix not stored update host matrix
[OGL LOG] update_host_mtx : 127 ms
[OGL LOG] matrix is not yet sorted, sorting host matrix
[OGL LOG] sort_host_mtx_sparsity_pattern : 196 ms
[OGL LOG] sort_host_mtx : 126 ms
[OGL LOG] init_preconditioner : 0 ms
[OGL LOG] solve : 1257 ms
noneompGKOBiCGStab:  Solving for Uy, Initial residual = 0.132337, Final residual = 8.98328e-07, No Iterations 52
[OGL LOG] init_host_sparsity_pattern : 268 ms
[OGL LOG] matrix not stored update host matrix
[OGL LOG] update_host_mtx : 127 ms
[OGL LOG] matrix is not yet sorted, sorting host matrix
[OGL LOG] sort_host_mtx_sparsity_pattern : 194 ms
[OGL LOG] sort_host_mtx : 125 ms
[OGL LOG] init_preconditioner : 0 ms
[OGL LOG] solve : 1322 ms
noneompGKOBiCGStab:  Solving for Uz, Initial residual = 0.865122, Final residual = 2.55949e-07, No Iterations 55
[OGL LOG] init_preconditioner : 0 ms
[OGL LOG] solve : 16214 ms
noneompGKOBiCGStab:  Solving for p, Initial residual = 0.761162, Final residual = 9.78608e-07, No Iterations 770
time step continuity errors : sum local = 7.10382e-09, global = 2.45457e-21, cumulative = -3.25331e-20
[OGL LOG] init_preconditioner : 0 ms
[OGL LOG] solve : 15400 ms
noneompGKOBiCGStab:  Solving for p, Initial residual = 0.713894, Final residual = 6.65634e-07, No Iterations 718
time step continuity errors : sum local = 2.50525e-07, global = -1.03783e-20, cumulative = -4.29114e-20
ExecutionTime = 2833.99 s  ClockTime = 206 s

End

