/*---------------------------------------------------------------------------*\
  =========                 |
  \\      /  F ield         | OpenFOAM: The Open Source CFD Toolbox
   \\    /   O peration     | Website:  https://openfoam.org
    \\  /    A nd           | Version:  8
     \\/     M anipulation  |
\*---------------------------------------------------------------------------*/
Build  : 8-13d66902f78c
Exec   : icoFoam
Date   : Jul 14 2021
Time   : 02:37:58
Host   : "uc2n480.localdomain"
PID    : 627474
I/O    : uncollated
Case   : /pfs/data5/home/kit/scc/nq7776/code/OGL_DATA/lidDrivenCavity3D/v0.1-136-g40fef35/f584ccac99/IntelXeonGold6230CPU@2.10GHz/Test_2021-07-14-02:36:35/50/p-BiCGStab-OF-none-reference/lidDrivenCavity3D
nProcs : 1
sigFpe : Enabling floating point exception trapping (FOAM_SIGFPE).
fileModificationChecking : Monitoring run-time modified files using timeStampMaster (fileModificationSkew 10)
allowSystemOperations : Allowing user-supplied system call operations

// * * * * * * * * * * * * * * * * * * * * * * * * * * * * * * * * * * * * * //
Create time

Create mesh for time = 0

Reading transportProperties

Reading field p

Reading field U

Reading/calculating face flux field phi


Starting time loop

Time = 0.002

Courant Number mean: 0 max: 0
nonePBiCGStab:  Solving for Ux, Initial residual = 1, Final residual = 0.0592055, No Iterations 5
nonePBiCGStab:  Solving for Uy, Initial residual = 0, Final residual = 0, No Iterations 0
nonePBiCGStab:  Solving for Uz, Initial residual = 0, Final residual = 0, No Iterations 0
nonePBiCGStab:  Solving for p, Initial residual = 1, Final residual = 9.70261e-07, No Iterations 352
time step continuity errors : sum local = 2.48902e-09, global = 2.07922e-20, cumulative = 2.07922e-20
nonePBiCGStab:  Solving for p, Initial residual = 0.676733, Final residual = 6.78086e-07, No Iterations 355
time step continuity errors : sum local = 2.45984e-09, global = 4.71369e-21, cumulative = 2.55059e-20
ExecutionTime = 2.59 s  ClockTime = 3 s

Time = 0.004

Courant Number mean: 0.0636233 max: 0.723792
nonePBiCGStab:  Solving for Ux, Initial residual = 0.144137, Final residual = 0.0219213, No Iterations 5
nonePBiCGStab:  Solving for Uy, Initial residual = 0.363931, Final residual = 0.0522824, No Iterations 5
nonePBiCGStab:  Solving for Uz, Initial residual = 0.973673, Final residual = 0.158952, No Iterations 5
nonePBiCGStab:  Solving for p, Initial residual = 0.668505, Final residual = 7.98809e-07, No Iterations 352
time step continuity errors : sum local = 3.65778e-09, global = -3.28902e-20, cumulative = -7.38424e-21
nonePBiCGStab:  Solving for p, Initial residual = 0.584653, Final residual = 9.7877e-07, No Iterations 356
time step continuity errors : sum local = 4.59576e-09, global = -5.41755e-21, cumulative = -1.28018e-20
ExecutionTime = 4.73 s  ClockTime = 5 s

Time = 0.006

Courant Number mean: 0.0972275 max: 0.862515
nonePBiCGStab:  Solving for Ux, Initial residual = 0.052416, Final residual = 0.00685455, No Iterations 5
nonePBiCGStab:  Solving for Uy, Initial residual = 0.127056, Final residual = 0.020121, No Iterations 5
nonePBiCGStab:  Solving for Uz, Initial residual = 0.366436, Final residual = 0.0529669, No Iterations 5
nonePBiCGStab:  Solving for p, Initial residual = 0.594552, Final residual = 2.84508e-07, No Iterations 345
time step continuity errors : sum local = 6.84624e-10, global = -2.50167e-20, cumulative = -3.78185e-20
nonePBiCGStab:  Solving for p, Initial residual = 0.528717, Final residual = 2.65938e-07, No Iterations 350
time step continuity errors : sum local = 5.81943e-10, global = -2.84463e-21, cumulative = -4.06631e-20
ExecutionTime = 6.84 s  ClockTime = 7 s

Time = 0.008

Courant Number mean: 0.113794 max: 0.88248
nonePBiCGStab:  Solving for Ux, Initial residual = 0.0289563, Final residual = 0.00344474, No Iterations 5
nonePBiCGStab:  Solving for Uy, Initial residual = 0.0844274, Final residual = 0.0109195, No Iterations 5
nonePBiCGStab:  Solving for Uz, Initial residual = 0.229194, Final residual = 0.0297623, No Iterations 5
nonePBiCGStab:  Solving for p, Initial residual = 0.411435, Final residual = 9.53821e-07, No Iterations 350
time step continuity errors : sum local = 2.90712e-09, global = -6.49971e-21, cumulative = -4.71628e-20
nonePBiCGStab:  Solving for p, Initial residual = 0.34269, Final residual = 8.94191e-07, No Iterations 354
time step continuity errors : sum local = 2.77633e-09, global = -2.87896e-20, cumulative = -7.59525e-20
ExecutionTime = 9.01 s  ClockTime = 9 s

Time = 0.01

Courant Number mean: 0.127339 max: 0.898877
nonePBiCGStab:  Solving for Ux, Initial residual = 0.0202755, Final residual = 0.00208467, No Iterations 5
nonePBiCGStab:  Solving for Uy, Initial residual = 0.0505613, Final residual = 0.00623613, No Iterations 5
nonePBiCGStab:  Solving for Uz, Initial residual = 0.112881, Final residual = 0.0180653, No Iterations 5
nonePBiCGStab:  Solving for p, Initial residual = 0.354052, Final residual = 7.4666e-07, No Iterations 346
time step continuity errors : sum local = 1.89295e-09, global = 2.20036e-20, cumulative = -5.39489e-20
nonePBiCGStab:  Solving for p, Initial residual = 0.302225, Final residual = 9.5712e-07, No Iterations 330
time step continuity errors : sum local = 2.39195e-09, global = -2.52715e-20, cumulative = -7.92204e-20
ExecutionTime = 11.04 s  ClockTime = 11 s

End

