/*---------------------------------------------------------------------------*\
  =========                 |
  \\      /  F ield         | OpenFOAM: The Open Source CFD Toolbox
   \\    /   O peration     | Website:  https://openfoam.org
    \\  /    A nd           | Version:  8
     \\/     M anipulation  |
\*---------------------------------------------------------------------------*/
Build  : 8-13d66902f78c
Exec   : icoFoam
Date   : Jul 14 2021
Time   : 03:46:40
Host   : "uc2n398.localdomain"
PID    : 551649
I/O    : uncollated
Case   : /pfs/data5/home/kit/scc/nq7776/code/OGL_DATA/lidDrivenCavity3D/v0.1-136-g40fef35/f584ccac99/IntelXeonGold6230CPU@2.10GHz/Test_2021-07-14-01:40:40/75/p-U-BiCGStab-GKO-BJ-omp/lidDrivenCavity3D
nProcs : 1
sigFpe : Enabling floating point exception trapping (FOAM_SIGFPE).
fileModificationChecking : Monitoring run-time modified files using timeStampMaster (fileModificationSkew 10)
allowSystemOperations : Allowing user-supplied system call operations

// * * * * * * * * * * * * * * * * * * * * * * * * * * * * * * * * * * * * * //
Create time

Create mesh for time = 0

Reading transportProperties

Reading field p

Reading field U

Reading/calculating face flux field phi


Starting time loop

Time = 0.00133333

Courant Number mean: 0 max: 0
[OGL LOG] init_host_sparsity_pattern : 120 ms
[OGL LOG] matrix not stored update host matrix
[OGL LOG] update_host_mtx : 61 ms
[OGL LOG] matrix is not yet sorted, compute sorting idxs
[OGL LOG] compute_sort : 3338 ms
[OGL LOG] matrix is not yet sorted, sorting host matrix
[OGL LOG] sort_host_mtx_sparsity_pattern : 77 ms
[OGL LOG] sort_host_mtx : 52 ms
[OGL LOG] init_preconditioner : 22 ms
[OGL LOG] solve : 755 ms
BJompGKOBiCGStab:  Solving for Ux, Initial residual = 1, Final residual = 8.05502e-07, No Iterations 44
[OGL LOG] init_host_sparsity_pattern : 116 ms
[OGL LOG] matrix not stored update host matrix
[OGL LOG] update_host_mtx : 61 ms
[OGL LOG] matrix is not yet sorted, sorting host matrix
[OGL LOG] sort_host_mtx_sparsity_pattern : 80 ms
[OGL LOG] sort_host_mtx : 43 ms
[OGL LOG] init_preconditioner : 8 ms
[OGL LOG] solve : 18 ms
BJompGKOBiCGStab:  Solving for Uy, Initial residual = 0, Final residual = 0, No Iterations 0
[OGL LOG] init_host_sparsity_pattern : 111 ms
[OGL LOG] matrix not stored update host matrix
[OGL LOG] update_host_mtx : 53 ms
[OGL LOG] matrix is not yet sorted, sorting host matrix
[OGL LOG] sort_host_mtx_sparsity_pattern : 76 ms
[OGL LOG] sort_host_mtx : 47 ms
[OGL LOG] init_preconditioner : 7 ms
[OGL LOG] solve : 19 ms
BJompGKOBiCGStab:  Solving for Uz, Initial residual = 0, Final residual = 0, No Iterations 0
[OGL LOG] init_host_sparsity_pattern : 112 ms
[OGL LOG] matrix not stored update host matrix
[OGL LOG] update_host_mtx : 62 ms
[OGL LOG] matrix is not yet sorted, sorting host matrix
[OGL LOG] sort_host_mtx_sparsity_pattern : 80 ms
[OGL LOG] sort_host_mtx : 43 ms
[OGL LOG] init_preconditioner : 7 ms
[OGL LOG] solve : 7524 ms
BJompGKOBiCGStab:  Solving for p, Initial residual = 1, Final residual = 9.90854e-07, No Iterations 491
time step continuity errors : sum local = 3.34316e-07, global = 1.38415e-21, cumulative = 1.38415e-21
[OGL LOG] init_preconditioner : 0 ms
[OGL LOG] solve : 7773 ms
BJompGKOBiCGStab:  Solving for p, Initial residual = 0.759333, Final residual = 7.95331e-07, No Iterations 568
time step continuity errors : sum local = 1.33243e-09, global = -9.43061e-21, cumulative = -8.04646e-21
ExecutionTime = 1035.7 s  ClockTime = 23 s

Time = 0.00266667

Courant Number mean: 0.0631769 max: 0.775391
[OGL LOG] init_host_sparsity_pattern : 112 ms
[OGL LOG] matrix not stored update host matrix
[OGL LOG] update_host_mtx : 56 ms
[OGL LOG] matrix is not yet sorted, sorting host matrix
[OGL LOG] sort_host_mtx_sparsity_pattern : 81 ms
[OGL LOG] sort_host_mtx : 43 ms
[OGL LOG] init_preconditioner : 0 ms
[OGL LOG] solve : 613 ms
BJompGKOBiCGStab:  Solving for Ux, Initial residual = 0.183024, Final residual = 5.94444e-07, No Iterations 41
[OGL LOG] init_host_sparsity_pattern : 117 ms
[OGL LOG] matrix not stored update host matrix
[OGL LOG] update_host_mtx : 62 ms
[OGL LOG] matrix is not yet sorted, sorting host matrix
[OGL LOG] sort_host_mtx_sparsity_pattern : 75 ms
[OGL LOG] sort_host_mtx : 43 ms
[OGL LOG] init_preconditioner : 0 ms
[OGL LOG] solve : 689 ms
BJompGKOBiCGStab:  Solving for Uy, Initial residual = 0.619636, Final residual = 7.69763e-07, No Iterations 45
[OGL LOG] init_host_sparsity_pattern : 112 ms
[OGL LOG] matrix not stored update host matrix
[OGL LOG] update_host_mtx : 53 ms
[OGL LOG] matrix is not yet sorted, sorting host matrix
[OGL LOG] sort_host_mtx_sparsity_pattern : 73 ms
[OGL LOG] sort_host_mtx : 43 ms
[OGL LOG] init_preconditioner : 0 ms
[OGL LOG] solve : 722 ms
BJompGKOBiCGStab:  Solving for Uz, Initial residual = 0.604428, Final residual = 8.83565e-07, No Iterations 47
[OGL LOG] init_preconditioner : 0 ms
[OGL LOG] solve : 7447 ms
BJompGKOBiCGStab:  Solving for p, Initial residual = 0.749123, Final residual = 3.51567e-07, No Iterations 525
time step continuity errors : sum local = 8.27141e-08, global = -7.19054e-21, cumulative = -1.5237e-20
[OGL LOG] init_preconditioner : 0 ms
[OGL LOG] solve : 6308 ms
BJompGKOBiCGStab:  Solving for p, Initial residual = 0.683908, Final residual = 9.84277e-07, No Iterations 452
time step continuity errors : sum local = 2.37274e-06, global = 1.54697e-21, cumulative = -1.369e-20
ExecutionTime = 2044.33 s  ClockTime = 40 s

Time = 0.004

Courant Number mean: 0.0951466 max: 0.917122
[OGL LOG] init_host_sparsity_pattern : 112 ms
[OGL LOG] matrix not stored update host matrix
[OGL LOG] update_host_mtx : 56 ms
[OGL LOG] matrix is not yet sorted, sorting host matrix
[OGL LOG] sort_host_mtx_sparsity_pattern : 84 ms
[OGL LOG] sort_host_mtx : 43 ms
[OGL LOG] init_preconditioner : 0 ms
[OGL LOG] solve : 681 ms
BJompGKOBiCGStab:  Solving for Ux, Initial residual = 0.101909, Final residual = 9.45406e-07, No Iterations 44
[OGL LOG] init_host_sparsity_pattern : 113 ms
[OGL LOG] matrix not stored update host matrix
[OGL LOG] update_host_mtx : 54 ms
[OGL LOG] matrix is not yet sorted, sorting host matrix
[OGL LOG] sort_host_mtx_sparsity_pattern : 73 ms
[OGL LOG] sort_host_mtx : 43 ms
[OGL LOG] init_preconditioner : 0 ms
[OGL LOG] solve : 747 ms
BJompGKOBiCGStab:  Solving for Uy, Initial residual = 0.335693, Final residual = 9.13861e-07, No Iterations 49
[OGL LOG] init_host_sparsity_pattern : 112 ms
[OGL LOG] matrix not stored update host matrix
[OGL LOG] update_host_mtx : 53 ms
[OGL LOG] matrix is not yet sorted, sorting host matrix
[OGL LOG] sort_host_mtx_sparsity_pattern : 72 ms
[OGL LOG] sort_host_mtx : 43 ms
[OGL LOG] init_preconditioner : 0 ms
[OGL LOG] solve : 716 ms
BJompGKOBiCGStab:  Solving for Uz, Initial residual = 0.914782, Final residual = 8.11296e-07, No Iterations 47
[OGL LOG] init_preconditioner : 0 ms
[OGL LOG] solve : 7305 ms
BJompGKOBiCGStab:  Solving for p, Initial residual = 0.754893, Final residual = 8.76925e-07, No Iterations 527
time step continuity errors : sum local = 1.73638e-09, global = -5.58509e-21, cumulative = -1.92751e-20
[OGL LOG] init_preconditioner : 0 ms
[OGL LOG] solve : 7216 ms
BJompGKOBiCGStab:  Solving for p, Initial residual = 0.717105, Final residual = 8.40334e-07, No Iterations 512
time step continuity errors : sum local = 6.52454e-07, global = -1.35933e-22, cumulative = -1.94111e-20
ExecutionTime = 3111.16 s  ClockTime = 58 s

Time = 0.00533333

Courant Number mean: 0.109258 max: 0.913478
[OGL LOG] init_host_sparsity_pattern : 114 ms
[OGL LOG] matrix not stored update host matrix
[OGL LOG] update_host_mtx : 54 ms
[OGL LOG] matrix is not yet sorted, sorting host matrix
[OGL LOG] sort_host_mtx_sparsity_pattern : 81 ms
[OGL LOG] sort_host_mtx : 44 ms
[OGL LOG] init_preconditioner : 0 ms
[OGL LOG] solve : 601 ms
BJompGKOBiCGStab:  Solving for Ux, Initial residual = 0.0447087, Final residual = 9.57502e-07, No Iterations 38
[OGL LOG] init_host_sparsity_pattern : 113 ms
[OGL LOG] matrix not stored update host matrix
[OGL LOG] update_host_mtx : 53 ms
[OGL LOG] matrix is not yet sorted, sorting host matrix
[OGL LOG] sort_host_mtx_sparsity_pattern : 72 ms
[OGL LOG] sort_host_mtx : 43 ms
[OGL LOG] init_preconditioner : 0 ms
[OGL LOG] solve : 663 ms
BJompGKOBiCGStab:  Solving for Uy, Initial residual = 0.197704, Final residual = 8.64327e-07, No Iterations 42
[OGL LOG] init_host_sparsity_pattern : 112 ms
[OGL LOG] matrix not stored update host matrix
[OGL LOG] update_host_mtx : 54 ms
[OGL LOG] matrix is not yet sorted, sorting host matrix
[OGL LOG] sort_host_mtx_sparsity_pattern : 73 ms
[OGL LOG] sort_host_mtx : 44 ms
[OGL LOG] init_preconditioner : 0 ms
[OGL LOG] solve : 624 ms
BJompGKOBiCGStab:  Solving for Uz, Initial residual = 0.736982, Final residual = 8.36139e-07, No Iterations 44
[OGL LOG] init_preconditioner : 0 ms
[OGL LOG] solve : 6070 ms
BJompGKOBiCGStab:  Solving for p, Initial residual = 0.617843, Final residual = 3.20749e-07, No Iterations 494
time step continuity errors : sum local = 1.13326e-08, global = -3.48421e-21, cumulative = -2.28953e-20
[OGL LOG] init_preconditioner : 0 ms
[OGL LOG] solve : 5780 ms
BJompGKOBiCGStab:  Solving for p, Initial residual = 0.555016, Final residual = 9.53452e-07, No Iterations 471
time step continuity errors : sum local = 4.02007e-09, global = -1.44272e-20, cumulative = -3.73224e-20
ExecutionTime = 3991.18 s  ClockTime = 73 s

Time = 0.00666667

Courant Number mean: 0.122087 max: 0.929146
[OGL LOG] init_host_sparsity_pattern : 112 ms
[OGL LOG] matrix not stored update host matrix
[OGL LOG] update_host_mtx : 53 ms
[OGL LOG] matrix is not yet sorted, sorting host matrix
[OGL LOG] sort_host_mtx_sparsity_pattern : 72 ms
[OGL LOG] sort_host_mtx : 43 ms
[OGL LOG] init_preconditioner : 0 ms
[OGL LOG] solve : 542 ms
BJompGKOBiCGStab:  Solving for Ux, Initial residual = 0.0319444, Final residual = 9.86946e-07, No Iterations 39
[OGL LOG] init_host_sparsity_pattern : 112 ms
[OGL LOG] matrix not stored update host matrix
[OGL LOG] update_host_mtx : 53 ms
[OGL LOG] matrix is not yet sorted, sorting host matrix
[OGL LOG] sort_host_mtx_sparsity_pattern : 72 ms
[OGL LOG] sort_host_mtx : 43 ms
[OGL LOG] init_preconditioner : 0 ms
[OGL LOG] solve : 632 ms
BJompGKOBiCGStab:  Solving for Uy, Initial residual = 0.0804269, Final residual = 7.78446e-07, No Iterations 45
[OGL LOG] init_host_sparsity_pattern : 112 ms
[OGL LOG] matrix not stored update host matrix
[OGL LOG] update_host_mtx : 53 ms
[OGL LOG] matrix is not yet sorted, sorting host matrix
[OGL LOG] sort_host_mtx_sparsity_pattern : 72 ms
[OGL LOG] sort_host_mtx : 43 ms
[OGL LOG] init_preconditioner : 0 ms
[OGL LOG] solve : 673 ms
BJompGKOBiCGStab:  Solving for Uz, Initial residual = 0.525625, Final residual = 9.86804e-07, No Iterations 48
[OGL LOG] init_preconditioner : 0 ms
[OGL LOG] solve : 6625 ms
BJompGKOBiCGStab:  Solving for p, Initial residual = 0.592276, Final residual = 6.61871e-07, No Iterations 527
time step continuity errors : sum local = 5.72811e-09, global = 1.13466e-20, cumulative = -2.59758e-20
[OGL LOG] init_preconditioner : 0 ms
[OGL LOG] solve : 7714 ms
BJompGKOBiCGStab:  Solving for p, Initial residual = 0.543249, Final residual = 7.8774e-07, No Iterations 556
time step continuity errors : sum local = 1.62919e-09, global = 4.00911e-22, cumulative = -2.55749e-20
ExecutionTime = 5026.67 s  ClockTime = 91 s

End

