/*---------------------------------------------------------------------------*\
  =========                 |
  \\      /  F ield         | OpenFOAM: The Open Source CFD Toolbox
   \\    /   O peration     | Website:  https://openfoam.org
    \\  /    A nd           | Version:  8
     \\/     M anipulation  |
\*---------------------------------------------------------------------------*/
Build  : 8-13d66902f78c
Exec   : icoFoam
Date   : Jul 04 2021
Time   : 10:02:10
Host   : "uc2n415.localdomain"
PID    : 2612883
I/O    : uncollated
Case   : /pfs/data5/home/kit/scc/nq7776/code/OGL_DATA/lidDrivenCavity3D/v0.1-136-g40fef35/f584ccac99/IntelXeonGold6230CPU@2.10GHz/Test_2021-07-04-08:36:30/100/p-U-BiCGStab-GKO-none-omp/lidDrivenCavity3D
nProcs : 1
sigFpe : Enabling floating point exception trapping (FOAM_SIGFPE).
fileModificationChecking : Monitoring run-time modified files using timeStampMaster (fileModificationSkew 10)
allowSystemOperations : Allowing user-supplied system call operations

// * * * * * * * * * * * * * * * * * * * * * * * * * * * * * * * * * * * * * //
Create time

Create mesh for time = 0

Reading transportProperties

Reading field p

Reading field U

Reading/calculating face flux field phi


Starting time loop

Time = 0.001

Courant Number mean: 0 max: 0
[OGL LOG] init_host_sparsity_pattern : 288 ms
[OGL LOG] matrix not stored update host matrix
[OGL LOG] update_host_mtx : 145 ms
[OGL LOG] matrix is not yet sorted, compute sorting idxs
[OGL LOG] compute_sort : 9034 ms
[OGL LOG] matrix is not yet sorted, sorting host matrix
[OGL LOG] sort_host_mtx_sparsity_pattern : 185 ms
[OGL LOG] sort_host_mtx : 126 ms
[OGL LOG] init_preconditioner : 0 ms
[OGL LOG] solve : 3760 ms
noneompGKOBiCGStab:  Solving for Ux, Initial residual = 1, Final residual = 9.90061e-07, No Iterations 57
[OGL LOG] init_host_sparsity_pattern : 277 ms
[OGL LOG] matrix not stored update host matrix
[OGL LOG] update_host_mtx : 145 ms
[OGL LOG] matrix is not yet sorted, sorting host matrix
[OGL LOG] sort_host_mtx_sparsity_pattern : 193 ms
[OGL LOG] sort_host_mtx : 125 ms
[OGL LOG] init_preconditioner : 0 ms
[OGL LOG] solve : 100 ms
noneompGKOBiCGStab:  Solving for Uy, Initial residual = 0, Final residual = 0, No Iterations 0
[OGL LOG] init_host_sparsity_pattern : 266 ms
[OGL LOG] matrix not stored update host matrix
[OGL LOG] update_host_mtx : 145 ms
[OGL LOG] matrix is not yet sorted, sorting host matrix
[OGL LOG] sort_host_mtx_sparsity_pattern : 193 ms
[OGL LOG] sort_host_mtx : 125 ms
[OGL LOG] init_preconditioner : 0 ms
[OGL LOG] solve : 92 ms
noneompGKOBiCGStab:  Solving for Uz, Initial residual = 0, Final residual = 0, No Iterations 0
[OGL LOG] init_host_sparsity_pattern : 293 ms
[OGL LOG] matrix not stored update host matrix
[OGL LOG] update_host_mtx : 148 ms
[OGL LOG] matrix is not yet sorted, sorting host matrix
[OGL LOG] sort_host_mtx_sparsity_pattern : 193 ms
[OGL LOG] sort_host_mtx : 125 ms
[OGL LOG] init_preconditioner : 0 ms
[OGL LOG] solve : 46347 ms
noneompGKOBiCGStab:  Solving for p, Initial residual = 1, Final residual = 1.66322e-07, No Iterations 720
time step continuity errors : sum local = 2.00552e-08, global = -5.19699e-21, cumulative = -5.19699e-21
[OGL LOG] init_preconditioner : 0 ms
[OGL LOG] solve : 45459 ms
noneompGKOBiCGStab:  Solving for p, Initial residual = 0.783634, Final residual = 9.82328e-07, No Iterations 708
time step continuity errors : sum local = 1.98732e-09, global = 1.38204e-20, cumulative = 8.62341e-21
ExecutionTime = 112.42 s  ClockTime = 112 s

Time = 0.002

Courant Number mean: 0.0571435 max: 0.804774
[OGL LOG] init_host_sparsity_pattern : 265 ms
[OGL LOG] matrix not stored update host matrix
[OGL LOG] update_host_mtx : 126 ms
[OGL LOG] matrix is not yet sorted, sorting host matrix
[OGL LOG] sort_host_mtx_sparsity_pattern : 182 ms
[OGL LOG] sort_host_mtx : 125 ms
[OGL LOG] init_preconditioner : 0 ms
[OGL LOG] solve : 3272 ms
noneompGKOBiCGStab:  Solving for Ux, Initial residual = 0.1691, Final residual = 6.45694e-07, No Iterations 50
[OGL LOG] init_host_sparsity_pattern : 266 ms
[OGL LOG] matrix not stored update host matrix
[OGL LOG] update_host_mtx : 126 ms
[OGL LOG] matrix is not yet sorted, sorting host matrix
[OGL LOG] sort_host_mtx_sparsity_pattern : 192 ms
[OGL LOG] sort_host_mtx : 125 ms
[OGL LOG] init_preconditioner : 0 ms
[OGL LOG] solve : 3573 ms
noneompGKOBiCGStab:  Solving for Uy, Initial residual = 0.620153, Final residual = 7.4636e-07, No Iterations 54
[OGL LOG] init_host_sparsity_pattern : 266 ms
[OGL LOG] matrix not stored update host matrix
[OGL LOG] update_host_mtx : 126 ms
[OGL LOG] matrix is not yet sorted, sorting host matrix
[OGL LOG] sort_host_mtx_sparsity_pattern : 192 ms
[OGL LOG] sort_host_mtx : 125 ms
[OGL LOG] init_preconditioner : 0 ms
[OGL LOG] solve : 3304 ms
noneompGKOBiCGStab:  Solving for Uz, Initial residual = 0.647912, Final residual = 9.70916e-07, No Iterations 50
[OGL LOG] init_preconditioner : 0 ms
[OGL LOG] solve : 49282 ms
noneompGKOBiCGStab:  Solving for p, Initial residual = 0.798458, Final residual = 1.77017e-07, No Iterations 767
time step continuity errors : sum local = 1.51231e-08, global = -1.0331e-20, cumulative = -1.7076e-21
[OGL LOG] init_preconditioner : 0 ms
[OGL LOG] solve : 48454 ms
noneompGKOBiCGStab:  Solving for p, Initial residual = 0.738591, Final residual = 5.93564e-07, No Iterations 754
time step continuity errors : sum local = 1.37281e-08, global = 1.11874e-20, cumulative = 9.4798e-21
ExecutionTime = 223.29 s  ClockTime = 223 s

Time = 0.003

Courant Number mean: 0.0867401 max: 0.944828
[OGL LOG] init_host_sparsity_pattern : 266 ms
[OGL LOG] matrix not stored update host matrix
[OGL LOG] update_host_mtx : 126 ms
[OGL LOG] matrix is not yet sorted, sorting host matrix
[OGL LOG] sort_host_mtx_sparsity_pattern : 192 ms
[OGL LOG] sort_host_mtx : 125 ms
[OGL LOG] init_preconditioner : 0 ms
[OGL LOG] solve : 3014 ms
noneompGKOBiCGStab:  Solving for Ux, Initial residual = 0.102701, Final residual = 5.58778e-07, No Iterations 46
[OGL LOG] init_host_sparsity_pattern : 266 ms
[OGL LOG] matrix not stored update host matrix
[OGL LOG] update_host_mtx : 126 ms
[OGL LOG] matrix is not yet sorted, sorting host matrix
[OGL LOG] sort_host_mtx_sparsity_pattern : 192 ms
[OGL LOG] sort_host_mtx : 125 ms
[OGL LOG] init_preconditioner : 0 ms
[OGL LOG] solve : 3340 ms
noneompGKOBiCGStab:  Solving for Uy, Initial residual = 0.396735, Final residual = 4.19812e-07, No Iterations 51
[OGL LOG] init_host_sparsity_pattern : 266 ms
[OGL LOG] matrix not stored update host matrix
[OGL LOG] update_host_mtx : 126 ms
[OGL LOG] matrix is not yet sorted, sorting host matrix
[OGL LOG] sort_host_mtx_sparsity_pattern : 193 ms
[OGL LOG] sort_host_mtx : 125 ms
[OGL LOG] init_preconditioner : 0 ms
[OGL LOG] solve : 3529 ms
noneompGKOBiCGStab:  Solving for Uz, Initial residual = 1.00211, Final residual = 9.93526e-07, No Iterations 54
[OGL LOG] init_preconditioner : 0 ms
[OGL LOG] solve : 47953 ms
noneompGKOBiCGStab:  Solving for p, Initial residual = 0.832655, Final residual = 9.92009e-07, No Iterations 747
time step continuity errors : sum local = 1.21387e-08, global = 7.38682e-21, cumulative = 1.68666e-20
[OGL LOG] init_preconditioner : 0 ms
[OGL LOG] solve : 50219 ms
noneompGKOBiCGStab:  Solving for p, Initial residual = 0.802796, Final residual = 7.6965e-07, No Iterations 781
time step continuity errors : sum local = 3.04404e-08, global = -3.00819e-21, cumulative = 1.38584e-20
ExecutionTime = 334.33 s  ClockTime = 335 s

Time = 0.004

Courant Number mean: 0.0995274 max: 0.926351
[OGL LOG] init_host_sparsity_pattern : 266 ms
[OGL LOG] matrix not stored update host matrix
[OGL LOG] update_host_mtx : 126 ms
[OGL LOG] matrix is not yet sorted, sorting host matrix
[OGL LOG] sort_host_mtx_sparsity_pattern : 193 ms
[OGL LOG] sort_host_mtx : 125 ms
[OGL LOG] init_preconditioner : 0 ms
[OGL LOG] solve : 3079 ms
noneompGKOBiCGStab:  Solving for Ux, Initial residual = 0.0542155, Final residual = 9.24668e-07, No Iterations 47
[OGL LOG] init_host_sparsity_pattern : 266 ms
[OGL LOG] matrix not stored update host matrix
[OGL LOG] update_host_mtx : 126 ms
[OGL LOG] matrix is not yet sorted, sorting host matrix
[OGL LOG] sort_host_mtx_sparsity_pattern : 192 ms
[OGL LOG] sort_host_mtx : 124 ms
[OGL LOG] init_preconditioner : 0 ms
[OGL LOG] solve : 3470 ms
noneompGKOBiCGStab:  Solving for Uy, Initial residual = 0.255082, Final residual = 9.2883e-07, No Iterations 53
[OGL LOG] init_host_sparsity_pattern : 266 ms
[OGL LOG] matrix not stored update host matrix
[OGL LOG] update_host_mtx : 126 ms
[OGL LOG] matrix is not yet sorted, sorting host matrix
[OGL LOG] sort_host_mtx_sparsity_pattern : 193 ms
[OGL LOG] sort_host_mtx : 125 ms
[OGL LOG] init_preconditioner : 0 ms
[OGL LOG] solve : 3400 ms
noneompGKOBiCGStab:  Solving for Uz, Initial residual = 0.875046, Final residual = 8.68072e-07, No Iterations 52
[OGL LOG] init_preconditioner : 0 ms
[OGL LOG] solve : 42985 ms
noneompGKOBiCGStab:  Solving for p, Initial residual = 0.750259, Final residual = 4.11927e-07, No Iterations 669
time step continuity errors : sum local = 1.21176e-07, global = 1.23766e-20, cumulative = 2.6235e-20
[OGL LOG] init_preconditioner : 0 ms
[OGL LOG] solve : 42105 ms
noneompGKOBiCGStab:  Solving for p, Initial residual = 0.685126, Final residual = 7.31153e-07, No Iterations 655
time step continuity errors : sum local = 2.34154e-07, global = -1.01438e-20, cumulative = 1.60912e-20
ExecutionTime = 432.38 s  ClockTime = 433 s

Time = 0.005

Courant Number mean: 0.112165 max: 0.946354
[OGL LOG] init_host_sparsity_pattern : 266 ms
[OGL LOG] matrix not stored update host matrix
[OGL LOG] update_host_mtx : 126 ms
[OGL LOG] matrix is not yet sorted, sorting host matrix
[OGL LOG] sort_host_mtx_sparsity_pattern : 193 ms
[OGL LOG] sort_host_mtx : 125 ms
[OGL LOG] init_preconditioner : 0 ms
[OGL LOG] solve : 3141 ms
noneompGKOBiCGStab:  Solving for Ux, Initial residual = 0.0411537, Final residual = 9.42113e-07, No Iterations 48
[OGL LOG] init_host_sparsity_pattern : 266 ms
[OGL LOG] matrix not stored update host matrix
[OGL LOG] update_host_mtx : 126 ms
[OGL LOG] matrix is not yet sorted, sorting host matrix
[OGL LOG] sort_host_mtx_sparsity_pattern : 192 ms
[OGL LOG] sort_host_mtx : 125 ms
[OGL LOG] init_preconditioner : 0 ms
[OGL LOG] solve : 3437 ms
noneompGKOBiCGStab:  Solving for Uy, Initial residual = 0.132689, Final residual = 8.99407e-07, No Iterations 52
[OGL LOG] init_host_sparsity_pattern : 266 ms
[OGL LOG] matrix not stored update host matrix
[OGL LOG] update_host_mtx : 126 ms
[OGL LOG] matrix is not yet sorted, sorting host matrix
[OGL LOG] sort_host_mtx_sparsity_pattern : 193 ms
[OGL LOG] sort_host_mtx : 125 ms
[OGL LOG] init_preconditioner : 0 ms
[OGL LOG] solve : 3499 ms
noneompGKOBiCGStab:  Solving for Uz, Initial residual = 0.877591, Final residual = 8.53003e-07, No Iterations 53
[OGL LOG] init_preconditioner : 0 ms
[OGL LOG] solve : 54733 ms
noneompGKOBiCGStab:  Solving for p, Initial residual = 0.759963, Final residual = 4.80458e-07, No Iterations 851
time step continuity errors : sum local = 8.01842e-09, global = 8.36482e-21, cumulative = 2.4456e-20
[OGL LOG] init_preconditioner : 0 ms
[OGL LOG] solve : 45513 ms
noneompGKOBiCGStab:  Solving for p, Initial residual = 0.712888, Final residual = 7.78723e-07, No Iterations 709
time step continuity errors : sum local = 3.16297e-08, global = 4.83884e-21, cumulative = 2.92949e-20
ExecutionTime = 545.69 s  ClockTime = 546 s

End

