/*---------------------------------------------------------------------------*\
  =========                 |
  \\      /  F ield         | OpenFOAM: The Open Source CFD Toolbox
   \\    /   O peration     | Website:  https://openfoam.org
    \\  /    A nd           | Version:  8
     \\/     M anipulation  |
\*---------------------------------------------------------------------------*/
Build  : 8-13d66902f78c
Exec   : icoFoam
Date   : Jul 04 2021
Time   : 10:02:50
Host   : "uc2n420.localdomain"
PID    : 1130590
I/O    : uncollated
Case   : /pfs/data5/home/kit/scc/nq7776/code/OGL_DATA/lidDrivenCavity3D/v0.1-136-g40fef35/f584ccac99/IntelXeonGold6230CPU@2.10GHz/Test_2021-07-04-07:18:41/100/p-BiCGStab-GKO-none-omp/lidDrivenCavity3D
nProcs : 1
sigFpe : Enabling floating point exception trapping (FOAM_SIGFPE).
fileModificationChecking : Monitoring run-time modified files using timeStampMaster (fileModificationSkew 10)
allowSystemOperations : Allowing user-supplied system call operations

// * * * * * * * * * * * * * * * * * * * * * * * * * * * * * * * * * * * * * //
Create time

Create mesh for time = 0

Reading transportProperties

Reading field p

Reading field U

Reading/calculating face flux field phi


Starting time loop

Time = 0.001

Courant Number mean: 0 max: 0
nonePBiCGStab:  Solving for Ux, Initial residual = 1, Final residual = 0.0818707, No Iterations 5
nonePBiCGStab:  Solving for Uy, Initial residual = 0, Final residual = 0, No Iterations 0
nonePBiCGStab:  Solving for Uz, Initial residual = 0, Final residual = 0, No Iterations 0
[OGL LOG] init_host_sparsity_pattern : 286 ms
[OGL LOG] matrix not stored update host matrix
[OGL LOG] update_host_mtx : 147 ms
[OGL LOG] matrix is not yet sorted, compute sorting idxs
[OGL LOG] compute_sort : 9041 ms
[OGL LOG] matrix is not yet sorted, sorting host matrix
[OGL LOG] sort_host_mtx_sparsity_pattern : 192 ms
[OGL LOG] sort_host_mtx : 124 ms
[OGL LOG] init_preconditioner : 0 ms
[OGL LOG] solve : 17156 ms
noneompGKOBiCGStab:  Solving for p, Initial residual = 1, Final residual = 6.25113e-07, No Iterations 713
time step continuity errors : sum local = 4.73137e-10, global = -2.28128e-20, cumulative = -2.28128e-20
[OGL LOG] init_preconditioner : 0 ms
[OGL LOG] solve : 16602 ms
noneompGKOBiCGStab:  Solving for p, Initial residual = 0.707487, Final residual = 6.43864e-07, No Iterations 679
time step continuity errors : sum local = 5.75713e-09, global = -1.87939e-21, cumulative = -2.46922e-20
ExecutionTime = 283.7 s  ClockTime = 48 s

Time = 0.002

Courant Number mean: 0.0422155 max: 0.791725
nonePBiCGStab:  Solving for Ux, Initial residual = 0.137872, Final residual = 0.0400113, No Iterations 5
nonePBiCGStab:  Solving for Uy, Initial residual = 0.451742, Final residual = 0.130143, No Iterations 5
nonePBiCGStab:  Solving for Uz, Initial residual = 0.987376, Final residual = 0.323481, No Iterations 5
[OGL LOG] init_preconditioner : 0 ms
[OGL LOG] solve : 17001 ms
noneompGKOBiCGStab:  Solving for p, Initial residual = 0.789691, Final residual = 8.26752e-07, No Iterations 702
time step continuity errors : sum local = 3.05881e-07, global = 1.79065e-21, cumulative = -2.29016e-20
[OGL LOG] init_preconditioner : 0 ms
[OGL LOG] solve : 17236 ms
noneompGKOBiCGStab:  Solving for p, Initial residual = 0.713538, Final residual = 9.71684e-08, No Iterations 721
time step continuity errors : sum local = 3.24939e-07, global = 1.70238e-21, cumulative = -2.11992e-20
ExecutionTime = 558.26 s  ClockTime = 84 s

Time = 0.003

Courant Number mean: 0.0674676 max: 0.89998
nonePBiCGStab:  Solving for Ux, Initial residual = 0.061043, Final residual = 0.0153032, No Iterations 5
nonePBiCGStab:  Solving for Uy, Initial residual = 0.208877, Final residual = 0.0596257, No Iterations 5
nonePBiCGStab:  Solving for Uz, Initial residual = 0.708331, Final residual = 0.21786, No Iterations 5
[OGL LOG] init_preconditioner : 0 ms
[OGL LOG] solve : 9133 ms
noneompGKOBiCGStab:  Solving for p, Initial residual = 0.796954, Final residual = 9.94795e-07, No Iterations 386
time step continuity errors : sum local = 7.66125e-10, global = -3.67889e-21, cumulative = -2.48781e-20
[OGL LOG] init_preconditioner : 0 ms
[OGL LOG] solve : 18106 ms
noneompGKOBiCGStab:  Solving for p, Initial residual = 0.724905, Final residual = 9.57972e-07, No Iterations 736
time step continuity errors : sum local = 1.03953e-08, global = 1.26957e-21, cumulative = -2.36085e-20
ExecutionTime = 776.95 s  ClockTime = 112 s

Time = 0.004

Courant Number mean: 0.0814718 max: 0.912881
nonePBiCGStab:  Solving for Ux, Initial residual = 0.0387809, Final residual = 0.0107347, No Iterations 5
nonePBiCGStab:  Solving for Uy, Initial residual = 0.148992, Final residual = 0.0503358, No Iterations 5
nonePBiCGStab:  Solving for Uz, Initial residual = 0.490976, Final residual = 0.132956, No Iterations 5
[OGL LOG] init_preconditioner : 0 ms
[OGL LOG] solve : 18435 ms
noneompGKOBiCGStab:  Solving for p, Initial residual = 0.719287, Final residual = 7.30496e-07, No Iterations 764
time step continuity errors : sum local = 1.70748e-08, global = 1.51194e-21, cumulative = -2.20966e-20
[OGL LOG] init_preconditioner : 0 ms
[OGL LOG] solve : 17107 ms
noneompGKOBiCGStab:  Solving for p, Initial residual = 0.619665, Final residual = 8.68327e-07, No Iterations 717
time step continuity errors : sum local = 6.61992e-08, global = 5.59595e-22, cumulative = -2.1537e-20
ExecutionTime = 1061.84 s  ClockTime = 149 s

Time = 0.005

Courant Number mean: 0.0922755 max: 0.925552
nonePBiCGStab:  Solving for Ux, Initial residual = 0.0298115, Final residual = 0.0089568, No Iterations 5
nonePBiCGStab:  Solving for Uy, Initial residual = 0.0986595, Final residual = 0.035897, No Iterations 5
nonePBiCGStab:  Solving for Uz, Initial residual = 0.303721, Final residual = 0.0803985, No Iterations 5
[OGL LOG] init_preconditioner : 0 ms
[OGL LOG] solve : 16466 ms
noneompGKOBiCGStab:  Solving for p, Initial residual = 0.756934, Final residual = 9.67255e-07, No Iterations 682
time step continuity errors : sum local = 1.01324e-09, global = -2.36043e-20, cumulative = -4.51413e-20
[OGL LOG] init_preconditioner : 0 ms
[OGL LOG] solve : 16299 ms
noneompGKOBiCGStab:  Solving for p, Initial residual = 0.670717, Final residual = 3.70063e-07, No Iterations 680
time step continuity errors : sum local = 4.66091e-10, global = 7.22927e-22, cumulative = -4.44184e-20
ExecutionTime = 1324.45 s  ClockTime = 183 s

End

