/*---------------------------------------------------------------------------*\
  =========                 |
  \\      /  F ield         | OpenFOAM: The Open Source CFD Toolbox
   \\    /   O peration     | Website:  https://openfoam.org
    \\  /    A nd           | Version:  8
     \\/     M anipulation  |
\*---------------------------------------------------------------------------*/
Build  : 8-13d66902f78c
Exec   : icoFoam
Date   : Jul 04 2021
Time   : 10:34:47
Host   : "uc2n399.localdomain"
PID    : 2506802
I/O    : uncollated
Case   : /pfs/data5/home/kit/scc/nq7776/code/OGL_DATA/lidDrivenCavity3D/v0.1-136-g40fef35/f584ccac99/IntelXeonGold6230CPU@2.10GHz/Test_2021-07-04-08:36:30/100/p-U-CG-GKO-none-omp/lidDrivenCavity3D
nProcs : 1
sigFpe : Enabling floating point exception trapping (FOAM_SIGFPE).
fileModificationChecking : Monitoring run-time modified files using timeStampMaster (fileModificationSkew 10)
allowSystemOperations : Allowing user-supplied system call operations

// * * * * * * * * * * * * * * * * * * * * * * * * * * * * * * * * * * * * * //
Create time

Create mesh for time = 0

Reading transportProperties

Reading field p

Reading field U

Reading/calculating face flux field phi


Starting time loop

Time = 0.001

Courant Number mean: 0 max: 0
[OGL LOG] init_host_sparsity_pattern : 291 ms
[OGL LOG] matrix not stored update host matrix
[OGL LOG] update_host_mtx : 144 ms
[OGL LOG] matrix is not yet sorted, compute sorting idxs
[OGL LOG] compute_sort : 9057 ms
[OGL LOG] matrix is not yet sorted, sorting host matrix
[OGL LOG] sort_host_mtx_sparsity_pattern : 184 ms
[OGL LOG] sort_host_mtx : 125 ms
[OGL LOG] init_preconditioner : 0 ms
[OGL LOG] solve : 1769 ms
noneompGKOBiCGStab:  Solving for Ux, Initial residual = 1, Final residual = 9.90061e-07, No Iterations 57
[OGL LOG] init_host_sparsity_pattern : 276 ms
[OGL LOG] matrix not stored update host matrix
[OGL LOG] update_host_mtx : 147 ms
[OGL LOG] matrix is not yet sorted, sorting host matrix
[OGL LOG] sort_host_mtx_sparsity_pattern : 193 ms
[OGL LOG] sort_host_mtx : 125 ms
[OGL LOG] init_preconditioner : 0 ms
[OGL LOG] solve : 45 ms
noneompGKOBiCGStab:  Solving for Uy, Initial residual = 0, Final residual = 0, No Iterations 0
[OGL LOG] init_host_sparsity_pattern : 265 ms
[OGL LOG] matrix not stored update host matrix
[OGL LOG] update_host_mtx : 144 ms
[OGL LOG] matrix is not yet sorted, sorting host matrix
[OGL LOG] sort_host_mtx_sparsity_pattern : 192 ms
[OGL LOG] sort_host_mtx : 124 ms
[OGL LOG] init_preconditioner : 0 ms
[OGL LOG] solve : 41 ms
noneompGKOBiCGStab:  Solving for Uz, Initial residual = 0, Final residual = 0, No Iterations 0
[OGL LOG] init_host_sparsity_pattern : 285 ms
[OGL LOG] matrix not stored update host matrix
[OGL LOG] update_host_mtx : 146 ms
[OGL LOG] matrix is not yet sorted, sorting host matrix
[OGL LOG] sort_host_mtx_sparsity_pattern : 192 ms
[OGL LOG] sort_host_mtx : 125 ms
[OGL LOG] init_preconditioner : 0 ms
[OGL LOG] solve : 14131 ms
noneompGKOCG:  Solving for p, Initial residual = 1, Final residual = 9.83258e-07, No Iterations 900
time step continuity errors : sum local = 5.89513e-10, global = -5.66913e-21, cumulative = -5.66913e-21
[OGL LOG] init_preconditioner : 0 ms
[OGL LOG] solve : 13748 ms
noneompGKOCG:  Solving for p, Initial residual = 0.783585, Final residual = 9.54407e-07, No Iterations 893
time step continuity errors : sum local = 7.15381e-10, global = -8.87891e-22, cumulative = -6.55702e-21
ExecutionTime = 135.33 s  ClockTime = 47 s

Time = 0.002

Courant Number mean: 0.0571435 max: 0.804774
[OGL LOG] init_host_sparsity_pattern : 266 ms
[OGL LOG] matrix not stored update host matrix
[OGL LOG] update_host_mtx : 138 ms
[OGL LOG] matrix is not yet sorted, sorting host matrix
[OGL LOG] sort_host_mtx_sparsity_pattern : 197 ms
[OGL LOG] sort_host_mtx : 124 ms
[OGL LOG] init_preconditioner : 0 ms
[OGL LOG] solve : 1626 ms
noneompGKOBiCGStab:  Solving for Ux, Initial residual = 0.169075, Final residual = 9.5655e-07, No Iterations 54
[OGL LOG] init_host_sparsity_pattern : 269 ms
[OGL LOG] matrix not stored update host matrix
[OGL LOG] update_host_mtx : 133 ms
[OGL LOG] matrix is not yet sorted, sorting host matrix
[OGL LOG] sort_host_mtx_sparsity_pattern : 192 ms
[OGL LOG] sort_host_mtx : 124 ms
[OGL LOG] init_preconditioner : 0 ms
[OGL LOG] solve : 1673 ms
noneompGKOBiCGStab:  Solving for Uy, Initial residual = 0.620181, Final residual = 9.76257e-07, No Iterations 53
[OGL LOG] init_host_sparsity_pattern : 277 ms
[OGL LOG] matrix not stored update host matrix
[OGL LOG] update_host_mtx : 144 ms
[OGL LOG] matrix is not yet sorted, sorting host matrix
[OGL LOG] sort_host_mtx_sparsity_pattern : 197 ms
[OGL LOG] sort_host_mtx : 124 ms
[OGL LOG] init_preconditioner : 0 ms
[OGL LOG] solve : 1859 ms
noneompGKOBiCGStab:  Solving for Uz, Initial residual = 0.646977, Final residual = 8.41616e-07, No Iterations 57
[OGL LOG] init_preconditioner : 0 ms
[OGL LOG] solve : 13639 ms
noneompGKOCG:  Solving for p, Initial residual = 0.798453, Final residual = 9.83166e-07, No Iterations 884
time step continuity errors : sum local = 9.99785e-10, global = 1.63429e-21, cumulative = -4.92273e-21
[OGL LOG] init_preconditioner : 0 ms
[OGL LOG] solve : 13737 ms
noneompGKOCG:  Solving for p, Initial residual = 0.738607, Final residual = 9.64144e-07, No Iterations 872
time step continuity errors : sum local = 1.00154e-09, global = -3.87828e-21, cumulative = -8.80101e-21
ExecutionTime = 268.68 s  ClockTime = 83 s

Time = 0.003

Courant Number mean: 0.0867389 max: 0.944826
[OGL LOG] init_host_sparsity_pattern : 270 ms
[OGL LOG] matrix not stored update host matrix
[OGL LOG] update_host_mtx : 135 ms
[OGL LOG] matrix is not yet sorted, sorting host matrix
[OGL LOG] sort_host_mtx_sparsity_pattern : 198 ms
[OGL LOG] sort_host_mtx : 125 ms
[OGL LOG] init_preconditioner : 0 ms
[OGL LOG] solve : 1390 ms
noneompGKOBiCGStab:  Solving for Ux, Initial residual = 0.102637, Final residual = 9.50527e-07, No Iterations 46
[OGL LOG] init_host_sparsity_pattern : 266 ms
[OGL LOG] matrix not stored update host matrix
[OGL LOG] update_host_mtx : 126 ms
[OGL LOG] matrix is not yet sorted, sorting host matrix
[OGL LOG] sort_host_mtx_sparsity_pattern : 192 ms
[OGL LOG] sort_host_mtx : 124 ms
[OGL LOG] init_preconditioner : 0 ms
[OGL LOG] solve : 1500 ms
noneompGKOBiCGStab:  Solving for Uy, Initial residual = 0.396947, Final residual = 9.82658e-07, No Iterations 50
[OGL LOG] init_host_sparsity_pattern : 266 ms
[OGL LOG] matrix not stored update host matrix
[OGL LOG] update_host_mtx : 126 ms
[OGL LOG] matrix is not yet sorted, sorting host matrix
[OGL LOG] sort_host_mtx_sparsity_pattern : 191 ms
[OGL LOG] sort_host_mtx : 124 ms
[OGL LOG] init_preconditioner : 0 ms
[OGL LOG] solve : 1601 ms
noneompGKOBiCGStab:  Solving for Uz, Initial residual = 1.00088, Final residual = 8.78621e-07, No Iterations 53
[OGL LOG] init_preconditioner : 0 ms
[OGL LOG] solve : 13436 ms
noneompGKOCG:  Solving for p, Initial residual = 0.832647, Final residual = 9.53662e-07, No Iterations 890
time step continuity errors : sum local = 9.18682e-10, global = -2.50778e-21, cumulative = -1.13088e-20
[OGL LOG] init_preconditioner : 0 ms
[OGL LOG] solve : 13790 ms
noneompGKOCG:  Solving for p, Initial residual = 0.802906, Final residual = 9.84564e-07, No Iterations 888
time step continuity errors : sum local = 9.24737e-10, global = 5.40444e-21, cumulative = -5.90435e-21
ExecutionTime = 398.71 s  ClockTime = 119 s

Time = 0.004

Courant Number mean: 0.0995266 max: 0.926351
[OGL LOG] init_host_sparsity_pattern : 266 ms
[OGL LOG] matrix not stored update host matrix
[OGL LOG] update_host_mtx : 139 ms
[OGL LOG] matrix is not yet sorted, sorting host matrix
[OGL LOG] sort_host_mtx_sparsity_pattern : 198 ms
[OGL LOG] sort_host_mtx : 124 ms
[OGL LOG] init_preconditioner : 0 ms
[OGL LOG] solve : 1396 ms
noneompGKOBiCGStab:  Solving for Ux, Initial residual = 0.0541605, Final residual = 9.74691e-07, No Iterations 46
[OGL LOG] init_host_sparsity_pattern : 271 ms
[OGL LOG] matrix not stored update host matrix
[OGL LOG] update_host_mtx : 131 ms
[OGL LOG] matrix is not yet sorted, sorting host matrix
[OGL LOG] sort_host_mtx_sparsity_pattern : 201 ms
[OGL LOG] sort_host_mtx : 125 ms
[OGL LOG] init_preconditioner : 0 ms
[OGL LOG] solve : 1408 ms
noneompGKOBiCGStab:  Solving for Uy, Initial residual = 0.255021, Final residual = 8.97875e-07, No Iterations 47
[OGL LOG] init_host_sparsity_pattern : 266 ms
[OGL LOG] matrix not stored update host matrix
[OGL LOG] update_host_mtx : 130 ms
[OGL LOG] matrix is not yet sorted, sorting host matrix
[OGL LOG] sort_host_mtx_sparsity_pattern : 192 ms
[OGL LOG] sort_host_mtx : 125 ms
[OGL LOG] init_preconditioner : 0 ms
[OGL LOG] solve : 1495 ms
noneompGKOBiCGStab:  Solving for Uz, Initial residual = 0.873038, Final residual = 9.37362e-07, No Iterations 50
[OGL LOG] init_preconditioner : 0 ms
[OGL LOG] solve : 13955 ms
noneompGKOCG:  Solving for p, Initial residual = 0.750169, Final residual = 9.63343e-07, No Iterations 889
time step continuity errors : sum local = 8.57241e-10, global = 1.81824e-20, cumulative = 1.22781e-20
[OGL LOG] init_preconditioner : 0 ms
[OGL LOG] solve : 13760 ms
noneompGKOCG:  Solving for p, Initial residual = 0.685317, Final residual = 9.61494e-07, No Iterations 887
time step continuity errors : sum local = 8.71781e-10, global = 8.34354e-21, cumulative = 2.06216e-20
ExecutionTime = 529.97 s  ClockTime = 154 s

Time = 0.005

Courant Number mean: 0.112163 max: 0.946349
[OGL LOG] init_host_sparsity_pattern : 266 ms
[OGL LOG] matrix not stored update host matrix
[OGL LOG] update_host_mtx : 134 ms
[OGL LOG] matrix is not yet sorted, sorting host matrix
[OGL LOG] sort_host_mtx_sparsity_pattern : 198 ms
[OGL LOG] sort_host_mtx : 124 ms
[OGL LOG] init_preconditioner : 0 ms
[OGL LOG] solve : 1431 ms
noneompGKOBiCGStab:  Solving for Ux, Initial residual = 0.0411829, Final residual = 9.8172e-07, No Iterations 47
[OGL LOG] init_host_sparsity_pattern : 266 ms
[OGL LOG] matrix not stored update host matrix
[OGL LOG] update_host_mtx : 127 ms
[OGL LOG] matrix is not yet sorted, sorting host matrix
[OGL LOG] sort_host_mtx_sparsity_pattern : 192 ms
[OGL LOG] sort_host_mtx : 125 ms
[OGL LOG] init_preconditioner : 0 ms
[OGL LOG] solve : 1463 ms
noneompGKOBiCGStab:  Solving for Uy, Initial residual = 0.131862, Final residual = 4.65024e-07, No Iterations 48
[OGL LOG] init_host_sparsity_pattern : 280 ms
[OGL LOG] matrix not stored update host matrix
[OGL LOG] update_host_mtx : 145 ms
[OGL LOG] matrix is not yet sorted, sorting host matrix
[OGL LOG] sort_host_mtx_sparsity_pattern : 201 ms
[OGL LOG] sort_host_mtx : 128 ms
[OGL LOG] init_preconditioner : 0 ms
[OGL LOG] solve : 1709 ms
noneompGKOBiCGStab:  Solving for Uz, Initial residual = 0.871908, Final residual = 8.17545e-07, No Iterations 53
[OGL LOG] init_preconditioner : 0 ms
[OGL LOG] solve : 14361 ms
noneompGKOCG:  Solving for p, Initial residual = 0.760003, Final residual = 9.50902e-07, No Iterations 896
time step continuity errors : sum local = 7.18995e-10, global = 4.69728e-21, cumulative = 2.53189e-20
[OGL LOG] init_preconditioner : 0 ms
[OGL LOG] solve : 13437 ms
noneompGKOCG:  Solving for p, Initial residual = 0.713348, Final residual = 9.77782e-07, No Iterations 894
time step continuity errors : sum local = 7.2752e-10, global = -4.75257e-21, cumulative = 2.05663e-20
ExecutionTime = 662.62 s  ClockTime = 190 s

End

