/*---------------------------------------------------------------------------*\
  =========                 |
  \\      /  F ield         | OpenFOAM: The Open Source CFD Toolbox
   \\    /   O peration     | Website:  https://openfoam.org
    \\  /    A nd           | Version:  8
     \\/     M anipulation  |
\*---------------------------------------------------------------------------*/
Build  : 8-13d66902f78c
Exec   : icoFoam
Date   : Jul 04 2021
Time   : 09:57:27
Host   : "uc2n419.localdomain"
PID    : 2895818
I/O    : uncollated
Case   : /pfs/data5/home/kit/scc/nq7776/code/OGL_DATA/lidDrivenCavity3D/v0.1-136-g40fef35/f584ccac99/IntelXeonGold6230CPU@2.10GHz/Test_2021-07-04-07:33:43/100/p-CG-GKO-BJ-omp/lidDrivenCavity3D
nProcs : 1
sigFpe : Enabling floating point exception trapping (FOAM_SIGFPE).
fileModificationChecking : Monitoring run-time modified files using timeStampMaster (fileModificationSkew 10)
allowSystemOperations : Allowing user-supplied system call operations

// * * * * * * * * * * * * * * * * * * * * * * * * * * * * * * * * * * * * * //
Create time

Create mesh for time = 0

Reading transportProperties

Reading field p

Reading field U

Reading/calculating face flux field phi


Starting time loop

Time = 0.001

Courant Number mean: 0 max: 0
nonePBiCGStab:  Solving for Ux, Initial residual = 1, Final residual = 0.0818707, No Iterations 5
nonePBiCGStab:  Solving for Uy, Initial residual = 0, Final residual = 0, No Iterations 0
nonePBiCGStab:  Solving for Uz, Initial residual = 0, Final residual = 0, No Iterations 0
[OGL LOG] init_host_sparsity_pattern : 285 ms
[OGL LOG] matrix not stored update host matrix
[OGL LOG] update_host_mtx : 147 ms
[OGL LOG] matrix is not yet sorted, compute sorting idxs
[OGL LOG] compute_sort : 9036 ms
[OGL LOG] matrix is not yet sorted, sorting host matrix
[OGL LOG] sort_host_mtx_sparsity_pattern : 193 ms
[OGL LOG] sort_host_mtx : 124 ms
[OGL LOG] init_preconditioner : 145 ms
 CG create  precond 
[OGL LOG] solve : 41906 ms
BJompGKOCG:  Solving for p, Initial residual = 1, Final residual = 9.84968e-07, No Iterations 831
time step continuity errors : sum local = 3.73053e-10, global = -2.05257e-20, cumulative = -2.05257e-20
[OGL LOG] init_preconditioner : 0 ms
 CG create  precond 
[OGL LOG] solve : 41029 ms
BJompGKOCG:  Solving for p, Initial residual = 0.707485, Final residual = 9.90533e-07, No Iterations 821
time step continuity errors : sum local = 5.19593e-10, global = 3.91666e-21, cumulative = -1.66091e-20
ExecutionTime = 180.09 s  ClockTime = 98 s

Time = 0.002

Courant Number mean: 0.0422155 max: 0.791725
nonePBiCGStab:  Solving for Ux, Initial residual = 0.137867, Final residual = 0.0400077, No Iterations 5
nonePBiCGStab:  Solving for Uy, Initial residual = 0.451746, Final residual = 0.130142, No Iterations 5
nonePBiCGStab:  Solving for Uz, Initial residual = 0.987526, Final residual = 0.323465, No Iterations 5
[OGL LOG] init_preconditioner : 0 ms
 CG create  precond 
[OGL LOG] solve : 40351 ms
BJompGKOCG:  Solving for p, Initial residual = 0.789699, Final residual = 9.8935e-07, No Iterations 811
time step continuity errors : sum local = 9.01507e-10, global = 3.61742e-21, cumulative = -1.29917e-20
[OGL LOG] init_preconditioner : 0 ms
 CG create  precond 
[OGL LOG] solve : 39557 ms
BJompGKOCG:  Solving for p, Initial residual = 0.713525, Final residual = 9.94834e-07, No Iterations 795
time step continuity errors : sum local = 9.24109e-10, global = 1.06462e-21, cumulative = -1.1927e-20
ExecutionTime = 340.87 s  ClockTime = 179 s

Time = 0.003

Courant Number mean: 0.0674676 max: 0.899981
nonePBiCGStab:  Solving for Ux, Initial residual = 0.0610629, Final residual = 0.0153012, No Iterations 5
nonePBiCGStab:  Solving for Uy, Initial residual = 0.208727, Final residual = 0.0593992, No Iterations 5
nonePBiCGStab:  Solving for Uz, Initial residual = 0.712489, Final residual = 0.213726, No Iterations 5
[OGL LOG] init_preconditioner : 0 ms
 CG create  precond 
[OGL LOG] solve : 37389 ms
BJompGKOCG:  Solving for p, Initial residual = 0.797066, Final residual = 9.63643e-07, No Iterations 755
time step continuity errors : sum local = 6.98173e-10, global = 7.30455e-21, cumulative = -4.6225e-21
[OGL LOG] init_preconditioner : 0 ms
 CG create  precond 
[OGL LOG] solve : 37461 ms
BJompGKOCG:  Solving for p, Initial residual = 0.724869, Final residual = 9.98972e-07, No Iterations 753
time step continuity errors : sum local = 7.05935e-10, global = 1.58614e-20, cumulative = 1.12389e-20
ExecutionTime = 491.5 s  ClockTime = 255 s

Time = 0.004

Courant Number mean: 0.0814739 max: 0.91289
nonePBiCGStab:  Solving for Ux, Initial residual = 0.0387865, Final residual = 0.0107239, No Iterations 5
nonePBiCGStab:  Solving for Uy, Initial residual = 0.148965, Final residual = 0.0502054, No Iterations 5
nonePBiCGStab:  Solving for Uz, Initial residual = 0.492867, Final residual = 0.135097, No Iterations 5
[OGL LOG] init_preconditioner : 0 ms
 CG create  precond 
[OGL LOG] solve : 36564 ms
BJompGKOCG:  Solving for p, Initial residual = 0.719472, Final residual = 9.9995e-07, No Iterations 739
time step continuity errors : sum local = 7.43937e-10, global = -2.99802e-22, cumulative = 1.09391e-20
[OGL LOG] init_preconditioner : 0 ms
 CG create  precond 
[OGL LOG] solve : 36674 ms
BJompGKOCG:  Solving for p, Initial residual = 0.61984, Final residual = 9.65233e-07, No Iterations 737
time step continuity errors : sum local = 7.3463e-10, global = -7.04028e-22, cumulative = 1.02351e-20
ExecutionTime = 638.89 s  ClockTime = 330 s

Time = 0.005

Courant Number mean: 0.092279 max: 0.925557
nonePBiCGStab:  Solving for Ux, Initial residual = 0.0298127, Final residual = 0.00896084, No Iterations 5
nonePBiCGStab:  Solving for Uy, Initial residual = 0.0986419, Final residual = 0.0358093, No Iterations 5
nonePBiCGStab:  Solving for Uz, Initial residual = 0.304831, Final residual = 0.0787288, No Iterations 5
[OGL LOG] init_preconditioner : 0 ms
 CG create  precond 
[OGL LOG] solve : 36097 ms
BJompGKOCG:  Solving for p, Initial residual = 0.757141, Final residual = 9.7843e-07, No Iterations 725
time step continuity errors : sum local = 6.68408e-10, global = -6.04012e-21, cumulative = 4.19493e-21
[OGL LOG] init_preconditioner : 0 ms
 CG create  precond 
[OGL LOG] solve : 35881 ms
BJompGKOCG:  Solving for p, Initial residual = 0.670842, Final residual = 9.90944e-07, No Iterations 724
time step continuity errors : sum local = 6.69018e-10, global = -7.44162e-21, cumulative = -3.2467e-21
ExecutionTime = 783.78 s  ClockTime = 403 s

End

