/*---------------------------------------------------------------------------*\
  =========                 |
  \\      /  F ield         | OpenFOAM: The Open Source CFD Toolbox
   \\    /   O peration     | Website:  https://openfoam.org
    \\  /    A nd           | Version:  8
     \\/     M anipulation  |
\*---------------------------------------------------------------------------*/
Build  : 8-13d66902f78c
Exec   : icoFoam
Date   : Jul 04 2021
Time   : 10:50:32
Host   : "uc2n415.localdomain"
PID    : 2615755
I/O    : uncollated
Case   : /pfs/data5/home/kit/scc/nq7776/code/OGL_DATA/lidDrivenCavity3D/v0.1-136-g40fef35/f584ccac99/IntelXeonGold6230CPU@2.10GHz/Test_2021-07-04-08:36:30/100/p-U-BiCGStab-GKO-none-omp/lidDrivenCavity3D
nProcs : 1
sigFpe : Enabling floating point exception trapping (FOAM_SIGFPE).
fileModificationChecking : Monitoring run-time modified files using timeStampMaster (fileModificationSkew 10)
allowSystemOperations : Allowing user-supplied system call operations

// * * * * * * * * * * * * * * * * * * * * * * * * * * * * * * * * * * * * * //
Create time

Create mesh for time = 0

Reading transportProperties

Reading field p

Reading field U

Reading/calculating face flux field phi


Starting time loop

Time = 0.001

Courant Number mean: 0 max: 0
[OGL LOG] init_host_sparsity_pattern : 289 ms
[OGL LOG] matrix not stored update host matrix
[OGL LOG] update_host_mtx : 153 ms
[OGL LOG] matrix is not yet sorted, compute sorting idxs
[OGL LOG] compute_sort : 9090 ms
[OGL LOG] matrix is not yet sorted, sorting host matrix
[OGL LOG] sort_host_mtx_sparsity_pattern : 186 ms
[OGL LOG] sort_host_mtx : 125 ms
[OGL LOG] init_preconditioner : 0 ms
[OGL LOG] solve : 2531 ms
noneompGKOBiCGStab:  Solving for Ux, Initial residual = 1, Final residual = 9.90061e-07, No Iterations 57
[OGL LOG] init_host_sparsity_pattern : 284 ms
[OGL LOG] matrix not stored update host matrix
[OGL LOG] update_host_mtx : 155 ms
[OGL LOG] matrix is not yet sorted, sorting host matrix
[OGL LOG] sort_host_mtx_sparsity_pattern : 218 ms
[OGL LOG] sort_host_mtx : 135 ms
[OGL LOG] init_preconditioner : 0 ms
[OGL LOG] solve : 67 ms
noneompGKOBiCGStab:  Solving for Uy, Initial residual = 0, Final residual = 0, No Iterations 0
[OGL LOG] init_host_sparsity_pattern : 274 ms
[OGL LOG] matrix not stored update host matrix
[OGL LOG] update_host_mtx : 146 ms
[OGL LOG] matrix is not yet sorted, sorting host matrix
[OGL LOG] sort_host_mtx_sparsity_pattern : 197 ms
[OGL LOG] sort_host_mtx : 125 ms
[OGL LOG] init_preconditioner : 0 ms
[OGL LOG] solve : 62 ms
noneompGKOBiCGStab:  Solving for Uz, Initial residual = 0, Final residual = 0, No Iterations 0
[OGL LOG] init_host_sparsity_pattern : 286 ms
[OGL LOG] matrix not stored update host matrix
[OGL LOG] update_host_mtx : 147 ms
[OGL LOG] matrix is not yet sorted, sorting host matrix
[OGL LOG] sort_host_mtx_sparsity_pattern : 192 ms
[OGL LOG] sort_host_mtx : 125 ms
[OGL LOG] init_preconditioner : 0 ms
[OGL LOG] solve : 30919 ms
noneompGKOBiCGStab:  Solving for p, Initial residual = 1, Final residual = 1.66322e-07, No Iterations 720
time step continuity errors : sum local = 5.3162e-08, global = -5.20361e-21, cumulative = -5.20361e-21
[OGL LOG] init_preconditioner : 0 ms
[OGL LOG] solve : 30173 ms
noneompGKOBiCGStab:  Solving for p, Initial residual = 0.783619, Final residual = 9.73437e-07, No Iterations 703
time step continuity errors : sum local = 2.63335e-09, global = -1.16586e-21, cumulative = -6.36947e-21
ExecutionTime = 144.34 s  ClockTime = 82 s

Time = 0.002

Courant Number mean: 0.0571435 max: 0.804774
[OGL LOG] init_host_sparsity_pattern : 269 ms
[OGL LOG] matrix not stored update host matrix
[OGL LOG] update_host_mtx : 132 ms
[OGL LOG] matrix is not yet sorted, sorting host matrix
[OGL LOG] sort_host_mtx_sparsity_pattern : 196 ms
[OGL LOG] sort_host_mtx : 125 ms
[OGL LOG] init_preconditioner : 0 ms
[OGL LOG] solve : 2151 ms
noneompGKOBiCGStab:  Solving for Ux, Initial residual = 0.1691, Final residual = 8.16399e-07, No Iterations 49
[OGL LOG] init_host_sparsity_pattern : 269 ms
[OGL LOG] matrix not stored update host matrix
[OGL LOG] update_host_mtx : 128 ms
[OGL LOG] matrix is not yet sorted, sorting host matrix
[OGL LOG] sort_host_mtx_sparsity_pattern : 193 ms
[OGL LOG] sort_host_mtx : 125 ms
[OGL LOG] init_preconditioner : 0 ms
[OGL LOG] solve : 2240 ms
noneompGKOBiCGStab:  Solving for Uy, Initial residual = 0.620153, Final residual = 9.81663e-07, No Iterations 51
[OGL LOG] init_host_sparsity_pattern : 269 ms
[OGL LOG] matrix not stored update host matrix
[OGL LOG] update_host_mtx : 128 ms
[OGL LOG] matrix is not yet sorted, sorting host matrix
[OGL LOG] sort_host_mtx_sparsity_pattern : 194 ms
[OGL LOG] sort_host_mtx : 125 ms
[OGL LOG] init_preconditioner : 0 ms
[OGL LOG] solve : 2258 ms
noneompGKOBiCGStab:  Solving for Uz, Initial residual = 0.647881, Final residual = 8.47348e-07, No Iterations 51
[OGL LOG] init_preconditioner : 0 ms
[OGL LOG] solve : 31215 ms
noneompGKOBiCGStab:  Solving for p, Initial residual = 0.798458, Final residual = 2.72777e-07, No Iterations 732
time step continuity errors : sum local = 1.10385e-08, global = 1.37889e-20, cumulative = 7.41946e-21
[OGL LOG] init_preconditioner : 0 ms
[OGL LOG] solve : 30163 ms
noneompGKOBiCGStab:  Solving for p, Initial residual = 0.738574, Final residual = 5.32723e-07, No Iterations 708
time step continuity errors : sum local = 4.21742e-07, global = 1.94676e-20, cumulative = 2.6887e-20
ExecutionTime = 283.54 s  ClockTime = 154 s

Time = 0.003

Courant Number mean: 0.0867402 max: 0.944829
[OGL LOG] init_host_sparsity_pattern : 270 ms
[OGL LOG] matrix not stored update host matrix
[OGL LOG] update_host_mtx : 135 ms
[OGL LOG] matrix is not yet sorted, sorting host matrix
[OGL LOG] sort_host_mtx_sparsity_pattern : 199 ms
[OGL LOG] sort_host_mtx : 125 ms
[OGL LOG] init_preconditioner : 0 ms
[OGL LOG] solve : 2230 ms
noneompGKOBiCGStab:  Solving for Ux, Initial residual = 0.102873, Final residual = 9.61817e-07, No Iterations 51
[OGL LOG] init_host_sparsity_pattern : 268 ms
[OGL LOG] matrix not stored update host matrix
[OGL LOG] update_host_mtx : 128 ms
[OGL LOG] matrix is not yet sorted, sorting host matrix
[OGL LOG] sort_host_mtx_sparsity_pattern : 193 ms
[OGL LOG] sort_host_mtx : 125 ms
[OGL LOG] init_preconditioner : 0 ms
[OGL LOG] solve : 2237 ms
noneompGKOBiCGStab:  Solving for Uy, Initial residual = 0.396243, Final residual = 7.17001e-07, No Iterations 51
[OGL LOG] init_host_sparsity_pattern : 269 ms
[OGL LOG] matrix not stored update host matrix
[OGL LOG] update_host_mtx : 127 ms
[OGL LOG] matrix is not yet sorted, sorting host matrix
[OGL LOG] sort_host_mtx_sparsity_pattern : 194 ms
[OGL LOG] sort_host_mtx : 125 ms
[OGL LOG] init_preconditioner : 0 ms
[OGL LOG] solve : 2459 ms
noneompGKOBiCGStab:  Solving for Uz, Initial residual = 0.998136, Final residual = 8.09424e-07, No Iterations 55
[OGL LOG] init_preconditioner : 0 ms
[OGL LOG] solve : 32487 ms
noneompGKOBiCGStab:  Solving for p, Initial residual = 0.832625, Final residual = 9.91613e-07, No Iterations 749
time step continuity errors : sum local = 4.98359e-08, global = 9.91011e-21, cumulative = 3.67971e-20
[OGL LOG] init_preconditioner : 0 ms
[OGL LOG] solve : 29604 ms
noneompGKOBiCGStab:  Solving for p, Initial residual = 0.802432, Final residual = 3.62418e-07, No Iterations 682
time step continuity errors : sum local = 6.42573e-08, global = -6.22929e-21, cumulative = 3.05678e-20
ExecutionTime = 424.64 s  ClockTime = 226 s

Time = 0.004

Courant Number mean: 0.0995355 max: 0.926357
[OGL LOG] init_host_sparsity_pattern : 269 ms
[OGL LOG] matrix not stored update host matrix
[OGL LOG] update_host_mtx : 130 ms
[OGL LOG] matrix is not yet sorted, sorting host matrix
[OGL LOG] sort_host_mtx_sparsity_pattern : 199 ms
[OGL LOG] sort_host_mtx : 125 ms
[OGL LOG] init_preconditioner : 0 ms
[OGL LOG] solve : 2055 ms
noneompGKOBiCGStab:  Solving for Ux, Initial residual = 0.0544227, Final residual = 8.2465e-07, No Iterations 47
[OGL LOG] init_host_sparsity_pattern : 269 ms
[OGL LOG] matrix not stored update host matrix
[OGL LOG] update_host_mtx : 127 ms
[OGL LOG] matrix is not yet sorted, sorting host matrix
[OGL LOG] sort_host_mtx_sparsity_pattern : 194 ms
[OGL LOG] sort_host_mtx : 125 ms
[OGL LOG] init_preconditioner : 0 ms
[OGL LOG] solve : 2118 ms
noneompGKOBiCGStab:  Solving for Uy, Initial residual = 0.25528, Final residual = 7.71285e-07, No Iterations 48
[OGL LOG] init_host_sparsity_pattern : 268 ms
[OGL LOG] matrix not stored update host matrix
[OGL LOG] update_host_mtx : 127 ms
[OGL LOG] matrix is not yet sorted, sorting host matrix
[OGL LOG] sort_host_mtx_sparsity_pattern : 194 ms
[OGL LOG] sort_host_mtx : 125 ms
[OGL LOG] init_preconditioner : 0 ms
[OGL LOG] solve : 2655 ms
noneompGKOBiCGStab:  Solving for Uz, Initial residual = 0.883972, Final residual = 2.92617e-07, No Iterations 61
[OGL LOG] init_preconditioner : 0 ms
[OGL LOG] solve : 31732 ms
noneompGKOBiCGStab:  Solving for p, Initial residual = 0.750505, Final residual = 4.61785e-07, No Iterations 735
time step continuity errors : sum local = 1.29201e-08, global = 6.8709e-21, cumulative = 3.74387e-20
[OGL LOG] init_preconditioner : 0 ms
[OGL LOG] solve : 30003 ms
noneompGKOBiCGStab:  Solving for p, Initial residual = 0.685251, Final residual = 7.23271e-07, No Iterations 711
time step continuity errors : sum local = 1.74954e-08, global = 1.30171e-21, cumulative = 3.87405e-20
ExecutionTime = 564.55 s  ClockTime = 298 s

Time = 0.005

Courant Number mean: 0.11217 max: 0.946361
[OGL LOG] init_host_sparsity_pattern : 268 ms
[OGL LOG] matrix not stored update host matrix
[OGL LOG] update_host_mtx : 127 ms
[OGL LOG] matrix is not yet sorted, sorting host matrix
[OGL LOG] sort_host_mtx_sparsity_pattern : 199 ms
[OGL LOG] sort_host_mtx : 125 ms
[OGL LOG] init_preconditioner : 0 ms
[OGL LOG] solve : 2119 ms
noneompGKOBiCGStab:  Solving for Ux, Initial residual = 0.0412066, Final residual = 8.72706e-07, No Iterations 48
[OGL LOG] init_host_sparsity_pattern : 269 ms
[OGL LOG] matrix not stored update host matrix
[OGL LOG] update_host_mtx : 126 ms
[OGL LOG] matrix is not yet sorted, sorting host matrix
[OGL LOG] sort_host_mtx_sparsity_pattern : 193 ms
[OGL LOG] sort_host_mtx : 125 ms
[OGL LOG] init_preconditioner : 0 ms
[OGL LOG] solve : 2313 ms
noneompGKOBiCGStab:  Solving for Uy, Initial residual = 0.132857, Final residual = 9.95364e-07, No Iterations 53
[OGL LOG] init_host_sparsity_pattern : 268 ms
[OGL LOG] matrix not stored update host matrix
[OGL LOG] update_host_mtx : 127 ms
[OGL LOG] matrix is not yet sorted, sorting host matrix
[OGL LOG] sort_host_mtx_sparsity_pattern : 193 ms
[OGL LOG] sort_host_mtx : 125 ms
[OGL LOG] init_preconditioner : 0 ms
[OGL LOG] solve : 2701 ms
noneompGKOBiCGStab:  Solving for Uz, Initial residual = 0.880611, Final residual = 7.65299e-07, No Iterations 62
[OGL LOG] init_preconditioner : 0 ms
[OGL LOG] solve : 29934 ms
noneompGKOBiCGStab:  Solving for p, Initial residual = 0.760364, Final residual = 9.49269e-07, No Iterations 705
time step continuity errors : sum local = 7.6104e-09, global = -8.80551e-21, cumulative = 2.99349e-20
[OGL LOG] init_preconditioner : 0 ms
[OGL LOG] solve : 29265 ms
noneompGKOBiCGStab:  Solving for p, Initial residual = 0.713333, Final residual = 9.16359e-07, No Iterations 695
time step continuity errors : sum local = 6.45518e-08, global = -8.12755e-22, cumulative = 2.91222e-20
ExecutionTime = 700.3 s  ClockTime = 368 s

End

