/*---------------------------------------------------------------------------*\
  =========                 |
  \\      /  F ield         | OpenFOAM: The Open Source CFD Toolbox
   \\    /   O peration     | Website:  https://openfoam.org
    \\  /    A nd           | Version:  8
     \\/     M anipulation  |
\*---------------------------------------------------------------------------*/
Build  : 8-13d66902f78c
Exec   : icoFoam
Date   : Jul 12 2021
Time   : 12:54:34
Host   : "uc2n438.localdomain"
PID    : 4127941
I/O    : uncollated
Case   : /pfs/data5/home/kit/scc/nq7776/code/OGL_DATA/lidDrivenCavity3D/v0.1-136-g40fef35/f584ccac99/IntelXeonGold6230CPU@2.10GHz/Test_2021-07-12-12:41:27/50/p-BiCGStab-GKO-BJ-omp/lidDrivenCavity3D
nProcs : 1
sigFpe : Enabling floating point exception trapping (FOAM_SIGFPE).
fileModificationChecking : Monitoring run-time modified files using timeStampMaster (fileModificationSkew 10)
allowSystemOperations : Allowing user-supplied system call operations

// * * * * * * * * * * * * * * * * * * * * * * * * * * * * * * * * * * * * * //
Create time

Create mesh for time = 0

Reading transportProperties

Reading field p

Reading field U

Reading/calculating face flux field phi


Starting time loop

Time = 0.002

Courant Number mean: 0 max: 0
nonePBiCGStab:  Solving for Ux, Initial residual = 1, Final residual = 0.0592055, No Iterations 5
nonePBiCGStab:  Solving for Uy, Initial residual = 0, Final residual = 0, No Iterations 0
nonePBiCGStab:  Solving for Uz, Initial residual = 0, Final residual = 0, No Iterations 0
[OGL LOG] init_host_sparsity_pattern : 35 ms
[OGL LOG] matrix not stored update host matrix
[OGL LOG] update_host_mtx : 18 ms
[OGL LOG] matrix is not yet sorted, compute sorting idxs
[OGL LOG] compute_sort : 984 ms
[OGL LOG] matrix is not yet sorted, sorting host matrix
[OGL LOG] sort_host_mtx_sparsity_pattern : 23 ms
[OGL LOG] sort_host_mtx : 15 ms
[OGL LOG] init_preconditioner : 18 ms
[OGL LOG] solve : 3423 ms
BJompGKOBiCGStab:  Solving for p, Initial residual = 1, Final residual = 9.53558e-07, No Iterations 281
time step continuity errors : sum local = 2.92948e-09, global = -7.52993e-21, cumulative = -7.52993e-21
[OGL LOG] init_preconditioner : 0 ms
[OGL LOG] solve : 3292 ms
BJompGKOBiCGStab:  Solving for p, Initial residual = 0.676727, Final residual = 9.28234e-07, No Iterations 269
time step continuity errors : sum local = 8.75379e-09, global = 2.10244e-20, cumulative = 1.34945e-20
ExecutionTime = 15.16 s  ClockTime = 9 s

Time = 0.004

Courant Number mean: 0.0636233 max: 0.723792
nonePBiCGStab:  Solving for Ux, Initial residual = 0.144135, Final residual = 0.02192, No Iterations 5
nonePBiCGStab:  Solving for Uy, Initial residual = 0.363931, Final residual = 0.0522818, No Iterations 5
nonePBiCGStab:  Solving for Uz, Initial residual = 0.973599, Final residual = 0.158926, No Iterations 5
[OGL LOG] init_preconditioner : 0 ms
[OGL LOG] solve : 3525 ms
BJompGKOBiCGStab:  Solving for p, Initial residual = 0.668514, Final residual = 9.33355e-07, No Iterations 286
time step continuity errors : sum local = 4.96662e-09, global = -1.32922e-20, cumulative = 2.02272e-22
[OGL LOG] init_preconditioner : 0 ms
[OGL LOG] solve : 3285 ms
BJompGKOBiCGStab:  Solving for p, Initial residual = 0.584667, Final residual = 7.73438e-07, No Iterations 269
time step continuity errors : sum local = 5.40475e-08, global = -4.29905e-20, cumulative = -4.27882e-20
ExecutionTime = 28.9 s  ClockTime = 16 s

Time = 0.006

Courant Number mean: 0.0972275 max: 0.862515
nonePBiCGStab:  Solving for Ux, Initial residual = 0.05242, Final residual = 0.00685582, No Iterations 5
nonePBiCGStab:  Solving for Uy, Initial residual = 0.127041, Final residual = 0.0201167, No Iterations 5
nonePBiCGStab:  Solving for Uz, Initial residual = 0.36701, Final residual = 0.0531869, No Iterations 5
[OGL LOG] init_preconditioner : 0 ms
[OGL LOG] solve : 3142 ms
BJompGKOBiCGStab:  Solving for p, Initial residual = 0.594542, Final residual = 9.11886e-07, No Iterations 258
time step continuity errors : sum local = 2.62944e-09, global = -3.80376e-20, cumulative = -8.08258e-20
[OGL LOG] init_preconditioner : 0 ms
[OGL LOG] solve : 3251 ms
BJompGKOBiCGStab:  Solving for p, Initial residual = 0.52869, Final residual = 9.01624e-07, No Iterations 267
time step continuity errors : sum local = 1.95948e-09, global = -1.66218e-20, cumulative = -9.74477e-20
ExecutionTime = 41.79 s  ClockTime = 22 s

Time = 0.008

Courant Number mean: 0.113794 max: 0.882482
nonePBiCGStab:  Solving for Ux, Initial residual = 0.028959, Final residual = 0.00344484, No Iterations 5
nonePBiCGStab:  Solving for Uy, Initial residual = 0.084423, Final residual = 0.0109196, No Iterations 5
nonePBiCGStab:  Solving for Uz, Initial residual = 0.229204, Final residual = 0.0298044, No Iterations 5
[OGL LOG] init_preconditioner : 0 ms
[OGL LOG] solve : 3180 ms
BJompGKOBiCGStab:  Solving for p, Initial residual = 0.411428, Final residual = 8.38603e-07, No Iterations 262
time step continuity errors : sum local = 1.47083e-09, global = 4.17646e-20, cumulative = -5.56831e-20
[OGL LOG] init_preconditioner : 0 ms
[OGL LOG] solve : 3136 ms
BJompGKOBiCGStab:  Solving for p, Initial residual = 0.342681, Final residual = 7.46721e-07, No Iterations 257
time step continuity errors : sum local = 4.30432e-09, global = -4.18118e-21, cumulative = -5.98642e-20
ExecutionTime = 54.56 s  ClockTime = 29 s

Time = 0.01

Courant Number mean: 0.127339 max: 0.898877
nonePBiCGStab:  Solving for Ux, Initial residual = 0.0202774, Final residual = 0.0020849, No Iterations 5
nonePBiCGStab:  Solving for Uy, Initial residual = 0.0505569, Final residual = 0.00623591, No Iterations 5
nonePBiCGStab:  Solving for Uz, Initial residual = 0.112923, Final residual = 0.0180737, No Iterations 5
[OGL LOG] init_preconditioner : 0 ms
[OGL LOG] solve : 3093 ms
BJompGKOBiCGStab:  Solving for p, Initial residual = 0.354045, Final residual = 8.5423e-07, No Iterations 256
time step continuity errors : sum local = 1.35376e-09, global = 2.42828e-21, cumulative = -5.7436e-20
[OGL LOG] init_preconditioner : 0 ms
[OGL LOG] solve : 3039 ms
BJompGKOBiCGStab:  Solving for p, Initial residual = 0.302211, Final residual = 7.0797e-07, No Iterations 249
time step continuity errors : sum local = 1.73347e-08, global = 8.38518e-21, cumulative = -4.90508e-20
ExecutionTime = 66.92 s  ClockTime = 35 s

End

