/*---------------------------------------------------------------------------*\
  =========                 |
  \\      /  F ield         | OpenFOAM: The Open Source CFD Toolbox
   \\    /   O peration     | Website:  https://openfoam.org
    \\  /    A nd           | Version:  8
     \\/     M anipulation  |
\*---------------------------------------------------------------------------*/
Build  : 8-13d66902f78c
Exec   : icoFoam
Date   : Jul 12 2021
Time   : 13:58:29
Host   : "uc2n438.localdomain"
PID    : 4132744
I/O    : uncollated
Case   : /pfs/data5/home/kit/scc/nq7776/code/OGL_DATA/lidDrivenCavity3D/v0.1-136-g40fef35/f584ccac99/IntelXeonGold6230CPU@2.10GHz/Test_2021-07-12-12:41:27/75/p-BiCGStab-GKO-BJ-omp/lidDrivenCavity3D
nProcs : 1
sigFpe : Enabling floating point exception trapping (FOAM_SIGFPE).
fileModificationChecking : Monitoring run-time modified files using timeStampMaster (fileModificationSkew 10)
allowSystemOperations : Allowing user-supplied system call operations

// * * * * * * * * * * * * * * * * * * * * * * * * * * * * * * * * * * * * * //
Create time

Create mesh for time = 0

Reading transportProperties

Reading field p

Reading field U

Reading/calculating face flux field phi


Starting time loop

Time = 0.00133333

Courant Number mean: 0 max: 0
nonePBiCGStab:  Solving for Ux, Initial residual = 1, Final residual = 0.0730231, No Iterations 5
nonePBiCGStab:  Solving for Uy, Initial residual = 0, Final residual = 0, No Iterations 0
nonePBiCGStab:  Solving for Uz, Initial residual = 0, Final residual = 0, No Iterations 0
[OGL LOG] init_host_sparsity_pattern : 123 ms
[OGL LOG] matrix not stored update host matrix
[OGL LOG] update_host_mtx : 62 ms
[OGL LOG] matrix is not yet sorted, compute sorting idxs
[OGL LOG] compute_sort : 3622 ms
[OGL LOG] matrix is not yet sorted, sorting host matrix
[OGL LOG] sort_host_mtx_sparsity_pattern : 80 ms
[OGL LOG] sort_host_mtx : 51 ms
[OGL LOG] init_preconditioner : 19 ms
[OGL LOG] solve : 6900 ms
BJompGKOBiCGStab:  Solving for p, Initial residual = 1, Final residual = 4.64271e-07, No Iterations 415
time step continuity errors : sum local = 3.75427e-09, global = 5.36811e-21, cumulative = 5.36811e-21
[OGL LOG] init_preconditioner : 0 ms
[OGL LOG] solve : 6688 ms
BJompGKOBiCGStab:  Solving for p, Initial residual = 0.697113, Final residual = 9.18802e-07, No Iterations 412
time step continuity errors : sum local = 1.25023e-07, global = -1.77252e-21, cumulative = 3.59559e-21
ExecutionTime = 114.53 s  ClockTime = 19 s

Time = 0.00266667

Courant Number mean: 0.0508076 max: 0.767232
nonePBiCGStab:  Solving for Ux, Initial residual = 0.140596, Final residual = 0.0324551, No Iterations 5
nonePBiCGStab:  Solving for Uy, Initial residual = 0.41364, Final residual = 0.0923365, No Iterations 5
nonePBiCGStab:  Solving for Uz, Initial residual = 0.982687, Final residual = 0.24989, No Iterations 5
[OGL LOG] init_preconditioner : 0 ms
[OGL LOG] solve : 6525 ms
BJompGKOBiCGStab:  Solving for p, Initial residual = 0.746873, Final residual = 9.50889e-07, No Iterations 389
time step continuity errors : sum local = 9.90881e-09, global = 3.99306e-21, cumulative = 7.58865e-21
[OGL LOG] init_preconditioner : 0 ms
[OGL LOG] solve : 6422 ms
BJompGKOBiCGStab:  Solving for p, Initial residual = 0.668097, Final residual = 9.54452e-07, No Iterations 384
time step continuity errors : sum local = 1.38307e-07, global = 4.38405e-21, cumulative = 1.19727e-20
ExecutionTime = 218.41 s  ClockTime = 33 s

Time = 0.004

Courant Number mean: 0.0796129 max: 0.886021
nonePBiCGStab:  Solving for Ux, Initial residual = 0.0584457, Final residual = 0.0111467, No Iterations 5
nonePBiCGStab:  Solving for Uy, Initial residual = 0.171977, Final residual = 0.0398963, No Iterations 5
nonePBiCGStab:  Solving for Uz, Initial residual = 0.60997, Final residual = 0.141897, No Iterations 5
[OGL LOG] init_preconditioner : 0 ms
[OGL LOG] solve : 6914 ms
BJompGKOBiCGStab:  Solving for p, Initial residual = 0.730346, Final residual = 7.61066e-07, No Iterations 410
time step continuity errors : sum local = 9.34405e-10, global = 1.21634e-20, cumulative = 2.41361e-20
[OGL LOG] init_preconditioner : 0 ms
[OGL LOG] solve : 7309 ms
BJompGKOBiCGStab:  Solving for p, Initial residual = 0.66091, Final residual = 9.38318e-07, No Iterations 433
time step continuity errors : sum local = 1.99048e-09, global = 9.53514e-21, cumulative = 3.36712e-20
ExecutionTime = 332.48 s  ClockTime = 47 s

Time = 0.00533333

Courant Number mean: 0.0948098 max: 0.902547
nonePBiCGStab:  Solving for Ux, Initial residual = 0.034593, Final residual = 0.0068298, No Iterations 5
nonePBiCGStab:  Solving for Uy, Initial residual = 0.119555, Final residual = 0.0298216, No Iterations 5
nonePBiCGStab:  Solving for Uz, Initial residual = 0.386091, Final residual = 0.0810445, No Iterations 5
[OGL LOG] init_preconditioner : 0 ms
[OGL LOG] solve : 6946 ms
BJompGKOBiCGStab:  Solving for p, Initial residual = 0.60981, Final residual = 7.56856e-07, No Iterations 400
time step continuity errors : sum local = 7.66065e-10, global = -1.81634e-20, cumulative = 1.55078e-20
[OGL LOG] init_preconditioner : 0 ms
[OGL LOG] solve : 6456 ms
BJompGKOBiCGStab:  Solving for p, Initial residual = 0.52112, Final residual = 9.20181e-07, No Iterations 387
time step continuity errors : sum local = 9.63876e-10, global = -1.35809e-20, cumulative = 1.92693e-21
ExecutionTime = 440 s  ClockTime = 61 s

Time = 0.00666667

Courant Number mean: 0.107176 max: 0.916756
nonePBiCGStab:  Solving for Ux, Initial residual = 0.0257315, Final residual = 0.0050311, No Iterations 5
nonePBiCGStab:  Solving for Uy, Initial residual = 0.0750496, Final residual = 0.0208221, No Iterations 5
nonePBiCGStab:  Solving for Uz, Initial residual = 0.212654, Final residual = 0.0495033, No Iterations 5
[OGL LOG] init_preconditioner : 0 ms
[OGL LOG] solve : 6492 ms
BJompGKOBiCGStab:  Solving for p, Initial residual = 0.629313, Final residual = 5.42524e-07, No Iterations 390
time step continuity errors : sum local = 2.79721e-09, global = 2.57653e-21, cumulative = 4.50346e-21
[OGL LOG] init_preconditioner : 0 ms
[OGL LOG] solve : 6622 ms
BJompGKOBiCGStab:  Solving for p, Initial residual = 0.552156, Final residual = 3.58518e-07, No Iterations 404
time step continuity errors : sum local = 1.20122e-08, global = 1.41865e-20, cumulative = 1.86899e-20
ExecutionTime = 545.22 s  ClockTime = 75 s

End

