/*---------------------------------------------------------------------------*\
  =========                 |
  \\      /  F ield         | OpenFOAM: The Open Source CFD Toolbox
   \\    /   O peration     | Website:  https://openfoam.org
    \\  /    A nd           | Version:  8
     \\/     M anipulation  |
\*---------------------------------------------------------------------------*/
Build  : 8-13d66902f78c
Exec   : icoFoam
Date   : Jul 12 2021
Time   : 14:49:22
Host   : "uc2n445.localdomain"
PID    : 3213424
I/O    : uncollated
Case   : /pfs/data5/home/kit/scc/nq7776/code/OGL_DATA/lidDrivenCavity3D/v0.1-136-g40fef35/f584ccac99/IntelXeonGold6230CPU@2.10GHz/Test_2021-07-12-13:12:59/75/p-U-BiCGStab-GKO-BJ-omp/lidDrivenCavity3D
nProcs : 1
sigFpe : Enabling floating point exception trapping (FOAM_SIGFPE).
fileModificationChecking : Monitoring run-time modified files using timeStampMaster (fileModificationSkew 10)
allowSystemOperations : Allowing user-supplied system call operations

// * * * * * * * * * * * * * * * * * * * * * * * * * * * * * * * * * * * * * //
Create time

Create mesh for time = 0

Reading transportProperties

Reading field p

Reading field U

Reading/calculating face flux field phi


Starting time loop

Time = 0.00133333

Courant Number mean: 0 max: 0
[OGL LOG] init_host_sparsity_pattern : 120 ms
[OGL LOG] matrix not stored update host matrix
[OGL LOG] update_host_mtx : 61 ms
[OGL LOG] matrix is not yet sorted, compute sorting idxs
[OGL LOG] compute_sort : 3632 ms
[OGL LOG] matrix is not yet sorted, sorting host matrix
[OGL LOG] sort_host_mtx_sparsity_pattern : 77 ms
[OGL LOG] sort_host_mtx : 53 ms
[OGL LOG] init_preconditioner : 17 ms
[OGL LOG] solve : 724 ms
BJompGKOBiCGStab:  Solving for Ux, Initial residual = 1, Final residual = 8.57454e-07, No Iterations 40
[OGL LOG] init_host_sparsity_pattern : 117 ms
[OGL LOG] matrix not stored update host matrix
[OGL LOG] update_host_mtx : 61 ms
[OGL LOG] matrix is not yet sorted, sorting host matrix
[OGL LOG] sort_host_mtx_sparsity_pattern : 80 ms
[OGL LOG] sort_host_mtx : 43 ms
[OGL LOG] init_preconditioner : 17 ms
[OGL LOG] solve : 16 ms
BJompGKOBiCGStab:  Solving for Uy, Initial residual = 0, Final residual = 0, No Iterations 0
[OGL LOG] init_host_sparsity_pattern : 112 ms
[OGL LOG] matrix not stored update host matrix
[OGL LOG] update_host_mtx : 53 ms
[OGL LOG] matrix is not yet sorted, sorting host matrix
[OGL LOG] sort_host_mtx_sparsity_pattern : 75 ms
[OGL LOG] sort_host_mtx : 47 ms
[OGL LOG] init_preconditioner : 16 ms
[OGL LOG] solve : 16 ms
BJompGKOBiCGStab:  Solving for Uz, Initial residual = 0, Final residual = 0, No Iterations 0
[OGL LOG] init_host_sparsity_pattern : 116 ms
[OGL LOG] matrix not stored update host matrix
[OGL LOG] update_host_mtx : 65 ms
[OGL LOG] matrix is not yet sorted, sorting host matrix
[OGL LOG] sort_host_mtx_sparsity_pattern : 81 ms
[OGL LOG] sort_host_mtx : 43 ms
[OGL LOG] init_preconditioner : 17 ms
[OGL LOG] solve : 5643 ms
BJompGKOBiCGStab:  Solving for p, Initial residual = 1, Final residual = 8.79525e-07, No Iterations 436
time step continuity errors : sum local = 1.3376e-09, global = 1.43223e-21, cumulative = 1.43223e-21
[OGL LOG] init_preconditioner : 0 ms
[OGL LOG] solve : 5201 ms
BJompGKOBiCGStab:  Solving for p, Initial residual = 0.759327, Final residual = 9.31e-07, No Iterations 427
time step continuity errors : sum local = 3.27747e-07, global = 9.78993e-21, cumulative = 1.12222e-20
ExecutionTime = 193.2 s  ClockTime = 19 s

Time = 0.00266667

Courant Number mean: 0.0631769 max: 0.775367
[OGL LOG] init_host_sparsity_pattern : 112 ms
[OGL LOG] matrix not stored update host matrix
[OGL LOG] update_host_mtx : 56 ms
[OGL LOG] matrix is not yet sorted, sorting host matrix
[OGL LOG] sort_host_mtx_sparsity_pattern : 85 ms
[OGL LOG] sort_host_mtx : 44 ms
[OGL LOG] init_preconditioner : 0 ms
[OGL LOG] solve : 434 ms
BJompGKOBiCGStab:  Solving for Ux, Initial residual = 0.183058, Final residual = 8.44067e-07, No Iterations 31
[OGL LOG] init_host_sparsity_pattern : 112 ms
[OGL LOG] matrix not stored update host matrix
[OGL LOG] update_host_mtx : 53 ms
[OGL LOG] matrix is not yet sorted, sorting host matrix
[OGL LOG] sort_host_mtx_sparsity_pattern : 73 ms
[OGL LOG] sort_host_mtx : 43 ms
[OGL LOG] init_preconditioner : 0 ms
[OGL LOG] solve : 538 ms
BJompGKOBiCGStab:  Solving for Uy, Initial residual = 0.619603, Final residual = 9.47027e-07, No Iterations 39
[OGL LOG] init_host_sparsity_pattern : 114 ms
[OGL LOG] matrix not stored update host matrix
[OGL LOG] update_host_mtx : 53 ms
[OGL LOG] matrix is not yet sorted, sorting host matrix
[OGL LOG] sort_host_mtx_sparsity_pattern : 75 ms
[OGL LOG] sort_host_mtx : 43 ms
[OGL LOG] init_preconditioner : 0 ms
[OGL LOG] solve : 540 ms
BJompGKOBiCGStab:  Solving for Uz, Initial residual = 0.605475, Final residual = 3.51606e-07, No Iterations 41
[OGL LOG] init_preconditioner : 0 ms
[OGL LOG] solve : 4899 ms
BJompGKOBiCGStab:  Solving for p, Initial residual = 0.749111, Final residual = 8.12041e-07, No Iterations 397
time step continuity errors : sum local = 8.69699e-08, global = -8.07916e-21, cumulative = 3.143e-21
[OGL LOG] init_preconditioner : 0 ms
[OGL LOG] solve : 4971 ms
BJompGKOBiCGStab:  Solving for p, Initial residual = 0.683868, Final residual = 9.76187e-07, No Iterations 407
time step continuity errors : sum local = 5.50588e-08, global = -1.08182e-20, cumulative = -7.67516e-21
ExecutionTime = 376.43 s  ClockTime = 32 s

Time = 0.004

Courant Number mean: 0.0951473 max: 0.9171
[OGL LOG] init_host_sparsity_pattern : 112 ms
[OGL LOG] matrix not stored update host matrix
[OGL LOG] update_host_mtx : 58 ms
[OGL LOG] matrix is not yet sorted, sorting host matrix
[OGL LOG] sort_host_mtx_sparsity_pattern : 83 ms
[OGL LOG] sort_host_mtx : 43 ms
[OGL LOG] init_preconditioner : 0 ms
[OGL LOG] solve : 415 ms
BJompGKOBiCGStab:  Solving for Ux, Initial residual = 0.101972, Final residual = 8.76985e-07, No Iterations 29
[OGL LOG] init_host_sparsity_pattern : 117 ms
[OGL LOG] matrix not stored update host matrix
[OGL LOG] update_host_mtx : 59 ms
[OGL LOG] matrix is not yet sorted, sorting host matrix
[OGL LOG] sort_host_mtx_sparsity_pattern : 73 ms
[OGL LOG] sort_host_mtx : 43 ms
[OGL LOG] init_preconditioner : 0 ms
[OGL LOG] solve : 523 ms
BJompGKOBiCGStab:  Solving for Uy, Initial residual = 0.335391, Final residual = 4.36409e-07, No Iterations 39
[OGL LOG] init_host_sparsity_pattern : 114 ms
[OGL LOG] matrix not stored update host matrix
[OGL LOG] update_host_mtx : 53 ms
[OGL LOG] matrix is not yet sorted, sorting host matrix
[OGL LOG] sort_host_mtx_sparsity_pattern : 75 ms
[OGL LOG] sort_host_mtx : 44 ms
[OGL LOG] init_preconditioner : 0 ms
[OGL LOG] solve : 553 ms
BJompGKOBiCGStab:  Solving for Uz, Initial residual = 0.922176, Final residual = 8.88767e-07, No Iterations 40
[OGL LOG] init_preconditioner : 0 ms
[OGL LOG] solve : 5111 ms
BJompGKOBiCGStab:  Solving for p, Initial residual = 0.754742, Final residual = 6.55386e-07, No Iterations 418
time step continuity errors : sum local = 4.5531e-08, global = -1.02451e-20, cumulative = -1.79203e-20
[OGL LOG] init_preconditioner : 0 ms
[OGL LOG] solve : 4822 ms
BJompGKOBiCGStab:  Solving for p, Initial residual = 0.716999, Final residual = 8.42484e-07, No Iterations 397
time step continuity errors : sum local = 5.16302e-07, global = -1.09174e-20, cumulative = -2.88377e-20
ExecutionTime = 560.47 s  ClockTime = 45 s

Time = 0.00533333

Courant Number mean: 0.109256 max: 0.913437
[OGL LOG] init_host_sparsity_pattern : 112 ms
[OGL LOG] matrix not stored update host matrix
[OGL LOG] update_host_mtx : 55 ms
[OGL LOG] matrix is not yet sorted, sorting host matrix
[OGL LOG] sort_host_mtx_sparsity_pattern : 79 ms
[OGL LOG] sort_host_mtx : 43 ms
[OGL LOG] init_preconditioner : 0 ms
[OGL LOG] solve : 343 ms
BJompGKOBiCGStab:  Solving for Ux, Initial residual = 0.0446984, Final residual = 8.71449e-07, No Iterations 25
[OGL LOG] init_host_sparsity_pattern : 112 ms
[OGL LOG] matrix not stored update host matrix
[OGL LOG] update_host_mtx : 53 ms
[OGL LOG] matrix is not yet sorted, sorting host matrix
[OGL LOG] sort_host_mtx_sparsity_pattern : 72 ms
[OGL LOG] sort_host_mtx : 43 ms
[OGL LOG] init_preconditioner : 0 ms
[OGL LOG] solve : 514 ms
BJompGKOBiCGStab:  Solving for Uy, Initial residual = 0.197584, Final residual = 6.42902e-07, No Iterations 38
[OGL LOG] init_host_sparsity_pattern : 112 ms
[OGL LOG] matrix not stored update host matrix
[OGL LOG] update_host_mtx : 53 ms
[OGL LOG] matrix is not yet sorted, sorting host matrix
[OGL LOG] sort_host_mtx_sparsity_pattern : 72 ms
[OGL LOG] sort_host_mtx : 43 ms
[OGL LOG] init_preconditioner : 0 ms
[OGL LOG] solve : 581 ms
BJompGKOBiCGStab:  Solving for Uz, Initial residual = 0.73233, Final residual = 9.26801e-07, No Iterations 43
[OGL LOG] init_preconditioner : 0 ms
[OGL LOG] solve : 4992 ms
BJompGKOBiCGStab:  Solving for p, Initial residual = 0.617456, Final residual = 9.74067e-07, No Iterations 412
time step continuity errors : sum local = 1.54603e-09, global = 2.95603e-21, cumulative = -2.58817e-20
[OGL LOG] init_preconditioner : 0 ms
[OGL LOG] solve : 4925 ms
BJompGKOBiCGStab:  Solving for p, Initial residual = 0.554757, Final residual = 9.30659e-07, No Iterations 403
time step continuity errors : sum local = 1.31596e-09, global = -1.40827e-21, cumulative = -2.72899e-20
ExecutionTime = 743.42 s  ClockTime = 57 s

Time = 0.00666667

Courant Number mean: 0.122084 max: 0.929083
[OGL LOG] init_host_sparsity_pattern : 112 ms
[OGL LOG] matrix not stored update host matrix
[OGL LOG] update_host_mtx : 53 ms
[OGL LOG] matrix is not yet sorted, sorting host matrix
[OGL LOG] sort_host_mtx_sparsity_pattern : 72 ms
[OGL LOG] sort_host_mtx : 43 ms
[OGL LOG] init_preconditioner : 0 ms
[OGL LOG] solve : 411 ms
BJompGKOBiCGStab:  Solving for Ux, Initial residual = 0.0319116, Final residual = 7.65459e-07, No Iterations 30
[OGL LOG] init_host_sparsity_pattern : 112 ms
[OGL LOG] matrix not stored update host matrix
[OGL LOG] update_host_mtx : 53 ms
[OGL LOG] matrix is not yet sorted, sorting host matrix
[OGL LOG] sort_host_mtx_sparsity_pattern : 72 ms
[OGL LOG] sort_host_mtx : 43 ms
[OGL LOG] init_preconditioner : 0 ms
[OGL LOG] solve : 475 ms
BJompGKOBiCGStab:  Solving for Uy, Initial residual = 0.0804835, Final residual = 7.92472e-07, No Iterations 35
[OGL LOG] init_host_sparsity_pattern : 112 ms
[OGL LOG] matrix not stored update host matrix
[OGL LOG] update_host_mtx : 53 ms
[OGL LOG] matrix is not yet sorted, sorting host matrix
[OGL LOG] sort_host_mtx_sparsity_pattern : 72 ms
[OGL LOG] sort_host_mtx : 43 ms
[OGL LOG] init_preconditioner : 0 ms
[OGL LOG] solve : 543 ms
BJompGKOBiCGStab:  Solving for Uz, Initial residual = 0.514092, Final residual = 7.64477e-07, No Iterations 40
[OGL LOG] init_preconditioner : 0 ms
[OGL LOG] solve : 4941 ms
BJompGKOBiCGStab:  Solving for p, Initial residual = 0.592025, Final residual = 9.2377e-07, No Iterations 410
time step continuity errors : sum local = 8.02031e-10, global = -7.06116e-21, cumulative = -3.43511e-20
[OGL LOG] init_preconditioner : 0 ms
[OGL LOG] solve : 5979 ms
BJompGKOBiCGStab:  Solving for p, Initial residual = 0.543135, Final residual = 6.79137e-07, No Iterations 465
time step continuity errors : sum local = 2.1289e-09, global = 1.59612e-20, cumulative = -1.83899e-20
ExecutionTime = 942.25 s  ClockTime = 71 s

End

