/*---------------------------------------------------------------------------*\
  =========                 |
  \\      /  F ield         | OpenFOAM: The Open Source CFD Toolbox
   \\    /   O peration     | Website:  https://openfoam.org
    \\  /    A nd           | Version:  8
     \\/     M anipulation  |
\*---------------------------------------------------------------------------*/
Build  : 8-13d66902f78c
Exec   : icoFoam
Date   : Jul 12 2021
Time   : 15:04:11
Host   : "uc2n400.localdomain"
PID    : 3901598
I/O    : uncollated
Case   : /pfs/data5/home/kit/scc/nq7776/code/OGL_DATA/lidDrivenCavity3D/v0.1-136-g40fef35/f584ccac99/IntelXeonGold6230CPU@2.10GHz/Test_2021-07-12-12:50:00/100/p-U-BiCGStab-GKO-none-omp/lidDrivenCavity3D
nProcs : 1
sigFpe : Enabling floating point exception trapping (FOAM_SIGFPE).
fileModificationChecking : Monitoring run-time modified files using timeStampMaster (fileModificationSkew 10)
allowSystemOperations : Allowing user-supplied system call operations

// * * * * * * * * * * * * * * * * * * * * * * * * * * * * * * * * * * * * * //
Create time

Create mesh for time = 0

Reading transportProperties

Reading field p

Reading field U

Reading/calculating face flux field phi


Starting time loop

Time = 0.001

Courant Number mean: 0 max: 0
[OGL LOG] init_host_sparsity_pattern : 289 ms
[OGL LOG] matrix not stored update host matrix
[OGL LOG] update_host_mtx : 146 ms
[OGL LOG] matrix is not yet sorted, compute sorting idxs
[OGL LOG] compute_sort : 9111 ms
[OGL LOG] matrix is not yet sorted, sorting host matrix
[OGL LOG] sort_host_mtx_sparsity_pattern : 185 ms
[OGL LOG] sort_host_mtx : 125 ms
[OGL LOG] init_preconditioner : 0 ms
[OGL LOG] solve : 2455 ms
noneompGKOBiCGStab:  Solving for Ux, Initial residual = 1, Final residual = 9.90061e-07, No Iterations 57
[OGL LOG] init_host_sparsity_pattern : 283 ms
[OGL LOG] matrix not stored update host matrix
[OGL LOG] update_host_mtx : 154 ms
[OGL LOG] matrix is not yet sorted, sorting host matrix
[OGL LOG] sort_host_mtx_sparsity_pattern : 195 ms
[OGL LOG] sort_host_mtx : 125 ms
[OGL LOG] init_preconditioner : 0 ms
[OGL LOG] solve : 68 ms
noneompGKOBiCGStab:  Solving for Uy, Initial residual = 0, Final residual = 0, No Iterations 0
[OGL LOG] init_host_sparsity_pattern : 267 ms
[OGL LOG] matrix not stored update host matrix
[OGL LOG] update_host_mtx : 146 ms
[OGL LOG] matrix is not yet sorted, sorting host matrix
[OGL LOG] sort_host_mtx_sparsity_pattern : 193 ms
[OGL LOG] sort_host_mtx : 125 ms
[OGL LOG] init_preconditioner : 0 ms
[OGL LOG] solve : 61 ms
noneompGKOBiCGStab:  Solving for Uz, Initial residual = 0, Final residual = 0, No Iterations 0
[OGL LOG] init_host_sparsity_pattern : 287 ms
[OGL LOG] matrix not stored update host matrix
[OGL LOG] update_host_mtx : 148 ms
[OGL LOG] matrix is not yet sorted, sorting host matrix
[OGL LOG] sort_host_mtx_sparsity_pattern : 192 ms
[OGL LOG] sort_host_mtx : 124 ms
[OGL LOG] init_preconditioner : 0 ms
[OGL LOG] solve : 30883 ms
noneompGKOBiCGStab:  Solving for p, Initial residual = 1, Final residual = 1.66322e-07, No Iterations 720
time step continuity errors : sum local = 5.3162e-08, global = -5.20361e-21, cumulative = -5.20361e-21
[OGL LOG] init_preconditioner : 0 ms
[OGL LOG] solve : 29989 ms
noneompGKOBiCGStab:  Solving for p, Initial residual = 0.783619, Final residual = 9.73437e-07, No Iterations 703
time step continuity errors : sum local = 2.63335e-09, global = -1.16586e-21, cumulative = -6.36947e-21
ExecutionTime = 142.85 s  ClockTime = 81 s

Time = 0.002

Courant Number mean: 0.0571435 max: 0.804774
[OGL LOG] init_host_sparsity_pattern : 268 ms
[OGL LOG] matrix not stored update host matrix
[OGL LOG] update_host_mtx : 131 ms
[OGL LOG] matrix is not yet sorted, sorting host matrix
[OGL LOG] sort_host_mtx_sparsity_pattern : 201 ms
[OGL LOG] sort_host_mtx : 125 ms
[OGL LOG] init_preconditioner : 0 ms
[OGL LOG] solve : 2120 ms
noneompGKOBiCGStab:  Solving for Ux, Initial residual = 0.1691, Final residual = 8.16399e-07, No Iterations 49
[OGL LOG] init_host_sparsity_pattern : 267 ms
[OGL LOG] matrix not stored update host matrix
[OGL LOG] update_host_mtx : 128 ms
[OGL LOG] matrix is not yet sorted, sorting host matrix
[OGL LOG] sort_host_mtx_sparsity_pattern : 194 ms
[OGL LOG] sort_host_mtx : 127 ms
[OGL LOG] init_preconditioner : 0 ms
[OGL LOG] solve : 2201 ms
noneompGKOBiCGStab:  Solving for Uy, Initial residual = 0.620153, Final residual = 9.81663e-07, No Iterations 51
[OGL LOG] init_host_sparsity_pattern : 267 ms
[OGL LOG] matrix not stored update host matrix
[OGL LOG] update_host_mtx : 127 ms
[OGL LOG] matrix is not yet sorted, sorting host matrix
[OGL LOG] sort_host_mtx_sparsity_pattern : 194 ms
[OGL LOG] sort_host_mtx : 126 ms
[OGL LOG] init_preconditioner : 0 ms
[OGL LOG] solve : 2222 ms
noneompGKOBiCGStab:  Solving for Uz, Initial residual = 0.647881, Final residual = 8.47348e-07, No Iterations 51
[OGL LOG] init_preconditioner : 0 ms
[OGL LOG] solve : 30829 ms
noneompGKOBiCGStab:  Solving for p, Initial residual = 0.798458, Final residual = 2.72777e-07, No Iterations 732
time step continuity errors : sum local = 1.10385e-08, global = 1.37889e-20, cumulative = 7.41946e-21
[OGL LOG] init_preconditioner : 0 ms
[OGL LOG] solve : 29767 ms
noneompGKOBiCGStab:  Solving for p, Initial residual = 0.738574, Final residual = 5.32723e-07, No Iterations 708
time step continuity errors : sum local = 4.21742e-07, global = 1.94676e-20, cumulative = 2.6887e-20
ExecutionTime = 280.31 s  ClockTime = 151 s

Time = 0.003

Courant Number mean: 0.0867402 max: 0.944829
[OGL LOG] init_host_sparsity_pattern : 269 ms
[OGL LOG] matrix not stored update host matrix
[OGL LOG] update_host_mtx : 138 ms
[OGL LOG] matrix is not yet sorted, sorting host matrix
[OGL LOG] sort_host_mtx_sparsity_pattern : 199 ms
[OGL LOG] sort_host_mtx : 125 ms
[OGL LOG] init_preconditioner : 0 ms
[OGL LOG] solve : 2220 ms
noneompGKOBiCGStab:  Solving for Ux, Initial residual = 0.102873, Final residual = 9.61817e-07, No Iterations 51
[OGL LOG] init_host_sparsity_pattern : 268 ms
[OGL LOG] matrix not stored update host matrix
[OGL LOG] update_host_mtx : 137 ms
[OGL LOG] matrix is not yet sorted, sorting host matrix
[OGL LOG] sort_host_mtx_sparsity_pattern : 193 ms
[OGL LOG] sort_host_mtx : 124 ms
[OGL LOG] init_preconditioner : 0 ms
[OGL LOG] solve : 2196 ms
noneompGKOBiCGStab:  Solving for Uy, Initial residual = 0.396243, Final residual = 7.17001e-07, No Iterations 51
[OGL LOG] init_host_sparsity_pattern : 268 ms
[OGL LOG] matrix not stored update host matrix
[OGL LOG] update_host_mtx : 128 ms
[OGL LOG] matrix is not yet sorted, sorting host matrix
[OGL LOG] sort_host_mtx_sparsity_pattern : 195 ms
[OGL LOG] sort_host_mtx : 124 ms
[OGL LOG] init_preconditioner : 0 ms
[OGL LOG] solve : 2392 ms
noneompGKOBiCGStab:  Solving for Uz, Initial residual = 0.998136, Final residual = 8.09424e-07, No Iterations 55
[OGL LOG] init_preconditioner : 0 ms
[OGL LOG] solve : 29496 ms
noneompGKOBiCGStab:  Solving for p, Initial residual = 0.832625, Final residual = 9.79289e-07, No Iterations 692
time step continuity errors : sum local = 8.38582e-09, global = 2.02233e-21, cumulative = 2.89093e-20
[OGL LOG] init_preconditioner : 0 ms
[OGL LOG] solve : 31589 ms
noneompGKOBiCGStab:  Solving for p, Initial residual = 0.80242, Final residual = 5.23144e-07, No Iterations 741
time step continuity errors : sum local = 2.61177e-08, global = -8.03488e-21, cumulative = 2.08745e-20
ExecutionTime = 419.19 s  ClockTime = 223 s

Time = 0.004

Courant Number mean: 0.0995354 max: 0.926357
[OGL LOG] init_host_sparsity_pattern : 267 ms
[OGL LOG] matrix not stored update host matrix
[OGL LOG] update_host_mtx : 131 ms
[OGL LOG] matrix is not yet sorted, sorting host matrix
[OGL LOG] sort_host_mtx_sparsity_pattern : 199 ms
[OGL LOG] sort_host_mtx : 126 ms
[OGL LOG] init_preconditioner : 0 ms
[OGL LOG] solve : 1960 ms
noneompGKOBiCGStab:  Solving for Ux, Initial residual = 0.0543977, Final residual = 9.07115e-07, No Iterations 45
[OGL LOG] init_host_sparsity_pattern : 267 ms
[OGL LOG] matrix not stored update host matrix
[OGL LOG] update_host_mtx : 128 ms
[OGL LOG] matrix is not yet sorted, sorting host matrix
[OGL LOG] sort_host_mtx_sparsity_pattern : 193 ms
[OGL LOG] sort_host_mtx : 124 ms
[OGL LOG] init_preconditioner : 0 ms
[OGL LOG] solve : 2072 ms
noneompGKOBiCGStab:  Solving for Uy, Initial residual = 0.25525, Final residual = 9.54165e-07, No Iterations 48
[OGL LOG] init_host_sparsity_pattern : 268 ms
[OGL LOG] matrix not stored update host matrix
[OGL LOG] update_host_mtx : 128 ms
[OGL LOG] matrix is not yet sorted, sorting host matrix
[OGL LOG] sort_host_mtx_sparsity_pattern : 193 ms
[OGL LOG] sort_host_mtx : 124 ms
[OGL LOG] init_preconditioner : 0 ms
[OGL LOG] solve : 2608 ms
noneompGKOBiCGStab:  Solving for Uz, Initial residual = 0.883424, Final residual = 9.70801e-07, No Iterations 60
[OGL LOG] init_preconditioner : 0 ms
[OGL LOG] solve : 32705 ms
noneompGKOBiCGStab:  Solving for p, Initial residual = 0.750472, Final residual = 6.25811e-07, No Iterations 767
time step continuity errors : sum local = 1.57771e-07, global = -5.61446e-21, cumulative = 1.526e-20
[OGL LOG] init_preconditioner : 0 ms
[OGL LOG] solve : 31484 ms
noneompGKOBiCGStab:  Solving for p, Initial residual = 0.685231, Final residual = 6.41463e-07, No Iterations 744
time step continuity errors : sum local = 2.21004e-08, global = -7.10944e-21, cumulative = 8.15056e-21
ExecutionTime = 563.89 s  ClockTime = 297 s

Time = 0.005

Courant Number mean: 0.112168 max: 0.946358
[OGL LOG] init_host_sparsity_pattern : 267 ms
[OGL LOG] matrix not stored update host matrix
[OGL LOG] update_host_mtx : 129 ms
[OGL LOG] matrix is not yet sorted, sorting host matrix
[OGL LOG] sort_host_mtx_sparsity_pattern : 199 ms
[OGL LOG] sort_host_mtx : 124 ms
[OGL LOG] init_preconditioner : 0 ms
[OGL LOG] solve : 2074 ms
noneompGKOBiCGStab:  Solving for Ux, Initial residual = 0.0412033, Final residual = 3.51318e-07, No Iterations 48
[OGL LOG] init_host_sparsity_pattern : 267 ms
[OGL LOG] matrix not stored update host matrix
[OGL LOG] update_host_mtx : 128 ms
[OGL LOG] matrix is not yet sorted, sorting host matrix
[OGL LOG] sort_host_mtx_sparsity_pattern : 193 ms
[OGL LOG] sort_host_mtx : 124 ms
[OGL LOG] init_preconditioner : 0 ms
[OGL LOG] solve : 2280 ms
noneompGKOBiCGStab:  Solving for Uy, Initial residual = 0.132547, Final residual = 2.43659e-07, No Iterations 53
[OGL LOG] init_host_sparsity_pattern : 267 ms
[OGL LOG] matrix not stored update host matrix
[OGL LOG] update_host_mtx : 128 ms
[OGL LOG] matrix is not yet sorted, sorting host matrix
[OGL LOG] sort_host_mtx_sparsity_pattern : 193 ms
[OGL LOG] sort_host_mtx : 124 ms
[OGL LOG] init_preconditioner : 0 ms
[OGL LOG] solve : 2373 ms
noneompGKOBiCGStab:  Solving for Uz, Initial residual = 0.873738, Final residual = 8.96031e-07, No Iterations 54
[OGL LOG] init_preconditioner : 0 ms
[OGL LOG] solve : 28334 ms
noneompGKOBiCGStab:  Solving for p, Initial residual = 0.760266, Final residual = 8.13288e-07, No Iterations 670
time step continuity errors : sum local = 1.10285e-08, global = 3.59637e-21, cumulative = 1.17469e-20
[OGL LOG] init_preconditioner : 0 ms
[OGL LOG] solve : 28686 ms
noneompGKOBiCGStab:  Solving for p, Initial residual = 0.713449, Final residual = 8.62899e-07, No Iterations 684
time step continuity errors : sum local = 1.33798e-07, global = 4.60014e-21, cumulative = 1.63471e-20
ExecutionTime = 694.44 s  ClockTime = 364 s

End

