/*---------------------------------------------------------------------------*\
  =========                 |
  \\      /  F ield         | OpenFOAM: The Open Source CFD Toolbox
   \\    /   O peration     | Website:  https://openfoam.org
    \\  /    A nd           | Version:  8
     \\/     M anipulation  |
\*---------------------------------------------------------------------------*/
Build  : 8-13d66902f78c
Exec   : icoFoam
Date   : Jul 13 2021
Time   : 22:23:32
Host   : "uc2n525.localdomain"
PID    : 3753654
I/O    : uncollated
Case   : /pfs/data5/home/kit/scc/nq7776/code/OGL_DATA/lidDrivenCavity3D/v0.1-136-g40fef35/f584ccac99/IntelXeonGold6230CPU@2.10GHz/Test_2021-07-13-22:16:26/25/p-BiCGStab-GKO-none-omp/lidDrivenCavity3D
nProcs : 1
sigFpe : Enabling floating point exception trapping (FOAM_SIGFPE).
fileModificationChecking : Monitoring run-time modified files using timeStampMaster (fileModificationSkew 10)
allowSystemOperations : Allowing user-supplied system call operations

// * * * * * * * * * * * * * * * * * * * * * * * * * * * * * * * * * * * * * //
Create time

Create mesh for time = 0

Reading transportProperties

Reading field p

Reading field U

Reading/calculating face flux field phi


Starting time loop

Time = 0.004

Courant Number mean: 0 max: 0
nonePBiCGStab:  Solving for Ux, Initial residual = 1, Final residual = 0.0337517, No Iterations 5
nonePBiCGStab:  Solving for Uy, Initial residual = 0, Final residual = 0, No Iterations 0
nonePBiCGStab:  Solving for Uz, Initial residual = 0, Final residual = 0, No Iterations 0
[OGL LOG] init_host_sparsity_pattern : 4 ms
[OGL LOG] matrix not stored update host matrix
[OGL LOG] update_host_mtx : 2 ms
[OGL LOG] matrix is not yet sorted, compute sorting idxs
[OGL LOG] compute_sort : 97 ms
[OGL LOG] matrix is not yet sorted, sorting host matrix
[OGL LOG] sort_host_mtx_sparsity_pattern : 3 ms
[OGL LOG] sort_host_mtx : 1 ms
[OGL LOG] init_preconditioner : 0 ms
[OGL LOG] solve : 196 ms
noneompGKOBiCGStab:  Solving for p, Initial residual = 1, Final residual = 8.85604e-07, No Iterations 176
time step continuity errors : sum local = 6.03741e-08, global = 2.53614e-21, cumulative = 2.53614e-21
[OGL LOG] init_preconditioner : 0 ms
[OGL LOG] solve : 161 ms
noneompGKOBiCGStab:  Solving for p, Initial residual = 0.622286, Final residual = 2.74998e-07, No Iterations 168
time step continuity errors : sum local = 4.75882e-07, global = -2.90851e-20, cumulative = -2.6549e-20
ExecutionTime = 23.55 s  ClockTime = 1 s

Time = 0.008

Courant Number mean: 0.0842281 max: 0.621061
nonePBiCGStab:  Solving for Ux, Initial residual = 0.14959, Final residual = 0.00942695, No Iterations 5
nonePBiCGStab:  Solving for Uy, Initial residual = 0.281195, Final residual = 0.0142217, No Iterations 5
nonePBiCGStab:  Solving for Uz, Initial residual = 0.932965, Final residual = 0.0511002, No Iterations 5
[OGL LOG] init_preconditioner : 0 ms
[OGL LOG] solve : 172 ms
noneompGKOBiCGStab:  Solving for p, Initial residual = 0.518047, Final residual = 9.88114e-07, No Iterations 173
time step continuity errors : sum local = 5.04803e-08, global = 1.32511e-19, cumulative = 1.05962e-19
[OGL LOG] init_preconditioner : 0 ms
[OGL LOG] solve : 163 ms
noneompGKOBiCGStab:  Solving for p, Initial residual = 0.415897, Final residual = 7.85978e-07, No Iterations 170
time step continuity errors : sum local = 1.25189e-07, global = -8.81971e-20, cumulative = 1.77645e-20
ExecutionTime = 45.6 s  ClockTime = 1 s

Time = 0.012

Courant Number mean: 0.124051 max: 0.792234
nonePBiCGStab:  Solving for Ux, Initial residual = 0.042497, Final residual = 0.00204613, No Iterations 5
nonePBiCGStab:  Solving for Uy, Initial residual = 0.0761538, Final residual = 0.0026368, No Iterations 5
nonePBiCGStab:  Solving for Uz, Initial residual = 0.142768, Final residual = 0.00668625, No Iterations 5
[OGL LOG] init_preconditioner : 0 ms
[OGL LOG] solve : 154 ms
noneompGKOBiCGStab:  Solving for p, Initial residual = 0.279218, Final residual = 8.62226e-07, No Iterations 169
time step continuity errors : sum local = 1.61831e-07, global = -9.02785e-21, cumulative = 8.73668e-21
[OGL LOG] init_preconditioner : 0 ms
[OGL LOG] solve : 160 ms
noneompGKOBiCGStab:  Solving for p, Initial residual = 0.224071, Final residual = 4.08711e-07, No Iterations 170
time step continuity errors : sum local = 7.38666e-07, global = 6.77362e-20, cumulative = 7.64728e-20
ExecutionTime = 66.65 s  ClockTime = 2 s

Time = 0.016

Courant Number mean: 0.142529 max: 0.824384
nonePBiCGStab:  Solving for Ux, Initial residual = 0.0219013, Final residual = 0.000753353, No Iterations 5
nonePBiCGStab:  Solving for Uy, Initial residual = 0.0474742, Final residual = 0.000977001, No Iterations 5
nonePBiCGStab:  Solving for Uz, Initial residual = 0.0926809, Final residual = 0.00342364, No Iterations 5
[OGL LOG] init_preconditioner : 0 ms
[OGL LOG] solve : 136 ms
noneompGKOBiCGStab:  Solving for p, Initial residual = 0.13858, Final residual = 6.13908e-07, No Iterations 166
time step continuity errors : sum local = 1.33038e-06, global = 5.13257e-20, cumulative = 1.27799e-19
[OGL LOG] init_preconditioner : 0 ms
[OGL LOG] solve : 132 ms
noneompGKOBiCGStab:  Solving for p, Initial residual = 0.106664, Final residual = 9.27818e-07, No Iterations 163
time step continuity errors : sum local = 1.60141e-07, global = 6.70554e-20, cumulative = 1.94854e-19
ExecutionTime = 84.09 s  ClockTime = 2 s

Time = 0.02

Courant Number mean: 0.154857 max: 0.843613
nonePBiCGStab:  Solving for Ux, Initial residual = 0.0136611, Final residual = 0.000411746, No Iterations 5
nonePBiCGStab:  Solving for Uy, Initial residual = 0.0288107, Final residual = 0.00074232, No Iterations 5
nonePBiCGStab:  Solving for Uz, Initial residual = 0.0553196, Final residual = 0.00183136, No Iterations 5
[OGL LOG] init_preconditioner : 0 ms
[OGL LOG] solve : 127 ms
noneompGKOBiCGStab:  Solving for p, Initial residual = 0.0654695, Final residual = 8.42092e-07, No Iterations 155
time step continuity errors : sum local = 1.57423e-07, global = -4.7445e-21, cumulative = 1.90109e-19
[OGL LOG] init_preconditioner : 0 ms
[OGL LOG] solve : 126 ms
noneompGKOBiCGStab:  Solving for p, Initial residual = 0.0511142, Final residual = 6.76023e-07, No Iterations 156
time step continuity errors : sum local = 3.94781e-08, global = 4.5587e-21, cumulative = 1.94668e-19
ExecutionTime = 100.87 s  ClockTime = 2 s

End

