/*---------------------------------------------------------------------------*\
  =========                 |
  \\      /  F ield         | OpenFOAM: The Open Source CFD Toolbox
   \\    /   O peration     | Website:  https://openfoam.org
    \\  /    A nd           | Version:  8
     \\/     M anipulation  |
\*---------------------------------------------------------------------------*/
Build  : 8-13d66902f78c
Exec   : icoFoam
Date   : Jul 13 2021
Time   : 23:03:21
Host   : "uc2n524.localdomain"
PID    : 1983257
I/O    : uncollated
Case   : /pfs/data5/home/kit/scc/nq7776/code/OGL_DATA/lidDrivenCavity3D/v0.1-136-g40fef35/f584ccac99/IntelXeonGold6230CPU@2.10GHz/Test_2021-07-13-22:44:59/50/p-CG-GKO-BJ-omp/lidDrivenCavity3D
nProcs : 1
sigFpe : Enabling floating point exception trapping (FOAM_SIGFPE).
fileModificationChecking : Monitoring run-time modified files using timeStampMaster (fileModificationSkew 10)
allowSystemOperations : Allowing user-supplied system call operations

// * * * * * * * * * * * * * * * * * * * * * * * * * * * * * * * * * * * * * //
Create time

Create mesh for time = 0

Reading transportProperties

Reading field p

Reading field U

Reading/calculating face flux field phi


Starting time loop

Time = 0.002

Courant Number mean: 0 max: 0
nonePBiCGStab:  Solving for Ux, Initial residual = 1, Final residual = 0.0592055, No Iterations 5
nonePBiCGStab:  Solving for Uy, Initial residual = 0, Final residual = 0, No Iterations 0
nonePBiCGStab:  Solving for Uz, Initial residual = 0, Final residual = 0, No Iterations 0
[OGL LOG] init_host_sparsity_pattern : 35 ms
[OGL LOG] matrix not stored update host matrix
[OGL LOG] update_host_mtx : 18 ms
[OGL LOG] matrix is not yet sorted, compute sorting idxs
[OGL LOG] compute_sort : 907 ms
[OGL LOG] matrix is not yet sorted, sorting host matrix
[OGL LOG] sort_host_mtx_sparsity_pattern : 23 ms
[OGL LOG] sort_host_mtx : 15 ms
[OGL LOG] init_preconditioner : 5 ms
 CG create  precond 
[OGL LOG] solve : 1171 ms
BJompGKOCG:  Solving for p, Initial residual = 1, Final residual = 9.7663e-07, No Iterations 433
time step continuity errors : sum local = 1.25274e-09, global = 6.4785e-21, cumulative = 6.4785e-21
[OGL LOG] init_preconditioner : 0 ms
 CG create  precond 
[OGL LOG] solve : 892 ms
BJompGKOCG:  Solving for p, Initial residual = 0.67673, Final residual = 9.83764e-07, No Iterations 428
time step continuity errors : sum local = 1.78444e-09, global = 5.79049e-21, cumulative = 1.2269e-20
ExecutionTime = 34.85 s  ClockTime = 4 s

Time = 0.004

Courant Number mean: 0.0636233 max: 0.723792
nonePBiCGStab:  Solving for Ux, Initial residual = 0.144136, Final residual = 0.0219208, No Iterations 5
nonePBiCGStab:  Solving for Uy, Initial residual = 0.363931, Final residual = 0.0522819, No Iterations 5
nonePBiCGStab:  Solving for Uz, Initial residual = 0.973677, Final residual = 0.158944, No Iterations 5
[OGL LOG] init_preconditioner : 0 ms
 CG create  precond 
[OGL LOG] solve : 799 ms
BJompGKOCG:  Solving for p, Initial residual = 0.668507, Final residual = 9.5201e-07, No Iterations 417
time step continuity errors : sum local = 2.17988e-09, global = -1.35561e-20, cumulative = -1.28714e-21
[OGL LOG] init_preconditioner : 0 ms
 CG create  precond 
[OGL LOG] solve : 811 ms
BJompGKOCG:  Solving for p, Initial residual = 0.584655, Final residual = 9.77753e-07, No Iterations 414
time step continuity errors : sum local = 2.29598e-09, global = -7.10955e-23, cumulative = -1.35823e-21
ExecutionTime = 60.78 s  ClockTime = 6 s

Time = 0.006

Courant Number mean: 0.0972275 max: 0.862515
nonePBiCGStab:  Solving for Ux, Initial residual = 0.0524188, Final residual = 0.00685535, No Iterations 5
nonePBiCGStab:  Solving for Uy, Initial residual = 0.127046, Final residual = 0.0201182, No Iterations 5
nonePBiCGStab:  Solving for Uz, Initial residual = 0.366757, Final residual = 0.0530715, No Iterations 5
[OGL LOG] init_preconditioner : 0 ms
 CG create  precond 
[OGL LOG] solve : 812 ms
BJompGKOCG:  Solving for p, Initial residual = 0.594544, Final residual = 9.56166e-07, No Iterations 421
time step continuity errors : sum local = 1.52302e-09, global = 3.44946e-20, cumulative = 3.31364e-20
[OGL LOG] init_preconditioner : 0 ms
 CG create  precond 
[OGL LOG] solve : 803 ms
BJompGKOCG:  Solving for p, Initial residual = 0.528702, Final residual = 9.90592e-07, No Iterations 419
time step continuity errors : sum local = 1.52629e-09, global = 3.81255e-20, cumulative = 7.12619e-20
ExecutionTime = 86.82 s  ClockTime = 7 s

Time = 0.008

Courant Number mean: 0.113794 max: 0.88248
nonePBiCGStab:  Solving for Ux, Initial residual = 0.0289573, Final residual = 0.00344465, No Iterations 5
nonePBiCGStab:  Solving for Uy, Initial residual = 0.0844255, Final residual = 0.0109195, No Iterations 5
nonePBiCGStab:  Solving for Uz, Initial residual = 0.229196, Final residual = 0.029767, No Iterations 5
[OGL LOG] init_preconditioner : 0 ms
 CG create  precond 
[OGL LOG] solve : 793 ms
BJompGKOCG:  Solving for p, Initial residual = 0.411432, Final residual = 9.1249e-07, No Iterations 410
time step continuity errors : sum local = 1.39093e-09, global = -3.10393e-21, cumulative = 6.8158e-20
[OGL LOG] init_preconditioner : 0 ms
 CG create  precond 
[OGL LOG] solve : 783 ms
BJompGKOCG:  Solving for p, Initial residual = 0.342686, Final residual = 9.18337e-07, No Iterations 408
time step continuity errors : sum local = 1.42593e-09, global = 1.70418e-20, cumulative = 8.51998e-20
ExecutionTime = 112.24 s  ClockTime = 9 s

Time = 0.01

Courant Number mean: 0.127339 max: 0.898877
nonePBiCGStab:  Solving for Ux, Initial residual = 0.020277, Final residual = 0.00208485, No Iterations 5
nonePBiCGStab:  Solving for Uy, Initial residual = 0.0505563, Final residual = 0.00623586, No Iterations 5
nonePBiCGStab:  Solving for Uz, Initial residual = 0.112947, Final residual = 0.0180735, No Iterations 5
[OGL LOG] init_preconditioner : 0 ms
 CG create  precond 
[OGL LOG] solve : 789 ms
BJompGKOCG:  Solving for p, Initial residual = 0.354043, Final residual = 9.5978e-07, No Iterations 412
time step continuity errors : sum local = 1.21687e-09, global = -4.50096e-20, cumulative = 4.01902e-20
[OGL LOG] init_preconditioner : 0 ms
 CG create  precond 
[OGL LOG] solve : 801 ms
BJompGKOCG:  Solving for p, Initial residual = 0.302211, Final residual = 9.09222e-07, No Iterations 411
time step continuity errors : sum local = 1.13773e-09, global = 5.02688e-21, cumulative = 4.52171e-20
ExecutionTime = 137.87 s  ClockTime = 11 s

End

