/*---------------------------------------------------------------------------*\
  =========                 |
  \\      /  F ield         | OpenFOAM: The Open Source CFD Toolbox
   \\    /   O peration     | Website:  https://openfoam.org
    \\  /    A nd           | Version:  8
     \\/     M anipulation  |
\*---------------------------------------------------------------------------*/
Build  : 8-13d66902f78c
Exec   : icoFoam
Date   : Jul 12 2021
Time   : 13:33:27
Host   : "uc2n445.localdomain"
PID    : 3207917
I/O    : uncollated
Case   : /pfs/data5/home/kit/scc/nq7776/code/OGL_DATA/lidDrivenCavity3D/v0.1-136-g40fef35/f584ccac99/IntelXeonGold6230CPU@2.10GHz/Test_2021-07-12-13:12:59/50/p-U-BiCGStab-GKO-BJ-omp/lidDrivenCavity3D
nProcs : 1
sigFpe : Enabling floating point exception trapping (FOAM_SIGFPE).
fileModificationChecking : Monitoring run-time modified files using timeStampMaster (fileModificationSkew 10)
allowSystemOperations : Allowing user-supplied system call operations

// * * * * * * * * * * * * * * * * * * * * * * * * * * * * * * * * * * * * * //
Create time

Create mesh for time = 0

Reading transportProperties

Reading field p

Reading field U

Reading/calculating face flux field phi


Starting time loop

Time = 0.002

Courant Number mean: 0 max: 0
[OGL LOG] init_host_sparsity_pattern : 35 ms
[OGL LOG] matrix not stored update host matrix
[OGL LOG] update_host_mtx : 18 ms
[OGL LOG] matrix is not yet sorted, compute sorting idxs
[OGL LOG] compute_sort : 988 ms
[OGL LOG] matrix is not yet sorted, sorting host matrix
[OGL LOG] sort_host_mtx_sparsity_pattern : 23 ms
[OGL LOG] sort_host_mtx : 14 ms
[OGL LOG] init_preconditioner : 5 ms
[OGL LOG] solve : 152 ms
BJompGKOBiCGStab:  Solving for Ux, Initial residual = 1, Final residual = 8.40984e-07, No Iterations 31
[OGL LOG] init_host_sparsity_pattern : 35 ms
[OGL LOG] matrix not stored update host matrix
[OGL LOG] update_host_mtx : 18 ms
[OGL LOG] matrix is not yet sorted, sorting host matrix
[OGL LOG] sort_host_mtx_sparsity_pattern : 23 ms
[OGL LOG] sort_host_mtx : 12 ms
[OGL LOG] init_preconditioner : 5 ms
[OGL LOG] solve : 4 ms
BJompGKOBiCGStab:  Solving for Uy, Initial residual = 0, Final residual = 0, No Iterations 0
[OGL LOG] init_host_sparsity_pattern : 33 ms
[OGL LOG] matrix not stored update host matrix
[OGL LOG] update_host_mtx : 15 ms
[OGL LOG] matrix is not yet sorted, sorting host matrix
[OGL LOG] sort_host_mtx_sparsity_pattern : 23 ms
[OGL LOG] sort_host_mtx : 12 ms
[OGL LOG] init_preconditioner : 5 ms
[OGL LOG] solve : 4 ms
BJompGKOBiCGStab:  Solving for Uz, Initial residual = 0, Final residual = 0, No Iterations 0
[OGL LOG] init_host_sparsity_pattern : 32 ms
[OGL LOG] matrix not stored update host matrix
[OGL LOG] update_host_mtx : 18 ms
[OGL LOG] matrix is not yet sorted, sorting host matrix
[OGL LOG] sort_host_mtx_sparsity_pattern : 22 ms
[OGL LOG] sort_host_mtx : 14 ms
[OGL LOG] init_preconditioner : 5 ms
[OGL LOG] solve : 1501 ms
BJompGKOBiCGStab:  Solving for p, Initial residual = 1, Final residual = 6.75597e-07, No Iterations 308
time step continuity errors : sum local = 3.23804e-08, global = 8.00721e-21, cumulative = 8.00721e-21
[OGL LOG] init_preconditioner : 0 ms
[OGL LOG] solve : 1261 ms
BJompGKOBiCGStab:  Solving for p, Initial residual = 0.721591, Final residual = 3.2189e-07, No Iterations 264
time step continuity errors : sum local = 8.57232e-07, global = -5.49832e-21, cumulative = 2.50889e-21
ExecutionTime = 25.73 s  ClockTime = 5 s

Time = 0.004

Courant Number mean: 0.0720725 max: 0.72664
[OGL LOG] init_host_sparsity_pattern : 33 ms
[OGL LOG] matrix not stored update host matrix
[OGL LOG] update_host_mtx : 15 ms
[OGL LOG] matrix is not yet sorted, sorting host matrix
[OGL LOG] sort_host_mtx_sparsity_pattern : 25 ms
[OGL LOG] sort_host_mtx : 13 ms
[OGL LOG] init_preconditioner : 0 ms
[OGL LOG] solve : 126 ms
BJompGKOBiCGStab:  Solving for Ux, Initial residual = 0.203454, Final residual = 9.71588e-07, No Iterations 23
[OGL LOG] init_host_sparsity_pattern : 33 ms
[OGL LOG] matrix not stored update host matrix
[OGL LOG] update_host_mtx : 15 ms
[OGL LOG] matrix is not yet sorted, sorting host matrix
[OGL LOG] sort_host_mtx_sparsity_pattern : 22 ms
[OGL LOG] sort_host_mtx : 12 ms
[OGL LOG] init_preconditioner : 0 ms
[OGL LOG] solve : 171 ms
BJompGKOBiCGStab:  Solving for Uy, Initial residual = 0.618435, Final residual = 9.2049e-07, No Iterations 32
[OGL LOG] init_host_sparsity_pattern : 33 ms
[OGL LOG] matrix not stored update host matrix
[OGL LOG] update_host_mtx : 15 ms
[OGL LOG] matrix is not yet sorted, sorting host matrix
[OGL LOG] sort_host_mtx_sparsity_pattern : 22 ms
[OGL LOG] sort_host_mtx : 12 ms
[OGL LOG] init_preconditioner : 0 ms
[OGL LOG] solve : 170 ms
BJompGKOBiCGStab:  Solving for Uz, Initial residual = 0.535911, Final residual = 7.60696e-07, No Iterations 32
[OGL LOG] init_preconditioner : 0 ms
[OGL LOG] solve : 1280 ms
BJompGKOBiCGStab:  Solving for p, Initial residual = 0.673368, Final residual = 8.12828e-07, No Iterations 270
time step continuity errors : sum local = 5.29616e-08, global = 5.13518e-21, cumulative = 7.64407e-21
[OGL LOG] init_preconditioner : 0 ms
[OGL LOG] solve : 1321 ms
BJompGKOBiCGStab:  Solving for p, Initial residual = 0.59894, Final residual = 6.76074e-07, No Iterations 277
time step continuity errors : sum local = 1.60805e-07, global = 1.4257e-20, cumulative = 2.1901e-20
ExecutionTime = 50.8 s  ClockTime = 8 s

Time = 0.006

Courant Number mean: 0.107408 max: 0.881754
[OGL LOG] init_host_sparsity_pattern : 33 ms
[OGL LOG] matrix not stored update host matrix
[OGL LOG] update_host_mtx : 16 ms
[OGL LOG] matrix is not yet sorted, sorting host matrix
[OGL LOG] sort_host_mtx_sparsity_pattern : 23 ms
[OGL LOG] sort_host_mtx : 13 ms
[OGL LOG] init_preconditioner : 0 ms
[OGL LOG] solve : 110 ms
BJompGKOBiCGStab:  Solving for Ux, Initial residual = 0.0995472, Final residual = 8.7696e-07, No Iterations 22
[OGL LOG] init_host_sparsity_pattern : 33 ms
[OGL LOG] matrix not stored update host matrix
[OGL LOG] update_host_mtx : 16 ms
[OGL LOG] matrix is not yet sorted, sorting host matrix
[OGL LOG] sort_host_mtx_sparsity_pattern : 22 ms
[OGL LOG] sort_host_mtx : 13 ms
[OGL LOG] init_preconditioner : 0 ms
[OGL LOG] solve : 147 ms
BJompGKOBiCGStab:  Solving for Uy, Initial residual = 0.250072, Final residual = 8.77185e-07, No Iterations 29
[OGL LOG] init_host_sparsity_pattern : 33 ms
[OGL LOG] matrix not stored update host matrix
[OGL LOG] update_host_mtx : 15 ms
[OGL LOG] matrix is not yet sorted, sorting host matrix
[OGL LOG] sort_host_mtx_sparsity_pattern : 22 ms
[OGL LOG] sort_host_mtx : 12 ms
[OGL LOG] init_preconditioner : 0 ms
[OGL LOG] solve : 161 ms
BJompGKOBiCGStab:  Solving for Uz, Initial residual = 0.542436, Final residual = 9.11581e-07, No Iterations 32
[OGL LOG] init_preconditioner : 0 ms
[OGL LOG] solve : 1304 ms
BJompGKOBiCGStab:  Solving for p, Initial residual = 0.606908, Final residual = 2.81026e-07, No Iterations 274
time step continuity errors : sum local = 7.38335e-10, global = -1.39679e-20, cumulative = 7.93318e-21
[OGL LOG] init_preconditioner : 0 ms
[OGL LOG] solve : 1208 ms
BJompGKOBiCGStab:  Solving for p, Initial residual = 0.560929, Final residual = 8.58385e-07, No Iterations 256
time step continuity errors : sum local = 2.23776e-09, global = -2.06321e-20, cumulative = -1.2699e-20
ExecutionTime = 74.79 s  ClockTime = 12 s

Time = 0.008

Courant Number mean: 0.123244 max: 0.890104
[OGL LOG] init_host_sparsity_pattern : 33 ms
[OGL LOG] matrix not stored update host matrix
[OGL LOG] update_host_mtx : 15 ms
[OGL LOG] matrix is not yet sorted, sorting host matrix
[OGL LOG] sort_host_mtx_sparsity_pattern : 22 ms
[OGL LOG] sort_host_mtx : 12 ms
[OGL LOG] init_preconditioner : 0 ms
[OGL LOG] solve : 126 ms
BJompGKOBiCGStab:  Solving for Ux, Initial residual = 0.0341389, Final residual = 7.72545e-07, No Iterations 25
[OGL LOG] init_host_sparsity_pattern : 33 ms
[OGL LOG] matrix not stored update host matrix
[OGL LOG] update_host_mtx : 15 ms
[OGL LOG] matrix is not yet sorted, sorting host matrix
[OGL LOG] sort_host_mtx_sparsity_pattern : 22 ms
[OGL LOG] sort_host_mtx : 12 ms
[OGL LOG] init_preconditioner : 0 ms
[OGL LOG] solve : 141 ms
BJompGKOBiCGStab:  Solving for Uy, Initial residual = 0.132386, Final residual = 8.24536e-07, No Iterations 28
[OGL LOG] init_host_sparsity_pattern : 33 ms
[OGL LOG] matrix not stored update host matrix
[OGL LOG] update_host_mtx : 15 ms
[OGL LOG] matrix is not yet sorted, sorting host matrix
[OGL LOG] sort_host_mtx_sparsity_pattern : 22 ms
[OGL LOG] sort_host_mtx : 12 ms
[OGL LOG] init_preconditioner : 0 ms
[OGL LOG] solve : 156 ms
BJompGKOBiCGStab:  Solving for Uz, Initial residual = 0.472724, Final residual = 9.72779e-07, No Iterations 31
[OGL LOG] init_preconditioner : 0 ms
[OGL LOG] solve : 1175 ms
BJompGKOBiCGStab:  Solving for p, Initial residual = 0.423051, Final residual = 7.13765e-07, No Iterations 244
time step continuity errors : sum local = 1.24433e-08, global = -1.37277e-20, cumulative = -2.64267e-20
[OGL LOG] init_preconditioner : 0 ms
[OGL LOG] solve : 1245 ms
BJompGKOBiCGStab:  Solving for p, Initial residual = 0.368384, Final residual = 8.7296e-07, No Iterations 261
time step continuity errors : sum local = 2.12545e-09, global = -3.47828e-20, cumulative = -6.12095e-20
ExecutionTime = 98.11 s  ClockTime = 15 s

Time = 0.01

Courant Number mean: 0.136096 max: 0.906942
[OGL LOG] init_host_sparsity_pattern : 33 ms
[OGL LOG] matrix not stored update host matrix
[OGL LOG] update_host_mtx : 17 ms
[OGL LOG] matrix is not yet sorted, sorting host matrix
[OGL LOG] sort_host_mtx_sparsity_pattern : 27 ms
[OGL LOG] sort_host_mtx : 15 ms
[OGL LOG] init_preconditioner : 0 ms
[OGL LOG] solve : 126 ms
BJompGKOBiCGStab:  Solving for Ux, Initial residual = 0.023077, Final residual = 9.95285e-07, No Iterations 24
[OGL LOG] init_host_sparsity_pattern : 33 ms
[OGL LOG] matrix not stored update host matrix
[OGL LOG] update_host_mtx : 15 ms
[OGL LOG] matrix is not yet sorted, sorting host matrix
[OGL LOG] sort_host_mtx_sparsity_pattern : 22 ms
[OGL LOG] sort_host_mtx : 12 ms
[OGL LOG] init_preconditioner : 0 ms
[OGL LOG] solve : 133 ms
BJompGKOBiCGStab:  Solving for Uy, Initial residual = 0.0483993, Final residual = 9.7596e-07, No Iterations 25
[OGL LOG] init_host_sparsity_pattern : 33 ms
[OGL LOG] matrix not stored update host matrix
[OGL LOG] update_host_mtx : 15 ms
[OGL LOG] matrix is not yet sorted, sorting host matrix
[OGL LOG] sort_host_mtx_sparsity_pattern : 22 ms
[OGL LOG] sort_host_mtx : 12 ms
[OGL LOG] init_preconditioner : 0 ms
[OGL LOG] solve : 147 ms
BJompGKOBiCGStab:  Solving for Uz, Initial residual = 0.159506, Final residual = 8.55769e-07, No Iterations 28
[OGL LOG] init_preconditioner : 0 ms
[OGL LOG] solve : 1192 ms
BJompGKOBiCGStab:  Solving for p, Initial residual = 0.361688, Final residual = 9.30525e-07, No Iterations 248
time step continuity errors : sum local = 1.81585e-09, global = 8.20551e-20, cumulative = 2.08456e-20
[OGL LOG] init_preconditioner : 0 ms
[OGL LOG] solve : 1139 ms
BJompGKOBiCGStab:  Solving for p, Initial residual = 0.333185, Final residual = 9.5522e-07, No Iterations 240
time step continuity errors : sum local = 1.68412e-09, global = -2.45954e-20, cumulative = -3.74984e-21
ExecutionTime = 120.51 s  ClockTime = 18 s

End

