/*---------------------------------------------------------------------------*\
  =========                 |
  \\      /  F ield         | OpenFOAM: The Open Source CFD Toolbox
   \\    /   O peration     | Website:  https://openfoam.org
    \\  /    A nd           | Version:  8
     \\/     M anipulation  |
\*---------------------------------------------------------------------------*/
Build  : 8-13d66902f78c
Exec   : icoFoam
Date   : Jul 14 2021
Time   : 00:21:05
Host   : "uc2n553.localdomain"
PID    : 746092
I/O    : uncollated
Case   : /pfs/data5/home/kit/scc/nq7776/code/OGL_DATA/lidDrivenCavity3D/v0.1-136-g40fef35/f584ccac99/IntelXeonGold6230CPU@2.10GHz/Test_2021-07-14-00:17:39/25/p-U-CG-GKO-none-omp/lidDrivenCavity3D
nProcs : 1
sigFpe : Enabling floating point exception trapping (FOAM_SIGFPE).
fileModificationChecking : Monitoring run-time modified files using timeStampMaster (fileModificationSkew 10)
allowSystemOperations : Allowing user-supplied system call operations

// * * * * * * * * * * * * * * * * * * * * * * * * * * * * * * * * * * * * * //
Create time

Create mesh for time = 0

Reading transportProperties

Reading field p

Reading field U

Reading/calculating face flux field phi


Starting time loop

Time = 0.004

Courant Number mean: 0 max: 0
[OGL LOG] init_host_sparsity_pattern : 4 ms
[OGL LOG] matrix not stored update host matrix
[OGL LOG] update_host_mtx : 2 ms
[OGL LOG] matrix is not yet sorted, compute sorting idxs
[OGL LOG] compute_sort : 97 ms
[OGL LOG] matrix is not yet sorted, sorting host matrix
[OGL LOG] sort_host_mtx_sparsity_pattern : 2 ms
[OGL LOG] sort_host_mtx : 1 ms
[OGL LOG] init_preconditioner : 0 ms
[OGL LOG] solve : 12 ms
noneompGKOBiCGStab:  Solving for Ux, Initial residual = 1, Final residual = 7.65409e-07, No Iterations 28
[OGL LOG] init_host_sparsity_pattern : 4 ms
[OGL LOG] matrix not stored update host matrix
[OGL LOG] update_host_mtx : 2 ms
[OGL LOG] matrix is not yet sorted, sorting host matrix
[OGL LOG] sort_host_mtx_sparsity_pattern : 2 ms
[OGL LOG] sort_host_mtx : 1 ms
[OGL LOG] init_preconditioner : 0 ms
[OGL LOG] solve : 0 ms
noneompGKOBiCGStab:  Solving for Uy, Initial residual = 0, Final residual = 0, No Iterations 0
[OGL LOG] init_host_sparsity_pattern : 4 ms
[OGL LOG] matrix not stored update host matrix
[OGL LOG] update_host_mtx : 2 ms
[OGL LOG] matrix is not yet sorted, sorting host matrix
[OGL LOG] sort_host_mtx_sparsity_pattern : 2 ms
[OGL LOG] sort_host_mtx : 1 ms
[OGL LOG] init_preconditioner : 0 ms
[OGL LOG] solve : 0 ms
noneompGKOBiCGStab:  Solving for Uz, Initial residual = 0, Final residual = 0, No Iterations 0
[OGL LOG] init_host_sparsity_pattern : 4 ms
[OGL LOG] matrix not stored update host matrix
[OGL LOG] update_host_mtx : 2 ms
[OGL LOG] matrix is not yet sorted, sorting host matrix
[OGL LOG] sort_host_mtx_sparsity_pattern : 2 ms
[OGL LOG] sort_host_mtx : 1 ms
[OGL LOG] init_preconditioner : 0 ms
[OGL LOG] solve : 45 ms
noneompGKOCG:  Solving for p, Initial residual = 1, Final residual = 9.47996e-07, No Iterations 219
time step continuity errors : sum local = 4.20581e-09, global = 1.64623e-20, cumulative = 1.64623e-20
[OGL LOG] init_preconditioner : 0 ms
[OGL LOG] solve : 45 ms
noneompGKOCG:  Solving for p, Initial residual = 0.644082, Final residual = 8.6061e-07, No Iterations 215
time step continuity errors : sum local = 5.39982e-09, global = 3.0234e-20, cumulative = 4.66964e-20
ExecutionTime = 1.24 s  ClockTime = 0 s

Time = 0.008

Courant Number mean: 0.0870974 max: 0.619854
[OGL LOG] init_host_sparsity_pattern : 4 ms
[OGL LOG] matrix not stored update host matrix
[OGL LOG] update_host_mtx : 2 ms
[OGL LOG] matrix is not yet sorted, sorting host matrix
[OGL LOG] sort_host_mtx_sparsity_pattern : 2 ms
[OGL LOG] sort_host_mtx : 1 ms
[OGL LOG] init_preconditioner : 0 ms
[OGL LOG] solve : 10 ms
noneompGKOBiCGStab:  Solving for Ux, Initial residual = 0.238938, Final residual = 6.81762e-07, No Iterations 25
[OGL LOG] init_host_sparsity_pattern : 4 ms
[OGL LOG] matrix not stored update host matrix
[OGL LOG] update_host_mtx : 1 ms
[OGL LOG] matrix is not yet sorted, sorting host matrix
[OGL LOG] sort_host_mtx_sparsity_pattern : 2 ms
[OGL LOG] sort_host_mtx : 1 ms
[OGL LOG] init_preconditioner : 0 ms
[OGL LOG] solve : 11 ms
noneompGKOBiCGStab:  Solving for Uy, Initial residual = 0.615478, Final residual = 9.88834e-07, No Iterations 27
[OGL LOG] init_host_sparsity_pattern : 4 ms
[OGL LOG] matrix not stored update host matrix
[OGL LOG] update_host_mtx : 1 ms
[OGL LOG] matrix is not yet sorted, sorting host matrix
[OGL LOG] sort_host_mtx_sparsity_pattern : 2 ms
[OGL LOG] sort_host_mtx : 1 ms
[OGL LOG] init_preconditioner : 0 ms
[OGL LOG] solve : 10 ms
noneompGKOBiCGStab:  Solving for Uz, Initial residual = 0.391817, Final residual = 9.15809e-07, No Iterations 24
[OGL LOG] init_preconditioner : 0 ms
[OGL LOG] solve : 44 ms
noneompGKOCG:  Solving for p, Initial residual = 0.527353, Final residual = 8.48555e-07, No Iterations 212
time step continuity errors : sum local = 5.08183e-09, global = 8.25451e-20, cumulative = 1.29241e-19
[OGL LOG] init_preconditioner : 0 ms
[OGL LOG] solve : 43 ms
noneompGKOCG:  Solving for p, Initial residual = 0.437513, Final residual = 8.7352e-07, No Iterations 210
time step continuity errors : sum local = 5.45092e-09, global = -1.04535e-22, cumulative = 1.29137e-19
ExecutionTime = 2.39 s  ClockTime = 0 s

Time = 0.012

Courant Number mean: 0.127403 max: 0.798792
[OGL LOG] init_host_sparsity_pattern : 4 ms
[OGL LOG] matrix not stored update host matrix
[OGL LOG] update_host_mtx : 1 ms
[OGL LOG] matrix is not yet sorted, sorting host matrix
[OGL LOG] sort_host_mtx_sparsity_pattern : 2 ms
[OGL LOG] sort_host_mtx : 1 ms
[OGL LOG] init_preconditioner : 0 ms
[OGL LOG] solve : 9 ms
noneompGKOBiCGStab:  Solving for Ux, Initial residual = 0.0920495, Final residual = 9.86925e-07, No Iterations 22
[OGL LOG] init_host_sparsity_pattern : 4 ms
[OGL LOG] matrix not stored update host matrix
[OGL LOG] update_host_mtx : 2 ms
[OGL LOG] matrix is not yet sorted, sorting host matrix
[OGL LOG] sort_host_mtx_sparsity_pattern : 2 ms
[OGL LOG] sort_host_mtx : 1 ms
[OGL LOG] init_preconditioner : 0 ms
[OGL LOG] solve : 10 ms
noneompGKOBiCGStab:  Solving for Uy, Initial residual = 0.145851, Final residual = 9.74885e-07, No Iterations 22
[OGL LOG] init_host_sparsity_pattern : 4 ms
[OGL LOG] matrix not stored update host matrix
[OGL LOG] update_host_mtx : 1 ms
[OGL LOG] matrix is not yet sorted, sorting host matrix
[OGL LOG] sort_host_mtx_sparsity_pattern : 2 ms
[OGL LOG] sort_host_mtx : 1 ms
[OGL LOG] init_preconditioner : 0 ms
[OGL LOG] solve : 11 ms
noneompGKOBiCGStab:  Solving for Uz, Initial residual = 0.339761, Final residual = 9.39255e-07, No Iterations 24
[OGL LOG] init_preconditioner : 0 ms
[OGL LOG] solve : 50 ms
noneompGKOCG:  Solving for p, Initial residual = 0.305732, Final residual = 9.04707e-07, No Iterations 209
time step continuity errors : sum local = 4.04678e-09, global = -8.9769e-21, cumulative = 1.2016e-19
[OGL LOG] init_preconditioner : 0 ms
[OGL LOG] solve : 50 ms
noneompGKOCG:  Solving for p, Initial residual = 0.265164, Final residual = 9.41683e-07, No Iterations 210
time step continuity errors : sum local = 4.1254e-09, global = -1.36806e-19, cumulative = -1.66461e-20
ExecutionTime = 3.63 s  ClockTime = 0 s

Time = 0.016

Courant Number mean: 0.145254 max: 0.82722
[OGL LOG] init_host_sparsity_pattern : 4 ms
[OGL LOG] matrix not stored update host matrix
[OGL LOG] update_host_mtx : 1 ms
[OGL LOG] matrix is not yet sorted, sorting host matrix
[OGL LOG] sort_host_mtx_sparsity_pattern : 2 ms
[OGL LOG] sort_host_mtx : 1 ms
[OGL LOG] init_preconditioner : 0 ms
[OGL LOG] solve : 9 ms
noneompGKOBiCGStab:  Solving for Ux, Initial residual = 0.0235043, Final residual = 9.57924e-07, No Iterations 19
[OGL LOG] init_host_sparsity_pattern : 4 ms
[OGL LOG] matrix not stored update host matrix
[OGL LOG] update_host_mtx : 1 ms
[OGL LOG] matrix is not yet sorted, sorting host matrix
[OGL LOG] sort_host_mtx_sparsity_pattern : 2 ms
[OGL LOG] sort_host_mtx : 1 ms
[OGL LOG] init_preconditioner : 0 ms
[OGL LOG] solve : 10 ms
noneompGKOBiCGStab:  Solving for Uy, Initial residual = 0.0608567, Final residual = 8.98211e-07, No Iterations 22
[OGL LOG] init_host_sparsity_pattern : 4 ms
[OGL LOG] matrix not stored update host matrix
[OGL LOG] update_host_mtx : 1 ms
[OGL LOG] matrix is not yet sorted, sorting host matrix
[OGL LOG] sort_host_mtx_sparsity_pattern : 2 ms
[OGL LOG] sort_host_mtx : 1 ms
[OGL LOG] init_preconditioner : 0 ms
[OGL LOG] solve : 11 ms
noneompGKOBiCGStab:  Solving for Uz, Initial residual = 0.184291, Final residual = 7.91231e-07, No Iterations 23
[OGL LOG] init_preconditioner : 0 ms
[OGL LOG] solve : 51 ms
noneompGKOCG:  Solving for p, Initial residual = 0.239443, Final residual = 8.75328e-07, No Iterations 211
time step continuity errors : sum local = 4.06636e-09, global = 1.58679e-20, cumulative = -7.78254e-22
[OGL LOG] init_preconditioner : 0 ms
[OGL LOG] solve : 51 ms
noneompGKOCG:  Solving for p, Initial residual = 0.222234, Final residual = 8.7697e-07, No Iterations 210
time step continuity errors : sum local = 4.12e-09, global = 1.54582e-20, cumulative = 1.46799e-20
ExecutionTime = 4.86 s  ClockTime = 0 s

Time = 0.02

Courant Number mean: 0.157058 max: 0.845844
[OGL LOG] init_host_sparsity_pattern : 4 ms
[OGL LOG] matrix not stored update host matrix
[OGL LOG] update_host_mtx : 1 ms
[OGL LOG] matrix is not yet sorted, sorting host matrix
[OGL LOG] sort_host_mtx_sparsity_pattern : 2 ms
[OGL LOG] sort_host_mtx : 1 ms
[OGL LOG] init_preconditioner : 0 ms
[OGL LOG] solve : 8 ms
noneompGKOBiCGStab:  Solving for Ux, Initial residual = 0.0150185, Final residual = 9.60127e-07, No Iterations 18
[OGL LOG] init_host_sparsity_pattern : 4 ms
[OGL LOG] matrix not stored update host matrix
[OGL LOG] update_host_mtx : 1 ms
[OGL LOG] matrix is not yet sorted, sorting host matrix
[OGL LOG] sort_host_mtx_sparsity_pattern : 2 ms
[OGL LOG] sort_host_mtx : 1 ms
[OGL LOG] init_preconditioner : 0 ms
[OGL LOG] solve : 9 ms
noneompGKOBiCGStab:  Solving for Uy, Initial residual = 0.028096, Final residual = 9.94655e-07, No Iterations 20
[OGL LOG] init_host_sparsity_pattern : 4 ms
[OGL LOG] matrix not stored update host matrix
[OGL LOG] update_host_mtx : 1 ms
[OGL LOG] matrix is not yet sorted, sorting host matrix
[OGL LOG] sort_host_mtx_sparsity_pattern : 2 ms
[OGL LOG] sort_host_mtx : 1 ms
[OGL LOG] init_preconditioner : 0 ms
[OGL LOG] solve : 10 ms
noneompGKOBiCGStab:  Solving for Uz, Initial residual = 0.0757739, Final residual = 9.63815e-07, No Iterations 21
[OGL LOG] init_preconditioner : 0 ms
[OGL LOG] solve : 50 ms
noneompGKOCG:  Solving for p, Initial residual = 0.234834, Final residual = 8.65625e-07, No Iterations 210
time step continuity errors : sum local = 3.97252e-09, global = -9.81257e-20, cumulative = -8.34458e-20
[OGL LOG] init_preconditioner : 0 ms
[OGL LOG] solve : 51 ms
noneompGKOCG:  Solving for p, Initial residual = 0.233062, Final residual = 9.79245e-07, No Iterations 209
time step continuity errors : sum local = 4.49646e-09, global = 3.8832e-20, cumulative = -4.46139e-20
ExecutionTime = 6.09 s  ClockTime = 1 s

End

