/*---------------------------------------------------------------------------*\
  =========                 |
  \\      /  F ield         | OpenFOAM: The Open Source CFD Toolbox
   \\    /   O peration     | Website:  https://openfoam.org
    \\  /    A nd           | Version:  8
     \\/     M anipulation  |
\*---------------------------------------------------------------------------*/
Build  : 8-13d66902f78c
Exec   : icoFoam
Date   : Jul 12 2021
Time   : 12:41:38
Host   : "uc2n438.localdomain"
PID    : 4121791
I/O    : uncollated
Case   : /pfs/data5/home/kit/scc/nq7776/code/OGL_DATA/lidDrivenCavity3D/v0.1-136-g40fef35/f584ccac99/IntelXeonGold6230CPU@2.10GHz/Test_2021-07-12-12:41:27/25/p-BiCGStab-GKO-BJ-omp/lidDrivenCavity3D
nProcs : 1
sigFpe : Enabling floating point exception trapping (FOAM_SIGFPE).
fileModificationChecking : Monitoring run-time modified files using timeStampMaster (fileModificationSkew 10)
allowSystemOperations : Allowing user-supplied system call operations

// * * * * * * * * * * * * * * * * * * * * * * * * * * * * * * * * * * * * * //
Create time

Create mesh for time = 0

Reading transportProperties

Reading field p

Reading field U

Reading/calculating face flux field phi


Starting time loop

Time = 0.004

Courant Number mean: 0 max: 0
nonePBiCGStab:  Solving for Ux, Initial residual = 1, Final residual = 0.0337517, No Iterations 5
nonePBiCGStab:  Solving for Uy, Initial residual = 0, Final residual = 0, No Iterations 0
nonePBiCGStab:  Solving for Uz, Initial residual = 0, Final residual = 0, No Iterations 0
[OGL LOG] init_host_sparsity_pattern : 4 ms
[OGL LOG] matrix not stored update host matrix
[OGL LOG] update_host_mtx : 2 ms
[OGL LOG] matrix is not yet sorted, compute sorting idxs
[OGL LOG] compute_sort : 106 ms
[OGL LOG] matrix is not yet sorted, sorting host matrix
[OGL LOG] sort_host_mtx_sparsity_pattern : 2 ms
[OGL LOG] sort_host_mtx : 1 ms
[OGL LOG] init_preconditioner : 4 ms
[OGL LOG] solve : 382 ms
BJompGKOBiCGStab:  Solving for p, Initial residual = 1, Final residual = 9.96727e-07, No Iterations 141
time step continuity errors : sum local = 1.71942e-07, global = 1.16905e-20, cumulative = 1.16905e-20
[OGL LOG] init_preconditioner : 0 ms
[OGL LOG] solve : 365 ms
BJompGKOBiCGStab:  Solving for p, Initial residual = 0.622329, Final residual = 7.80736e-07, No Iterations 134
time step continuity errors : sum local = 6.86767e-09, global = 7.99503e-20, cumulative = 9.16408e-20
ExecutionTime = 1 s  ClockTime = 1 s

Time = 0.008

Courant Number mean: 0.084228 max: 0.621061
nonePBiCGStab:  Solving for Ux, Initial residual = 0.149592, Final residual = 0.00942717, No Iterations 5
nonePBiCGStab:  Solving for Uy, Initial residual = 0.281197, Final residual = 0.0142253, No Iterations 5
nonePBiCGStab:  Solving for Uz, Initial residual = 0.933365, Final residual = 0.0511612, No Iterations 5
[OGL LOG] init_preconditioner : 0 ms
[OGL LOG] solve : 329 ms
BJompGKOBiCGStab:  Solving for p, Initial residual = 0.518048, Final residual = 5.28577e-07, No Iterations 123
time step continuity errors : sum local = 1.73949e-08, global = -8.48353e-20, cumulative = 6.80552e-21
[OGL LOG] init_preconditioner : 0 ms
[OGL LOG] solve : 333 ms
BJompGKOBiCGStab:  Solving for p, Initial residual = 0.415892, Final residual = 5.96742e-07, No Iterations 124
time step continuity errors : sum local = 4.27469e-08, global = -9.67698e-22, cumulative = 5.83782e-21
ExecutionTime = 1.67 s  ClockTime = 2 s

Time = 0.012

Courant Number mean: 0.124051 max: 0.792235
nonePBiCGStab:  Solving for Ux, Initial residual = 0.0424958, Final residual = 0.00204595, No Iterations 5
nonePBiCGStab:  Solving for Uy, Initial residual = 0.0761583, Final residual = 0.00263716, No Iterations 5
nonePBiCGStab:  Solving for Uz, Initial residual = 0.142732, Final residual = 0.00668664, No Iterations 5
[OGL LOG] init_preconditioner : 0 ms
[OGL LOG] solve : 313 ms
BJompGKOBiCGStab:  Solving for p, Initial residual = 0.279217, Final residual = 9.61296e-07, No Iterations 117
time step continuity errors : sum local = 7.46308e-09, global = -1.23998e-20, cumulative = -6.56198e-21
[OGL LOG] init_preconditioner : 0 ms
[OGL LOG] solve : 318 ms
BJompGKOBiCGStab:  Solving for p, Initial residual = 0.22406, Final residual = 6.24755e-07, No Iterations 119
time step continuity errors : sum local = 5.21098e-09, global = -1.21371e-20, cumulative = -1.86991e-20
ExecutionTime = 2.31 s  ClockTime = 2 s

Time = 0.016

Courant Number mean: 0.142529 max: 0.824384
nonePBiCGStab:  Solving for Ux, Initial residual = 0.0219042, Final residual = 0.000752507, No Iterations 5
nonePBiCGStab:  Solving for Uy, Initial residual = 0.0474689, Final residual = 0.00097523, No Iterations 5
nonePBiCGStab:  Solving for Uz, Initial residual = 0.0927942, Final residual = 0.00323737, No Iterations 5
[OGL LOG] init_preconditioner : 0 ms
[OGL LOG] solve : 305 ms
BJompGKOBiCGStab:  Solving for p, Initial residual = 0.138559, Final residual = 5.44964e-07, No Iterations 114
time step continuity errors : sum local = 1.02707e-08, global = 2.69663e-20, cumulative = 8.2672e-21
[OGL LOG] init_preconditioner : 0 ms
[OGL LOG] solve : 310 ms
BJompGKOBiCGStab:  Solving for p, Initial residual = 0.106569, Final residual = 9.44104e-07, No Iterations 116
time step continuity errors : sum local = 5.15687e-09, global = -7.22749e-23, cumulative = 8.19492e-21
ExecutionTime = 2.95 s  ClockTime = 3 s

Time = 0.02

Courant Number mean: 0.154857 max: 0.843613
nonePBiCGStab:  Solving for Ux, Initial residual = 0.0136628, Final residual = 0.000405752, No Iterations 5
nonePBiCGStab:  Solving for Uy, Initial residual = 0.0288063, Final residual = 0.000727967, No Iterations 5
nonePBiCGStab:  Solving for Uz, Initial residual = 0.0551768, Final residual = 0.00171636, No Iterations 5
[OGL LOG] init_preconditioner : 0 ms
[OGL LOG] solve : 317 ms
BJompGKOBiCGStab:  Solving for p, Initial residual = 0.0654179, Final residual = 9.65784e-07, No Iterations 118
time step continuity errors : sum local = 1.1527e-08, global = -1.67113e-19, cumulative = -1.58918e-19
[OGL LOG] init_preconditioner : 0 ms
[OGL LOG] solve : 303 ms
BJompGKOBiCGStab:  Solving for p, Initial residual = 0.0510778, Final residual = 9.35282e-07, No Iterations 113
time step continuity errors : sum local = 9.80069e-09, global = 1.09285e-19, cumulative = -4.96329e-20
ExecutionTime = 3.58 s  ClockTime = 3 s

End

