/*---------------------------------------------------------------------------*\
  =========                 |
  \\      /  F ield         | OpenFOAM: The Open Source CFD Toolbox
   \\    /   O peration     | Website:  https://openfoam.org
    \\  /    A nd           | Version:  8
     \\/     M anipulation  |
\*---------------------------------------------------------------------------*/
Build  : 8-13d66902f78c
Exec   : icoFoam
Date   : Jul 12 2021
Time   : 14:12:25
Host   : "uc2n445.localdomain"
PID    : 3211139
I/O    : uncollated
Case   : /pfs/data5/home/kit/scc/nq7776/code/OGL_DATA/lidDrivenCavity3D/v0.1-136-g40fef35/f584ccac99/IntelXeonGold6230CPU@2.10GHz/Test_2021-07-12-13:12:59/75/p-U-BiCGStab-GKO-BJ-omp/lidDrivenCavity3D
nProcs : 1
sigFpe : Enabling floating point exception trapping (FOAM_SIGFPE).
fileModificationChecking : Monitoring run-time modified files using timeStampMaster (fileModificationSkew 10)
allowSystemOperations : Allowing user-supplied system call operations

// * * * * * * * * * * * * * * * * * * * * * * * * * * * * * * * * * * * * * //
Create time

Create mesh for time = 0

Reading transportProperties

Reading field p

Reading field U

Reading/calculating face flux field phi


Starting time loop

Time = 0.00133333

Courant Number mean: 0 max: 0
[OGL LOG] init_host_sparsity_pattern : 120 ms
[OGL LOG] matrix not stored update host matrix
[OGL LOG] update_host_mtx : 61 ms
[OGL LOG] matrix is not yet sorted, compute sorting idxs
[OGL LOG] compute_sort : 3672 ms
[OGL LOG] matrix is not yet sorted, sorting host matrix
[OGL LOG] sort_host_mtx_sparsity_pattern : 77 ms
[OGL LOG] sort_host_mtx : 52 ms
[OGL LOG] init_preconditioner : 59 ms
[OGL LOG] solve : 1645 ms
BJompGKOBiCGStab:  Solving for Ux, Initial residual = 1, Final residual = 8.57454e-07, No Iterations 40
[OGL LOG] init_host_sparsity_pattern : 118 ms
[OGL LOG] matrix not stored update host matrix
[OGL LOG] update_host_mtx : 65 ms
[OGL LOG] matrix is not yet sorted, sorting host matrix
[OGL LOG] sort_host_mtx_sparsity_pattern : 80 ms
[OGL LOG] sort_host_mtx : 44 ms
[OGL LOG] init_preconditioner : 60 ms
[OGL LOG] solve : 33 ms
BJompGKOBiCGStab:  Solving for Uy, Initial residual = 0, Final residual = 0, No Iterations 0
[OGL LOG] init_host_sparsity_pattern : 112 ms
[OGL LOG] matrix not stored update host matrix
[OGL LOG] update_host_mtx : 53 ms
[OGL LOG] matrix is not yet sorted, sorting host matrix
[OGL LOG] sort_host_mtx_sparsity_pattern : 76 ms
[OGL LOG] sort_host_mtx : 47 ms
[OGL LOG] init_preconditioner : 60 ms
[OGL LOG] solve : 32 ms
BJompGKOBiCGStab:  Solving for Uz, Initial residual = 0, Final residual = 0, No Iterations 0
[OGL LOG] init_host_sparsity_pattern : 114 ms
[OGL LOG] matrix not stored update host matrix
[OGL LOG] update_host_mtx : 62 ms
[OGL LOG] matrix is not yet sorted, sorting host matrix
[OGL LOG] sort_host_mtx_sparsity_pattern : 82 ms
[OGL LOG] sort_host_mtx : 43 ms
[OGL LOG] init_preconditioner : 59 ms
[OGL LOG] solve : 17523 ms
BJompGKOBiCGStab:  Solving for p, Initial residual = 1, Final residual = 8.79525e-07, No Iterations 436
time step continuity errors : sum local = 1.3376e-09, global = 1.43223e-21, cumulative = 1.43223e-21
[OGL LOG] init_preconditioner : 0 ms
[OGL LOG] solve : 17071 ms
BJompGKOBiCGStab:  Solving for p, Initial residual = 0.759327, Final residual = 9.31e-07, No Iterations 427
time step continuity errors : sum local = 1.83497e-07, global = 9.79875e-21, cumulative = 1.1231e-20
ExecutionTime = 80.06 s  ClockTime = 44 s

Time = 0.00266667

Courant Number mean: 0.0631769 max: 0.775367
[OGL LOG] init_host_sparsity_pattern : 112 ms
[OGL LOG] matrix not stored update host matrix
[OGL LOG] update_host_mtx : 56 ms
[OGL LOG] matrix is not yet sorted, sorting host matrix
[OGL LOG] sort_host_mtx_sparsity_pattern : 79 ms
[OGL LOG] sort_host_mtx : 43 ms
[OGL LOG] init_preconditioner : 0 ms
[OGL LOG] solve : 1334 ms
BJompGKOBiCGStab:  Solving for Ux, Initial residual = 0.183057, Final residual = 8.36442e-07, No Iterations 32
[OGL LOG] init_host_sparsity_pattern : 112 ms
[OGL LOG] matrix not stored update host matrix
[OGL LOG] update_host_mtx : 58 ms
[OGL LOG] matrix is not yet sorted, sorting host matrix
[OGL LOG] sort_host_mtx_sparsity_pattern : 72 ms
[OGL LOG] sort_host_mtx : 43 ms
[OGL LOG] init_preconditioner : 0 ms
[OGL LOG] solve : 1593 ms
BJompGKOBiCGStab:  Solving for Uy, Initial residual = 0.619605, Final residual = 9.47458e-07, No Iterations 39
[OGL LOG] init_host_sparsity_pattern : 112 ms
[OGL LOG] matrix not stored update host matrix
[OGL LOG] update_host_mtx : 53 ms
[OGL LOG] matrix is not yet sorted, sorting host matrix
[OGL LOG] sort_host_mtx_sparsity_pattern : 72 ms
[OGL LOG] sort_host_mtx : 43 ms
[OGL LOG] init_preconditioner : 0 ms
[OGL LOG] solve : 1731 ms
BJompGKOBiCGStab:  Solving for Uz, Initial residual = 0.605583, Final residual = 9.53674e-07, No Iterations 42
[OGL LOG] init_preconditioner : 0 ms
[OGL LOG] solve : 15519 ms
BJompGKOBiCGStab:  Solving for p, Initial residual = 0.749118, Final residual = 9.17811e-07, No Iterations 388
time step continuity errors : sum local = 2.28286e-09, global = 2.85712e-20, cumulative = 3.98022e-20
[OGL LOG] init_preconditioner : 0 ms
[OGL LOG] solve : 15721 ms
BJompGKOBiCGStab:  Solving for p, Initial residual = 0.68387, Final residual = 8.58609e-07, No Iterations 394
time step continuity errors : sum local = 2.00173e-06, global = 1.73937e-21, cumulative = 4.15416e-20
ExecutionTime = 153.13 s  ClockTime = 81 s

Time = 0.004

Courant Number mean: 0.0951479 max: 0.917101
[OGL LOG] init_host_sparsity_pattern : 113 ms
[OGL LOG] matrix not stored update host matrix
[OGL LOG] update_host_mtx : 58 ms
[OGL LOG] matrix is not yet sorted, sorting host matrix
[OGL LOG] sort_host_mtx_sparsity_pattern : 79 ms
[OGL LOG] sort_host_mtx : 44 ms
[OGL LOG] init_preconditioner : 0 ms
[OGL LOG] solve : 1449 ms
BJompGKOBiCGStab:  Solving for Ux, Initial residual = 0.102273, Final residual = 9.25984e-07, No Iterations 35
[OGL LOG] init_host_sparsity_pattern : 113 ms
[OGL LOG] matrix not stored update host matrix
[OGL LOG] update_host_mtx : 55 ms
[OGL LOG] matrix is not yet sorted, sorting host matrix
[OGL LOG] sort_host_mtx_sparsity_pattern : 72 ms
[OGL LOG] sort_host_mtx : 43 ms
[OGL LOG] init_preconditioner : 0 ms
[OGL LOG] solve : 1547 ms
BJompGKOBiCGStab:  Solving for Uy, Initial residual = 0.334667, Final residual = 3.34595e-07, No Iterations 38
[OGL LOG] init_host_sparsity_pattern : 114 ms
[OGL LOG] matrix not stored update host matrix
[OGL LOG] update_host_mtx : 53 ms
[OGL LOG] matrix is not yet sorted, sorting host matrix
[OGL LOG] sort_host_mtx_sparsity_pattern : 77 ms
[OGL LOG] sort_host_mtx : 43 ms
[OGL LOG] init_preconditioner : 0 ms
[OGL LOG] solve : 1555 ms
BJompGKOBiCGStab:  Solving for Uz, Initial residual = 0.918709, Final residual = 9.73062e-07, No Iterations 38
[OGL LOG] init_preconditioner : 0 ms
[OGL LOG] solve : 16743 ms
BJompGKOBiCGStab:  Solving for p, Initial residual = 0.754724, Final residual = 9.85066e-07, No Iterations 420
time step continuity errors : sum local = 2.30651e-09, global = -1.16201e-20, cumulative = 2.99215e-20
[OGL LOG] init_preconditioner : 0 ms
[OGL LOG] solve : 16115 ms
BJompGKOBiCGStab:  Solving for p, Initial residual = 0.716404, Final residual = 7.7215e-07, No Iterations 405
time step continuity errors : sum local = 1.03096e-09, global = 6.50823e-21, cumulative = 3.64297e-20
ExecutionTime = 229.21 s  ClockTime = 120 s

Time = 0.00533333

Courant Number mean: 0.109266 max: 0.913424
[OGL LOG] init_host_sparsity_pattern : 112 ms
[OGL LOG] matrix not stored update host matrix
[OGL LOG] update_host_mtx : 55 ms
[OGL LOG] matrix is not yet sorted, sorting host matrix
[OGL LOG] sort_host_mtx_sparsity_pattern : 79 ms
[OGL LOG] sort_host_mtx : 44 ms
[OGL LOG] init_preconditioner : 0 ms
[OGL LOG] solve : 1359 ms
BJompGKOBiCGStab:  Solving for Ux, Initial residual = 0.0450069, Final residual = 8.35004e-07, No Iterations 33
[OGL LOG] init_host_sparsity_pattern : 112 ms
[OGL LOG] matrix not stored update host matrix
[OGL LOG] update_host_mtx : 53 ms
[OGL LOG] matrix is not yet sorted, sorting host matrix
[OGL LOG] sort_host_mtx_sparsity_pattern : 72 ms
[OGL LOG] sort_host_mtx : 43 ms
[OGL LOG] init_preconditioner : 0 ms
[OGL LOG] solve : 1458 ms
BJompGKOBiCGStab:  Solving for Uy, Initial residual = 0.197848, Final residual = 9.51263e-07, No Iterations 36
[OGL LOG] init_host_sparsity_pattern : 112 ms
[OGL LOG] matrix not stored update host matrix
[OGL LOG] update_host_mtx : 53 ms
[OGL LOG] matrix is not yet sorted, sorting host matrix
[OGL LOG] sort_host_mtx_sparsity_pattern : 72 ms
[OGL LOG] sort_host_mtx : 43 ms
[OGL LOG] init_preconditioner : 0 ms
[OGL LOG] solve : 1639 ms
BJompGKOBiCGStab:  Solving for Uz, Initial residual = 0.753571, Final residual = 6.95947e-07, No Iterations 40
[OGL LOG] init_preconditioner : 0 ms
[OGL LOG] solve : 16833 ms
BJompGKOBiCGStab:  Solving for p, Initial residual = 0.61818, Final residual = 7.63741e-08, No Iterations 423
time step continuity errors : sum local = 8.58583e-11, global = -1.99802e-20, cumulative = 1.64495e-20
[OGL LOG] init_preconditioner : 0 ms
[OGL LOG] solve : 15416 ms
BJompGKOBiCGStab:  Solving for p, Initial residual = 0.555126, Final residual = 9.76705e-07, No Iterations 387
time step continuity errors : sum local = 1.66184e-09, global = 3.93117e-20, cumulative = 5.57612e-20
ExecutionTime = 303.83 s  ClockTime = 158 s

Time = 0.00666667

Courant Number mean: 0.122088 max: 0.929091
[OGL LOG] init_host_sparsity_pattern : 115 ms
[OGL LOG] matrix not stored update host matrix
[OGL LOG] update_host_mtx : 53 ms
[OGL LOG] matrix is not yet sorted, sorting host matrix
[OGL LOG] sort_host_mtx_sparsity_pattern : 78 ms
[OGL LOG] sort_host_mtx : 43 ms
[OGL LOG] init_preconditioner : 0 ms
[OGL LOG] solve : 1051 ms
BJompGKOBiCGStab:  Solving for Ux, Initial residual = 0.0319391, Final residual = 7.50163e-07, No Iterations 26
[OGL LOG] init_host_sparsity_pattern : 112 ms
[OGL LOG] matrix not stored update host matrix
[OGL LOG] update_host_mtx : 53 ms
[OGL LOG] matrix is not yet sorted, sorting host matrix
[OGL LOG] sort_host_mtx_sparsity_pattern : 72 ms
[OGL LOG] sort_host_mtx : 43 ms
[OGL LOG] init_preconditioner : 0 ms
[OGL LOG] solve : 1392 ms
BJompGKOBiCGStab:  Solving for Uy, Initial residual = 0.0811799, Final residual = 8.10437e-07, No Iterations 34
[OGL LOG] init_host_sparsity_pattern : 112 ms
[OGL LOG] matrix not stored update host matrix
[OGL LOG] update_host_mtx : 53 ms
[OGL LOG] matrix is not yet sorted, sorting host matrix
[OGL LOG] sort_host_mtx_sparsity_pattern : 72 ms
[OGL LOG] sort_host_mtx : 43 ms
[OGL LOG] init_preconditioner : 0 ms
[OGL LOG] solve : 1572 ms
BJompGKOBiCGStab:  Solving for Uz, Initial residual = 0.528636, Final residual = 8.7808e-07, No Iterations 38
[OGL LOG] init_preconditioner : 0 ms
[OGL LOG] solve : 17428 ms
BJompGKOBiCGStab:  Solving for p, Initial residual = 0.592755, Final residual = 9.50075e-07, No Iterations 437
time step continuity errors : sum local = 8.91157e-10, global = 6.93062e-21, cumulative = 6.26919e-20
[OGL LOG] init_preconditioner : 0 ms
[OGL LOG] solve : 18803 ms
BJompGKOBiCGStab:  Solving for p, Initial residual = 0.54343, Final residual = 9.77692e-07, No Iterations 472
time step continuity errors : sum local = 9.636e-10, global = -2.6056e-20, cumulative = 3.66358e-20
ExecutionTime = 385.47 s  ClockTime = 199 s

End

