/*---------------------------------------------------------------------------*\
  =========                 |
  \\      /  F ield         | OpenFOAM: The Open Source CFD Toolbox
   \\    /   O peration     | Website:  https://openfoam.org
    \\  /    A nd           | Version:  8
     \\/     M anipulation  |
\*---------------------------------------------------------------------------*/
Build  : 8-13d66902f78c
Exec   : icoFoam
Date   : Jul 12 2021
Time   : 12:57:40
Host   : "uc2n438.localdomain"
PID    : 4128141
I/O    : uncollated
Case   : /pfs/data5/home/kit/scc/nq7776/code/OGL_DATA/lidDrivenCavity3D/v0.1-136-g40fef35/f584ccac99/IntelXeonGold6230CPU@2.10GHz/Test_2021-07-12-12:41:27/50/p-BiCGStab-GKO-BJ-omp/lidDrivenCavity3D
nProcs : 1
sigFpe : Enabling floating point exception trapping (FOAM_SIGFPE).
fileModificationChecking : Monitoring run-time modified files using timeStampMaster (fileModificationSkew 10)
allowSystemOperations : Allowing user-supplied system call operations

// * * * * * * * * * * * * * * * * * * * * * * * * * * * * * * * * * * * * * //
Create time

Create mesh for time = 0

Reading transportProperties

Reading field p

Reading field U

Reading/calculating face flux field phi


Starting time loop

Time = 0.002

Courant Number mean: 0 max: 0
nonePBiCGStab:  Solving for Ux, Initial residual = 1, Final residual = 0.0592055, No Iterations 5
nonePBiCGStab:  Solving for Uy, Initial residual = 0, Final residual = 0, No Iterations 0
nonePBiCGStab:  Solving for Uz, Initial residual = 0, Final residual = 0, No Iterations 0
[OGL LOG] init_host_sparsity_pattern : 35 ms
[OGL LOG] matrix not stored update host matrix
[OGL LOG] update_host_mtx : 18 ms
[OGL LOG] matrix is not yet sorted, compute sorting idxs
[OGL LOG] compute_sort : 985 ms
[OGL LOG] matrix is not yet sorted, sorting host matrix
[OGL LOG] sort_host_mtx_sparsity_pattern : 24 ms
[OGL LOG] sort_host_mtx : 15 ms
[OGL LOG] init_preconditioner : 10 ms
[OGL LOG] solve : 2010 ms
BJompGKOBiCGStab:  Solving for p, Initial residual = 1, Final residual = 9.53558e-07, No Iterations 281
time step continuity errors : sum local = 5.38111e-09, global = -7.53076e-21, cumulative = -7.53076e-21
[OGL LOG] init_preconditioner : 0 ms
[OGL LOG] solve : 1773 ms
BJompGKOBiCGStab:  Solving for p, Initial residual = 0.676727, Final residual = 8.18939e-07, No Iterations 248
time step continuity errors : sum local = 1.10692e-06, global = -3.35639e-21, cumulative = -1.08871e-20
ExecutionTime = 16.88 s  ClockTime = 5 s

Time = 0.004

Courant Number mean: 0.0636245 max: 0.723794
nonePBiCGStab:  Solving for Ux, Initial residual = 0.144087, Final residual = 0.0219019, No Iterations 5
nonePBiCGStab:  Solving for Uy, Initial residual = 0.363955, Final residual = 0.0526097, No Iterations 5
nonePBiCGStab:  Solving for Uz, Initial residual = 0.966809, Final residual = 0.160158, No Iterations 5
[OGL LOG] init_preconditioner : 0 ms
[OGL LOG] solve : 1904 ms
BJompGKOBiCGStab:  Solving for p, Initial residual = 0.668553, Final residual = 9.37011e-07, No Iterations 265
time step continuity errors : sum local = 1.18068e-07, global = 1.19097e-20, cumulative = 1.02259e-21
[OGL LOG] init_preconditioner : 0 ms
[OGL LOG] solve : 1833 ms
BJompGKOBiCGStab:  Solving for p, Initial residual = 0.584853, Final residual = 1.37085e-07, No Iterations 257
time step continuity errors : sum local = 3.09597e-07, global = 1.72778e-20, cumulative = 1.83004e-20
ExecutionTime = 31.96 s  ClockTime = 9 s

Time = 0.006

Courant Number mean: 0.0972191 max: 0.862489
nonePBiCGStab:  Solving for Ux, Initial residual = 0.052406, Final residual = 0.00686322, No Iterations 5
nonePBiCGStab:  Solving for Uy, Initial residual = 0.127253, Final residual = 0.0202307, No Iterations 5
nonePBiCGStab:  Solving for Uz, Initial residual = 0.369512, Final residual = 0.0542203, No Iterations 5
[OGL LOG] init_preconditioner : 0 ms
[OGL LOG] solve : 1925 ms
BJompGKOBiCGStab:  Solving for p, Initial residual = 0.59453, Final residual = 8.82292e-07, No Iterations 272
time step continuity errors : sum local = 2.18751e-09, global = 7.3776e-21, cumulative = 2.5678e-20
[OGL LOG] init_preconditioner : 0 ms
[OGL LOG] solve : 1939 ms
BJompGKOBiCGStab:  Solving for p, Initial residual = 0.52855, Final residual = 2.6671e-07, No Iterations 276
time step continuity errors : sum local = 4.42374e-10, global = -3.45503e-20, cumulative = -8.87231e-21
ExecutionTime = 47.54 s  ClockTime = 13 s

Time = 0.008

Courant Number mean: 0.113783 max: 0.882471
nonePBiCGStab:  Solving for Ux, Initial residual = 0.0289691, Final residual = 0.00344564, No Iterations 5
nonePBiCGStab:  Solving for Uy, Initial residual = 0.0844284, Final residual = 0.0109434, No Iterations 5
nonePBiCGStab:  Solving for Uz, Initial residual = 0.230172, Final residual = 0.0316842, No Iterations 5
[OGL LOG] init_preconditioner : 0 ms
[OGL LOG] solve : 1084 ms
BJompGKOBiCGStab:  Solving for p, Initial residual = 0.411312, Final residual = 9.88964e-07, No Iterations 152
time step continuity errors : sum local = 1.90703e-09, global = 1.86588e-20, cumulative = 9.78648e-21
[OGL LOG] init_preconditioner : 0 ms
[OGL LOG] solve : 1729 ms
BJompGKOBiCGStab:  Solving for p, Initial residual = 0.342529, Final residual = 5.25957e-07, No Iterations 246
time step continuity errors : sum local = 7.53649e-09, global = -1.88002e-20, cumulative = -9.01374e-21
ExecutionTime = 58.92 s  ClockTime = 16 s

Time = 0.01

Courant Number mean: 0.12733 max: 0.898873
nonePBiCGStab:  Solving for Ux, Initial residual = 0.0202796, Final residual = 0.00208811, No Iterations 5
nonePBiCGStab:  Solving for Uy, Initial residual = 0.0505779, Final residual = 0.00625038, No Iterations 5
nonePBiCGStab:  Solving for Uz, Initial residual = 0.11373, Final residual = 0.0181498, No Iterations 5
[OGL LOG] init_preconditioner : 0 ms
[OGL LOG] solve : 1841 ms
BJompGKOBiCGStab:  Solving for p, Initial residual = 0.353939, Final residual = 5.33886e-07, No Iterations 258
time step continuity errors : sum local = 2.40376e-09, global = -1.0297e-20, cumulative = -1.93107e-20
[OGL LOG] init_preconditioner : 0 ms
[OGL LOG] solve : 1805 ms
BJompGKOBiCGStab:  Solving for p, Initial residual = 0.302106, Final residual = 4.56598e-07, No Iterations 258
time step continuity errors : sum local = 2.99864e-09, global = 5.79241e-20, cumulative = 3.86134e-20
ExecutionTime = 73.63 s  ClockTime = 20 s

End

