/*---------------------------------------------------------------------------*\
  =========                 |
  \\      /  F ield         | OpenFOAM: The Open Source CFD Toolbox
   \\    /   O peration     | Website:  https://openfoam.org
    \\  /    A nd           | Version:  8
     \\/     M anipulation  |
\*---------------------------------------------------------------------------*/
Build  : 8-13d66902f78c
Exec   : icoFoam
Date   : Jul 14 2021
Time   : 02:39:45
Host   : "uc2n480.localdomain"
PID    : 627592
I/O    : uncollated
Case   : /pfs/data5/home/kit/scc/nq7776/code/OGL_DATA/lidDrivenCavity3D/v0.1-136-g40fef35/f584ccac99/IntelXeonGold6230CPU@2.10GHz/Test_2021-07-14-02:36:35/75/p-BiCGStab-OF-none-reference/lidDrivenCavity3D
nProcs : 1
sigFpe : Enabling floating point exception trapping (FOAM_SIGFPE).
fileModificationChecking : Monitoring run-time modified files using timeStampMaster (fileModificationSkew 10)
allowSystemOperations : Allowing user-supplied system call operations

// * * * * * * * * * * * * * * * * * * * * * * * * * * * * * * * * * * * * * //
Create time

Create mesh for time = 0

Reading transportProperties

Reading field p

Reading field U

Reading/calculating face flux field phi


Starting time loop

Time = 0.00133333

Courant Number mean: 0 max: 0
nonePBiCGStab:  Solving for Ux, Initial residual = 1, Final residual = 0.0730209, No Iterations 5
nonePBiCGStab:  Solving for Uy, Initial residual = 0, Final residual = 0, No Iterations 0
nonePBiCGStab:  Solving for Uz, Initial residual = 0, Final residual = 0, No Iterations 0
nonePBiCGStab:  Solving for p, Initial residual = 1, Final residual = 6.06707e-07, No Iterations 551
time step continuity errors : sum local = 7.70914e-10, global = 1.64403e-20, cumulative = 1.64403e-20
nonePBiCGStab:  Solving for p, Initial residual = 0.697096, Final residual = 4.88899e-07, No Iterations 548
time step continuity errors : sum local = 8.66483e-10, global = -9.95506e-21, cumulative = 6.48521e-21
ExecutionTime = 14.05 s  ClockTime = 14 s

Time = 0.00266667

Courant Number mean: 0.0508075 max: 0.767258
nonePBiCGStab:  Solving for Ux, Initial residual = 0.140589, Final residual = 0.0324514, No Iterations 5
nonePBiCGStab:  Solving for Uy, Initial residual = 0.413641, Final residual = 0.0923259, No Iterations 5
nonePBiCGStab:  Solving for Uz, Initial residual = 0.9832, Final residual = 0.249879, No Iterations 5
nonePBiCGStab:  Solving for p, Initial residual = 0.746891, Final residual = 2.00557e-07, No Iterations 542
time step continuity errors : sum local = 5.40057e-10, global = -7.80264e-21, cumulative = -1.31743e-21
nonePBiCGStab:  Solving for p, Initial residual = 0.668132, Final residual = 9.53873e-07, No Iterations 546
time step continuity errors : sum local = 2.61989e-09, global = -1.0222e-21, cumulative = -2.33962e-21
ExecutionTime = 26.46 s  ClockTime = 27 s

Time = 0.004

Courant Number mean: 0.0796134 max: 0.886044
nonePBiCGStab:  Solving for Ux, Initial residual = 0.0584512, Final residual = 0.0111493, No Iterations 5
nonePBiCGStab:  Solving for Uy, Initial residual = 0.171948, Final residual = 0.0398746, No Iterations 5
nonePBiCGStab:  Solving for Uz, Initial residual = 0.611079, Final residual = 0.142372, No Iterations 5
nonePBiCGStab:  Solving for p, Initial residual = 0.730357, Final residual = 6.20299e-07, No Iterations 519
time step continuity errors : sum local = 1.07197e-09, global = 5.91503e-21, cumulative = 3.57541e-21
nonePBiCGStab:  Solving for p, Initial residual = 0.660888, Final residual = 9.53451e-07, No Iterations 530
time step continuity errors : sum local = 1.56922e-09, global = -6.59815e-21, cumulative = -3.02274e-21
ExecutionTime = 38.52 s  ClockTime = 39 s

Time = 0.00533333

Courant Number mean: 0.0948106 max: 0.902572
nonePBiCGStab:  Solving for Ux, Initial residual = 0.0345948, Final residual = 0.0068289, No Iterations 5
nonePBiCGStab:  Solving for Uy, Initial residual = 0.119549, Final residual = 0.0298199, No Iterations 5
nonePBiCGStab:  Solving for Uz, Initial residual = 0.386311, Final residual = 0.0806914, No Iterations 5
nonePBiCGStab:  Solving for p, Initial residual = 0.609795, Final residual = 7.97544e-07, No Iterations 512
time step continuity errors : sum local = 1.57303e-09, global = 5.51496e-21, cumulative = 2.49222e-21
nonePBiCGStab:  Solving for p, Initial residual = 0.521108, Final residual = 9.08322e-07, No Iterations 532
time step continuity errors : sum local = 1.82984e-09, global = -1.45583e-21, cumulative = 1.03639e-21
ExecutionTime = 50.48 s  ClockTime = 51 s

Time = 0.00666667

Courant Number mean: 0.107177 max: 0.916781
nonePBiCGStab:  Solving for Ux, Initial residual = 0.025735, Final residual = 0.00503207, No Iterations 5
nonePBiCGStab:  Solving for Uy, Initial residual = 0.0750408, Final residual = 0.0208181, No Iterations 5
nonePBiCGStab:  Solving for Uz, Initial residual = 0.212993, Final residual = 0.0496561, No Iterations 5
nonePBiCGStab:  Solving for p, Initial residual = 0.629326, Final residual = 9.91004e-07, No Iterations 523
time step continuity errors : sum local = 8.58301e-10, global = -9.88727e-21, cumulative = -8.85089e-21
nonePBiCGStab:  Solving for p, Initial residual = 0.552151, Final residual = 5.34188e-07, No Iterations 598
time step continuity errors : sum local = 4.7067e-10, global = 2.99566e-20, cumulative = 2.11057e-20
ExecutionTime = 63.33 s  ClockTime = 64 s

End

