/*---------------------------------------------------------------------------*\
  =========                 |
  \\      /  F ield         | OpenFOAM: The Open Source CFD Toolbox
   \\    /   O peration     | Website:  https://openfoam.org
    \\  /    A nd           | Version:  8
     \\/     M anipulation  |
\*---------------------------------------------------------------------------*/
Build  : 8-13d66902f78c
Exec   : icoFoam
Date   : Jul 14 2021
Time   : 01:57:48
Host   : "uc2n538.localdomain"
PID    : 2780839
I/O    : uncollated
Case   : /pfs/data5/home/kit/scc/nq7776/code/OGL_DATA/lidDrivenCavity3D/v0.1-136-g40fef35/f584ccac99/IntelXeonGold6230CPU@2.10GHz/Test_2021-07-14-01:57:38/25/p-U-CG-OF-none-reference/lidDrivenCavity3D
nProcs : 1
sigFpe : Enabling floating point exception trapping (FOAM_SIGFPE).
fileModificationChecking : Monitoring run-time modified files using timeStampMaster (fileModificationSkew 10)
allowSystemOperations : Allowing user-supplied system call operations

// * * * * * * * * * * * * * * * * * * * * * * * * * * * * * * * * * * * * * //
Create time

Create mesh for time = 0

Reading transportProperties

Reading field p

Reading field U

Reading/calculating face flux field phi


Starting time loop

Time = 0.004

Courant Number mean: 0 max: 0
nonePBiCGStab:  Solving for Ux, Initial residual = 1, Final residual = 7.65405e-07, No Iterations 29
nonePBiCGStab:  Solving for Uy, Initial residual = 0, Final residual = 0, No Iterations 0
nonePBiCGStab:  Solving for Uz, Initial residual = 0, Final residual = 0, No Iterations 0
nonePCG:  Solving for p, Initial residual = 1, Final residual = 8.45231e-07, No Iterations 219
time step continuity errors : sum local = 3.74963e-09, global = 2.42542e-20, cumulative = 2.42542e-20
nonePCG:  Solving for p, Initial residual = 0.644081, Final residual = 9.78359e-07, No Iterations 214
time step continuity errors : sum local = 6.13898e-09, global = 3.96464e-20, cumulative = 6.39005e-20
ExecutionTime = 0.19 s  ClockTime = 0 s

Time = 0.008

Courant Number mean: 0.0870973 max: 0.619854
nonePBiCGStab:  Solving for Ux, Initial residual = 0.155596, Final residual = 8.35648e-07, No Iterations 24
nonePBiCGStab:  Solving for Uy, Initial residual = 0.278824, Final residual = 9.73271e-07, No Iterations 25
nonePBiCGStab:  Solving for Uz, Initial residual = 0.935409, Final residual = 8.29575e-07, No Iterations 27
nonePCG:  Solving for p, Initial residual = 0.528614, Final residual = 8.22961e-07, No Iterations 212
time step continuity errors : sum local = 4.94126e-09, global = 3.08538e-22, cumulative = 6.42091e-20
nonePCG:  Solving for p, Initial residual = 0.436137, Final residual = 8.42498e-07, No Iterations 210
time step continuity errors : sum local = 5.27667e-09, global = -6.47039e-20, cumulative = -4.94828e-22
ExecutionTime = 0.28 s  ClockTime = 0 s

Time = 0.012

Courant Number mean: 0.127408 max: 0.79886
nonePBiCGStab:  Solving for Ux, Initial residual = 0.0410194, Final residual = 6.91142e-07, No Iterations 21
nonePBiCGStab:  Solving for Uy, Initial residual = 0.0707715, Final residual = 8.73329e-07, No Iterations 22
nonePBiCGStab:  Solving for Uz, Initial residual = 0.155329, Final residual = 7.1647e-07, No Iterations 23
nonePCG:  Solving for p, Initial residual = 0.273207, Final residual = 9.48234e-07, No Iterations 207
time step continuity errors : sum local = 4.05535e-09, global = 1.18018e-19, cumulative = 1.17523e-19
nonePCG:  Solving for p, Initial residual = 0.222002, Final residual = 9.32964e-07, No Iterations 204
time step continuity errors : sum local = 3.9099e-09, global = -3.52151e-20, cumulative = 8.23076e-20
ExecutionTime = 0.36 s  ClockTime = 0 s

Time = 0.016

Courant Number mean: 0.145283 max: 0.827356
nonePBiCGStab:  Solving for Ux, Initial residual = 0.020704, Final residual = 7.73326e-07, No Iterations 17
nonePBiCGStab:  Solving for Uy, Initial residual = 0.0443348, Final residual = 8.5871e-07, No Iterations 20
nonePBiCGStab:  Solving for Uz, Initial residual = 0.081797, Final residual = 9.23536e-07, No Iterations 22
nonePCG:  Solving for p, Initial residual = 0.129446, Final residual = 8.98641e-07, No Iterations 200
time step continuity errors : sum local = 3.79399e-09, global = 4.69472e-20, cumulative = 1.29255e-19
nonePCG:  Solving for p, Initial residual = 0.100656, Final residual = 8.69596e-07, No Iterations 198
time step continuity errors : sum local = 3.72166e-09, global = 1.22855e-19, cumulative = 2.5211e-19
ExecutionTime = 0.44 s  ClockTime = 1 s

Time = 0.02

Courant Number mean: 0.157111 max: 0.84597
nonePBiCGStab:  Solving for Ux, Initial residual = 0.0127507, Final residual = 7.32416e-07, No Iterations 18
nonePBiCGStab:  Solving for Uy, Initial residual = 0.0265804, Final residual = 9.66888e-07, No Iterations 19
nonePBiCGStab:  Solving for Uz, Initial residual = 0.0476362, Final residual = 8.89541e-07, No Iterations 21
nonePCG:  Solving for p, Initial residual = 0.0611452, Final residual = 9.80437e-07, No Iterations 196
time step continuity errors : sum local = 4.00608e-09, global = -7.42123e-20, cumulative = 1.77898e-19
nonePCG:  Solving for p, Initial residual = 0.0485974, Final residual = 9.40175e-07, No Iterations 194
time step continuity errors : sum local = 3.84107e-09, global = 6.29277e-20, cumulative = 2.40825e-19
ExecutionTime = 0.52 s  ClockTime = 1 s

End

