/*---------------------------------------------------------------------------*\
  =========                 |
  \\      /  F ield         | OpenFOAM: The Open Source CFD Toolbox
   \\    /   O peration     | Website:  https://openfoam.org
    \\  /    A nd           | Version:  8
     \\/     M anipulation  |
\*---------------------------------------------------------------------------*/
Build  : 8-13d66902f78c
Exec   : icoFoam
Date   : Jul 04 2021
Time   : 07:22:17
Host   : "uc2n420.localdomain"
PID    : 1114125
I/O    : uncollated
Case   : /pfs/data5/home/kit/scc/nq7776/code/OGL_DATA/lidDrivenCavity3D/v0.1-136-g40fef35/f584ccac99/IntelXeonGold6230CPU@2.10GHz/Test_2021-07-04-07:18:41/25/p-BiCGStab-GKO-none-omp/lidDrivenCavity3D
nProcs : 1
sigFpe : Enabling floating point exception trapping (FOAM_SIGFPE).
fileModificationChecking : Monitoring run-time modified files using timeStampMaster (fileModificationSkew 10)
allowSystemOperations : Allowing user-supplied system call operations

// * * * * * * * * * * * * * * * * * * * * * * * * * * * * * * * * * * * * * //
Create time

Create mesh for time = 0

Reading transportProperties

Reading field p

Reading field U

Reading/calculating face flux field phi


Starting time loop

Time = 0.004

Courant Number mean: 0 max: 0
nonePBiCGStab:  Solving for Ux, Initial residual = 1, Final residual = 0.0337517, No Iterations 5
nonePBiCGStab:  Solving for Uy, Initial residual = 0, Final residual = 0, No Iterations 0
nonePBiCGStab:  Solving for Uz, Initial residual = 0, Final residual = 0, No Iterations 0
[OGL LOG] init_host_sparsity_pattern : 4 ms
[OGL LOG] matrix not stored update host matrix
[OGL LOG] update_host_mtx : 2 ms
[OGL LOG] matrix is not yet sorted, compute sorting idxs
[OGL LOG] compute_sort : 106 ms
[OGL LOG] matrix is not yet sorted, sorting host matrix
[OGL LOG] sort_host_mtx_sparsity_pattern : 2 ms
[OGL LOG] sort_host_mtx : 1 ms
[OGL LOG] init_preconditioner : 0 ms
[OGL LOG] solve : 69 ms
noneompGKOBiCGStab:  Solving for p, Initial residual = 1, Final residual = 4.91817e-07, No Iterations 170
time step continuity errors : sum local = 2.88949e-09, global = -1.72416e-20, cumulative = -1.72416e-20
[OGL LOG] init_preconditioner : 0 ms
[OGL LOG] solve : 69 ms
noneompGKOBiCGStab:  Solving for p, Initial residual = 0.622285, Final residual = 9.69552e-07, No Iterations 170
time step continuity errors : sum local = 2.01417e-08, global = -6.85401e-20, cumulative = -8.57817e-20
ExecutionTime = 1.39 s  ClockTime = 0 s

Time = 0.008

Courant Number mean: 0.084228 max: 0.621061
nonePBiCGStab:  Solving for Ux, Initial residual = 0.149589, Final residual = 0.00942688, No Iterations 5
nonePBiCGStab:  Solving for Uy, Initial residual = 0.281195, Final residual = 0.0142202, No Iterations 5
nonePBiCGStab:  Solving for Uz, Initial residual = 0.93327, Final residual = 0.05111, No Iterations 5
[OGL LOG] init_preconditioner : 0 ms
[OGL LOG] solve : 70 ms
noneompGKOBiCGStab:  Solving for p, Initial residual = 0.518043, Final residual = 6.69433e-07, No Iterations 171
time step continuity errors : sum local = 9.70528e-07, global = 7.74258e-20, cumulative = -8.35598e-21
[OGL LOG] init_preconditioner : 0 ms
[OGL LOG] solve : 70 ms
noneompGKOBiCGStab:  Solving for p, Initial residual = 0.415953, Final residual = 9.34189e-07, No Iterations 171
time step continuity errors : sum local = 1.78579e-07, global = -5.30489e-20, cumulative = -6.14048e-20
ExecutionTime = 2.58 s  ClockTime = 0 s

Time = 0.012

Courant Number mean: 0.124051 max: 0.792234
nonePBiCGStab:  Solving for Ux, Initial residual = 0.0424936, Final residual = 0.00204628, No Iterations 5
nonePBiCGStab:  Solving for Uy, Initial residual = 0.0761638, Final residual = 0.00263883, No Iterations 5
nonePBiCGStab:  Solving for Uz, Initial residual = 0.142955, Final residual = 0.00673997, No Iterations 5
[OGL LOG] init_preconditioner : 0 ms
[OGL LOG] solve : 75 ms
noneompGKOBiCGStab:  Solving for p, Initial residual = 0.279227, Final residual = 7.77505e-07, No Iterations 172
time step continuity errors : sum local = 4.82252e-08, global = 1.69164e-19, cumulative = 1.07759e-19
[OGL LOG] init_preconditioner : 0 ms
[OGL LOG] solve : 75 ms
noneompGKOBiCGStab:  Solving for p, Initial residual = 0.22406, Final residual = 9.98142e-07, No Iterations 168
time step continuity errors : sum local = 6.46395e-08, global = 2.73191e-20, cumulative = 1.35078e-19
ExecutionTime = 3.85 s  ClockTime = 0 s

Time = 0.016

Courant Number mean: 0.142529 max: 0.824383
nonePBiCGStab:  Solving for Ux, Initial residual = 0.0219018, Final residual = 0.000752655, No Iterations 5
nonePBiCGStab:  Solving for Uy, Initial residual = 0.0474751, Final residual = 0.000976656, No Iterations 5
nonePBiCGStab:  Solving for Uz, Initial residual = 0.0927228, Final residual = 0.00327919, No Iterations 5
[OGL LOG] init_preconditioner : 0 ms
[OGL LOG] solve : 75 ms
noneompGKOBiCGStab:  Solving for p, Initial residual = 0.138563, Final residual = 6.85126e-07, No Iterations 165
time step continuity errors : sum local = 5.38056e-09, global = 1.57199e-19, cumulative = 2.92277e-19
[OGL LOG] init_preconditioner : 0 ms
[OGL LOG] solve : 73 ms
noneompGKOBiCGStab:  Solving for p, Initial residual = 0.106568, Final residual = 9.70436e-07, No Iterations 161
time step continuity errors : sum local = 8.19716e-09, global = -9.86341e-21, cumulative = 2.82414e-19
ExecutionTime = 5.1 s  ClockTime = 0 s

Time = 0.02

Courant Number mean: 0.154856 max: 0.843613
nonePBiCGStab:  Solving for Ux, Initial residual = 0.0136625, Final residual = 0.000404466, No Iterations 5
nonePBiCGStab:  Solving for Uy, Initial residual = 0.028807, Final residual = 0.000726454, No Iterations 5
nonePBiCGStab:  Solving for Uz, Initial residual = 0.0552115, Final residual = 0.00172192, No Iterations 5
[OGL LOG] init_preconditioner : 0 ms
[OGL LOG] solve : 69 ms
noneompGKOBiCGStab:  Solving for p, Initial residual = 0.0654284, Final residual = 4.35278e-07, No Iterations 151
time step continuity errors : sum local = 3.73057e-07, global = 1.88779e-20, cumulative = 3.01292e-19
[OGL LOG] init_preconditioner : 0 ms
[OGL LOG] solve : 72 ms
noneompGKOBiCGStab:  Solving for p, Initial residual = 0.0511556, Final residual = 7.55492e-07, No Iterations 159
time step continuity errors : sum local = 4.31328e-08, global = 8.09035e-20, cumulative = 3.82195e-19
ExecutionTime = 6.29 s  ClockTime = 1 s

End

