/*---------------------------------------------------------------------------*\
  =========                 |
  \\      /  F ield         | OpenFOAM: The Open Source CFD Toolbox
   \\    /   O peration     | Website:  https://openfoam.org
    \\  /    A nd           | Version:  8
     \\/     M anipulation  |
\*---------------------------------------------------------------------------*/
Build  : 8-13d66902f78c
Exec   : icoFoam
Date   : Jul 04 2021
Time   : 08:58:51
Host   : "uc2n423.localdomain"
PID    : 2477202
I/O    : uncollated
Case   : /pfs/data5/home/kit/scc/nq7776/code/OGL_DATA/lidDrivenCavity3D/v0.1-136-g40fef35/f584ccac99/IntelXeonGold6230CPU@2.10GHz/Test_2021-07-04-08:58:23/25/p-U-BiCGStab-GKO-BJ-omp/lidDrivenCavity3D
nProcs : 1
sigFpe : Enabling floating point exception trapping (FOAM_SIGFPE).
fileModificationChecking : Monitoring run-time modified files using timeStampMaster (fileModificationSkew 10)
allowSystemOperations : Allowing user-supplied system call operations

// * * * * * * * * * * * * * * * * * * * * * * * * * * * * * * * * * * * * * //
Create time

Create mesh for time = 0

Reading transportProperties

Reading field p

Reading field U

Reading/calculating face flux field phi


Starting time loop

Time = 0.004

Courant Number mean: 0 max: 0
[OGL LOG] init_host_sparsity_pattern : 4 ms
[OGL LOG] matrix not stored update host matrix
[OGL LOG] update_host_mtx : 2 ms
[OGL LOG] matrix is not yet sorted, compute sorting idxs
[OGL LOG] compute_sort : 106 ms
[OGL LOG] matrix is not yet sorted, sorting host matrix
[OGL LOG] sort_host_mtx_sparsity_pattern : 2 ms
[OGL LOG] sort_host_mtx : 1 ms
[OGL LOG] init_preconditioner : 4 ms
[OGL LOG] solve : 61 ms
BJompGKOBiCGStab:  Solving for Ux, Initial residual = 1, Final residual = 6.47745e-07, No Iterations 22
[OGL LOG] init_host_sparsity_pattern : 4 ms
[OGL LOG] matrix not stored update host matrix
[OGL LOG] update_host_mtx : 2 ms
[OGL LOG] matrix is not yet sorted, sorting host matrix
[OGL LOG] sort_host_mtx_sparsity_pattern : 2 ms
[OGL LOG] sort_host_mtx : 1 ms
[OGL LOG] init_preconditioner : 4 ms
[OGL LOG] solve : 2 ms
BJompGKOBiCGStab:  Solving for Uy, Initial residual = 0, Final residual = 0, No Iterations 0
[OGL LOG] init_host_sparsity_pattern : 4 ms
[OGL LOG] matrix not stored update host matrix
[OGL LOG] update_host_mtx : 1 ms
[OGL LOG] matrix is not yet sorted, sorting host matrix
[OGL LOG] sort_host_mtx_sparsity_pattern : 2 ms
[OGL LOG] sort_host_mtx : 1 ms
[OGL LOG] init_preconditioner : 4 ms
[OGL LOG] solve : 2 ms
BJompGKOBiCGStab:  Solving for Uz, Initial residual = 0, Final residual = 0, No Iterations 0
[OGL LOG] init_host_sparsity_pattern : 4 ms
[OGL LOG] matrix not stored update host matrix
[OGL LOG] update_host_mtx : 2 ms
[OGL LOG] matrix is not yet sorted, sorting host matrix
[OGL LOG] sort_host_mtx_sparsity_pattern : 3 ms
[OGL LOG] sort_host_mtx : 1 ms
[OGL LOG] init_preconditioner : 4 ms
[OGL LOG] solve : 376 ms
BJompGKOBiCGStab:  Solving for p, Initial residual = 1, Final residual = 7.93175e-07, No Iterations 141
time step continuity errors : sum local = 1.39828e-08, global = 5.21583e-20, cumulative = 5.21583e-20
[OGL LOG] init_preconditioner : 0 ms
[OGL LOG] solve : 344 ms
BJompGKOBiCGStab:  Solving for p, Initial residual = 0.644086, Final residual = 5.7009e-07, No Iterations 129
time step continuity errors : sum local = 1.93604e-08, global = 6.21873e-21, cumulative = 5.8377e-20
ExecutionTime = 1.07 s  ClockTime = 1 s

Time = 0.008

Courant Number mean: 0.0870974 max: 0.619854
[OGL LOG] init_host_sparsity_pattern : 4 ms
[OGL LOG] matrix not stored update host matrix
[OGL LOG] update_host_mtx : 1 ms
[OGL LOG] matrix is not yet sorted, sorting host matrix
[OGL LOG] sort_host_mtx_sparsity_pattern : 2 ms
[OGL LOG] sort_host_mtx : 1 ms
[OGL LOG] init_preconditioner : 0 ms
[OGL LOG] solve : 52 ms
BJompGKOBiCGStab:  Solving for Ux, Initial residual = 0.23894, Final residual = 8.64681e-07, No Iterations 19
[OGL LOG] init_host_sparsity_pattern : 4 ms
[OGL LOG] matrix not stored update host matrix
[OGL LOG] update_host_mtx : 1 ms
[OGL LOG] matrix is not yet sorted, sorting host matrix
[OGL LOG] sort_host_mtx_sparsity_pattern : 2 ms
[OGL LOG] sort_host_mtx : 1 ms
[OGL LOG] init_preconditioner : 0 ms
[OGL LOG] solve : 55 ms
BJompGKOBiCGStab:  Solving for Uy, Initial residual = 0.615476, Final residual = 7.7703e-07, No Iterations 20
[OGL LOG] init_host_sparsity_pattern : 4 ms
[OGL LOG] matrix not stored update host matrix
[OGL LOG] update_host_mtx : 1 ms
[OGL LOG] matrix is not yet sorted, sorting host matrix
[OGL LOG] sort_host_mtx_sparsity_pattern : 2 ms
[OGL LOG] sort_host_mtx : 1 ms
[OGL LOG] init_preconditioner : 0 ms
[OGL LOG] solve : 52 ms
BJompGKOBiCGStab:  Solving for Uz, Initial residual = 0.391942, Final residual = 7.3762e-07, No Iterations 19
[OGL LOG] init_preconditioner : 0 ms
[OGL LOG] solve : 338 ms
BJompGKOBiCGStab:  Solving for p, Initial residual = 0.527356, Final residual = 9.59899e-07, No Iterations 127
time step continuity errors : sum local = 3.13887e-08, global = 9.93445e-20, cumulative = 1.57722e-19
[OGL LOG] init_preconditioner : 0 ms
[OGL LOG] solve : 331 ms
BJompGKOBiCGStab:  Solving for p, Initial residual = 0.437511, Final residual = 3.97702e-07, No Iterations 124
time step continuity errors : sum local = 2.09864e-08, global = 1.4522e-19, cumulative = 3.02942e-19
ExecutionTime = 1.95 s  ClockTime = 2 s

Time = 0.012

Courant Number mean: 0.127403 max: 0.798793
[OGL LOG] init_host_sparsity_pattern : 4 ms
[OGL LOG] matrix not stored update host matrix
[OGL LOG] update_host_mtx : 1 ms
[OGL LOG] matrix is not yet sorted, sorting host matrix
[OGL LOG] sort_host_mtx_sparsity_pattern : 2 ms
[OGL LOG] sort_host_mtx : 1 ms
[OGL LOG] init_preconditioner : 0 ms
[OGL LOG] solve : 48 ms
BJompGKOBiCGStab:  Solving for Ux, Initial residual = 0.092049, Final residual = 9.41998e-07, No Iterations 18
[OGL LOG] init_host_sparsity_pattern : 4 ms
[OGL LOG] matrix not stored update host matrix
[OGL LOG] update_host_mtx : 1 ms
[OGL LOG] matrix is not yet sorted, sorting host matrix
[OGL LOG] sort_host_mtx_sparsity_pattern : 2 ms
[OGL LOG] sort_host_mtx : 1 ms
[OGL LOG] init_preconditioner : 0 ms
[OGL LOG] solve : 47 ms
BJompGKOBiCGStab:  Solving for Uy, Initial residual = 0.145853, Final residual = 9.21754e-07, No Iterations 17
[OGL LOG] init_host_sparsity_pattern : 4 ms
[OGL LOG] matrix not stored update host matrix
[OGL LOG] update_host_mtx : 1 ms
[OGL LOG] matrix is not yet sorted, sorting host matrix
[OGL LOG] sort_host_mtx_sparsity_pattern : 2 ms
[OGL LOG] sort_host_mtx : 1 ms
[OGL LOG] init_preconditioner : 0 ms
[OGL LOG] solve : 52 ms
BJompGKOBiCGStab:  Solving for Uz, Initial residual = 0.339728, Final residual = 6.60944e-07, No Iterations 19
[OGL LOG] init_preconditioner : 0 ms
[OGL LOG] solve : 353 ms
BJompGKOBiCGStab:  Solving for p, Initial residual = 0.305734, Final residual = 8.07928e-07, No Iterations 133
time step continuity errors : sum local = 3.62468e-09, global = 5.73236e-22, cumulative = 3.03515e-19
[OGL LOG] init_preconditioner : 0 ms
[OGL LOG] solve : 340 ms
BJompGKOBiCGStab:  Solving for p, Initial residual = 0.265172, Final residual = 8.83543e-07, No Iterations 127
time step continuity errors : sum local = 4.74194e-09, global = -3.44345e-21, cumulative = 3.00072e-19
ExecutionTime = 2.83 s  ClockTime = 3 s

Time = 0.016

Courant Number mean: 0.145254 max: 0.82722
[OGL LOG] init_host_sparsity_pattern : 4 ms
[OGL LOG] matrix not stored update host matrix
[OGL LOG] update_host_mtx : 1 ms
[OGL LOG] matrix is not yet sorted, sorting host matrix
[OGL LOG] sort_host_mtx_sparsity_pattern : 2 ms
[OGL LOG] sort_host_mtx : 1 ms
[OGL LOG] init_preconditioner : 0 ms
[OGL LOG] solve : 40 ms
BJompGKOBiCGStab:  Solving for Ux, Initial residual = 0.0235025, Final residual = 9.82919e-07, No Iterations 15
[OGL LOG] init_host_sparsity_pattern : 4 ms
[OGL LOG] matrix not stored update host matrix
[OGL LOG] update_host_mtx : 1 ms
[OGL LOG] matrix is not yet sorted, sorting host matrix
[OGL LOG] sort_host_mtx_sparsity_pattern : 2 ms
[OGL LOG] sort_host_mtx : 1 ms
[OGL LOG] init_preconditioner : 0 ms
[OGL LOG] solve : 45 ms
BJompGKOBiCGStab:  Solving for Uy, Initial residual = 0.0608573, Final residual = 8.19398e-07, No Iterations 17
[OGL LOG] init_host_sparsity_pattern : 4 ms
[OGL LOG] matrix not stored update host matrix
[OGL LOG] update_host_mtx : 1 ms
[OGL LOG] matrix is not yet sorted, sorting host matrix
[OGL LOG] sort_host_mtx_sparsity_pattern : 2 ms
[OGL LOG] sort_host_mtx : 1 ms
[OGL LOG] init_preconditioner : 0 ms
[OGL LOG] solve : 50 ms
BJompGKOBiCGStab:  Solving for Uz, Initial residual = 0.184296, Final residual = 7.14586e-07, No Iterations 18
[OGL LOG] init_preconditioner : 0 ms
[OGL LOG] solve : 323 ms
BJompGKOBiCGStab:  Solving for p, Initial residual = 0.23944, Final residual = 9.53257e-07, No Iterations 121
time step continuity errors : sum local = 5.32699e-09, global = -5.2935e-20, cumulative = 2.47137e-19
[OGL LOG] init_preconditioner : 0 ms
[OGL LOG] solve : 312 ms
BJompGKOBiCGStab:  Solving for p, Initial residual = 0.22223, Final residual = 8.82634e-07, No Iterations 117
time step continuity errors : sum local = 9.83075e-09, global = 6.87158e-20, cumulative = 3.15852e-19
ExecutionTime = 3.64 s  ClockTime = 4 s

Time = 0.02

Courant Number mean: 0.157058 max: 0.845844
[OGL LOG] init_host_sparsity_pattern : 4 ms
[OGL LOG] matrix not stored update host matrix
[OGL LOG] update_host_mtx : 1 ms
[OGL LOG] matrix is not yet sorted, sorting host matrix
[OGL LOG] sort_host_mtx_sparsity_pattern : 2 ms
[OGL LOG] sort_host_mtx : 1 ms
[OGL LOG] init_preconditioner : 0 ms
[OGL LOG] solve : 41 ms
BJompGKOBiCGStab:  Solving for Ux, Initial residual = 0.0150184, Final residual = 5.10584e-07, No Iterations 15
[OGL LOG] init_host_sparsity_pattern : 4 ms
[OGL LOG] matrix not stored update host matrix
[OGL LOG] update_host_mtx : 1 ms
[OGL LOG] matrix is not yet sorted, sorting host matrix
[OGL LOG] sort_host_mtx_sparsity_pattern : 2 ms
[OGL LOG] sort_host_mtx : 1 ms
[OGL LOG] init_preconditioner : 0 ms
[OGL LOG] solve : 44 ms
BJompGKOBiCGStab:  Solving for Uy, Initial residual = 0.0280963, Final residual = 7.7785e-07, No Iterations 16
[OGL LOG] init_host_sparsity_pattern : 4 ms
[OGL LOG] matrix not stored update host matrix
[OGL LOG] update_host_mtx : 1 ms
[OGL LOG] matrix is not yet sorted, sorting host matrix
[OGL LOG] sort_host_mtx_sparsity_pattern : 2 ms
[OGL LOG] sort_host_mtx : 1 ms
[OGL LOG] init_preconditioner : 0 ms
[OGL LOG] solve : 44 ms
BJompGKOBiCGStab:  Solving for Uz, Initial residual = 0.0758114, Final residual = 8.59936e-07, No Iterations 16
[OGL LOG] init_preconditioner : 0 ms
[OGL LOG] solve : 313 ms
BJompGKOBiCGStab:  Solving for p, Initial residual = 0.234854, Final residual = 9.78514e-07, No Iterations 117
time step continuity errors : sum local = 5.43695e-09, global = -1.77793e-20, cumulative = 2.98073e-19
[OGL LOG] init_preconditioner : 0 ms
[OGL LOG] solve : 283 ms
BJompGKOBiCGStab:  Solving for p, Initial residual = 0.233083, Final residual = 5.84575e-07, No Iterations 106
time step continuity errors : sum local = 1.02937e-08, global = -4.81711e-20, cumulative = 2.49902e-19
ExecutionTime = 4.4 s  ClockTime = 5 s

End

