/*---------------------------------------------------------------------------*\
  =========                 |
  \\      /  F ield         | OpenFOAM: The Open Source CFD Toolbox
   \\    /   O peration     | Website:  https://openfoam.org
    \\  /    A nd           | Version:  8
     \\/     M anipulation  |
\*---------------------------------------------------------------------------*/
Build  : 8-13d66902f78c
Exec   : icoFoam
Date   : Jul 04 2021
Time   : 07:25:23
Host   : "uc2n420.localdomain"
PID    : 1117113
I/O    : uncollated
Case   : /pfs/data5/home/kit/scc/nq7776/code/OGL_DATA/lidDrivenCavity3D/v0.1-136-g40fef35/f584ccac99/IntelXeonGold6230CPU@2.10GHz/Test_2021-07-04-07:18:41/25/p-BiCGStab-GKO-none-omp/lidDrivenCavity3D
nProcs : 1
sigFpe : Enabling floating point exception trapping (FOAM_SIGFPE).
fileModificationChecking : Monitoring run-time modified files using timeStampMaster (fileModificationSkew 10)
allowSystemOperations : Allowing user-supplied system call operations

// * * * * * * * * * * * * * * * * * * * * * * * * * * * * * * * * * * * * * //
Create time

Create mesh for time = 0

Reading transportProperties

Reading field p

Reading field U

Reading/calculating face flux field phi


Starting time loop

Time = 0.004

Courant Number mean: 0 max: 0
nonePBiCGStab:  Solving for Ux, Initial residual = 1, Final residual = 0.0337517, No Iterations 5
nonePBiCGStab:  Solving for Uy, Initial residual = 0, Final residual = 0, No Iterations 0
nonePBiCGStab:  Solving for Uz, Initial residual = 0, Final residual = 0, No Iterations 0
[OGL LOG] init_host_sparsity_pattern : 4 ms
[OGL LOG] matrix not stored update host matrix
[OGL LOG] update_host_mtx : 2 ms
[OGL LOG] matrix is not yet sorted, compute sorting idxs
[OGL LOG] compute_sort : 106 ms
[OGL LOG] matrix is not yet sorted, sorting host matrix
[OGL LOG] sort_host_mtx_sparsity_pattern : 2 ms
[OGL LOG] sort_host_mtx : 1 ms
[OGL LOG] init_preconditioner : 0 ms
[OGL LOG] solve : 225 ms
noneompGKOBiCGStab:  Solving for p, Initial residual = 1, Final residual = 4.91817e-07, No Iterations 170
time step continuity errors : sum local = 2.88949e-09, global = -1.72416e-20, cumulative = -1.72416e-20
[OGL LOG] init_preconditioner : 0 ms
[OGL LOG] solve : 154 ms
noneompGKOBiCGStab:  Solving for p, Initial residual = 0.622285, Final residual = 9.69552e-07, No Iterations 170
time step continuity errors : sum local = 5.13883e-08, global = -6.85354e-20, cumulative = -8.57771e-20
ExecutionTime = 24.19 s  ClockTime = 0 s

Time = 0.008

Courant Number mean: 0.084228 max: 0.621061
nonePBiCGStab:  Solving for Ux, Initial residual = 0.149589, Final residual = 0.00942688, No Iterations 5
nonePBiCGStab:  Solving for Uy, Initial residual = 0.281195, Final residual = 0.0142201, No Iterations 5
nonePBiCGStab:  Solving for Uz, Initial residual = 0.93326, Final residual = 0.0511091, No Iterations 5
[OGL LOG] init_preconditioner : 0 ms
[OGL LOG] solve : 156 ms
noneompGKOBiCGStab:  Solving for p, Initial residual = 0.518043, Final residual = 9.03713e-07, No Iterations 173
time step continuity errors : sum local = 2.24379e-07, global = 7.10954e-20, cumulative = -1.46817e-20
[OGL LOG] init_preconditioner : 0 ms
[OGL LOG] solve : 153 ms
noneompGKOBiCGStab:  Solving for p, Initial residual = 0.415906, Final residual = 6.2954e-08, No Iterations 168
time step continuity errors : sum local = 2.21847e-07, global = 2.6635e-20, cumulative = 1.19533e-20
ExecutionTime = 44.51 s  ClockTime = 1 s

Time = 0.012

Courant Number mean: 0.124051 max: 0.792234
nonePBiCGStab:  Solving for Ux, Initial residual = 0.0424961, Final residual = 0.00204609, No Iterations 5
nonePBiCGStab:  Solving for Uy, Initial residual = 0.0761563, Final residual = 0.00263709, No Iterations 5
nonePBiCGStab:  Solving for Uz, Initial residual = 0.142762, Final residual = 0.0066891, No Iterations 5
[OGL LOG] init_preconditioner : 0 ms
[OGL LOG] solve : 153 ms
noneompGKOBiCGStab:  Solving for p, Initial residual = 0.279214, Final residual = 4.01937e-07, No Iterations 170
time step continuity errors : sum local = 1.49124e-07, global = 4.89887e-21, cumulative = 1.68522e-20
[OGL LOG] init_preconditioner : 0 ms
[OGL LOG] solve : 167 ms
noneompGKOBiCGStab:  Solving for p, Initial residual = 0.224082, Final residual = 8.01144e-07, No Iterations 165
time step continuity errors : sum local = 6.77973e-09, global = -1.17175e-19, cumulative = -1.00322e-19
ExecutionTime = 65.89 s  ClockTime = 1 s

Time = 0.016

Courant Number mean: 0.142529 max: 0.824384
nonePBiCGStab:  Solving for Ux, Initial residual = 0.0219028, Final residual = 0.000752761, No Iterations 5
nonePBiCGStab:  Solving for Uy, Initial residual = 0.0474719, Final residual = 0.000976454, No Iterations 5
nonePBiCGStab:  Solving for Uz, Initial residual = 0.0927132, Final residual = 0.00331795, No Iterations 5
[OGL LOG] init_preconditioner : 0 ms
[OGL LOG] solve : 144 ms
noneompGKOBiCGStab:  Solving for p, Initial residual = 0.138557, Final residual = 5.48154e-07, No Iterations 158
time step continuity errors : sum local = 1.88539e-07, global = 3.9448e-20, cumulative = -6.08744e-20
[OGL LOG] init_preconditioner : 0 ms
[OGL LOG] solve : 156 ms
noneompGKOBiCGStab:  Solving for p, Initial residual = 0.106565, Final residual = 7.91324e-07, No Iterations 169
time step continuity errors : sum local = 5.19324e-08, global = 1.13782e-19, cumulative = 5.2908e-20
ExecutionTime = 85.4 s  ClockTime = 1 s

Time = 0.02

Courant Number mean: 0.154857 max: 0.843613
nonePBiCGStab:  Solving for Ux, Initial residual = 0.0136605, Final residual = 0.000405966, No Iterations 5
nonePBiCGStab:  Solving for Uy, Initial residual = 0.0288124, Final residual = 0.000731424, No Iterations 5
nonePBiCGStab:  Solving for Uz, Initial residual = 0.0552337, Final residual = 0.00184228, No Iterations 5
[OGL LOG] init_preconditioner : 0 ms
[OGL LOG] solve : 145 ms
noneompGKOBiCGStab:  Solving for p, Initial residual = 0.065444, Final residual = 5.58036e-07, No Iterations 157
time step continuity errors : sum local = 1.27562e-07, global = -4.40325e-20, cumulative = 8.87549e-21
[OGL LOG] init_preconditioner : 0 ms
[OGL LOG] solve : 150 ms
noneompGKOBiCGStab:  Solving for p, Initial residual = 0.0511036, Final residual = 2.3155e-07, No Iterations 162
time step continuity errors : sum local = 3.34887e-07, global = 2.84193e-20, cumulative = 3.72948e-20
ExecutionTime = 104.92 s  ClockTime = 2 s

End

