/*---------------------------------------------------------------------------*\
  =========                 |
  \\      /  F ield         | OpenFOAM: The Open Source CFD Toolbox
   \\    /   O peration     | Website:  https://openfoam.org
    \\  /    A nd           | Version:  8
     \\/     M anipulation  |
\*---------------------------------------------------------------------------*/
Build  : 8-13d66902f78c
Exec   : icoFoam
Date   : Jul 04 2021
Time   : 09:17:53
Host   : "uc2n410.localdomain"
PID    : 1313318
I/O    : uncollated
Case   : /pfs/data5/home/kit/scc/nq7776/code/OGL_DATA/lidDrivenCavity3D/v0.1-136-g40fef35/f584ccac99/IntelXeonGold6230CPU@2.10GHz/Test_2021-07-04-09:17:50/25/p-U-CG-OF-none-reference/lidDrivenCavity3D
nProcs : 1
sigFpe : Enabling floating point exception trapping (FOAM_SIGFPE).
fileModificationChecking : Monitoring run-time modified files using timeStampMaster (fileModificationSkew 10)
allowSystemOperations : Allowing user-supplied system call operations

// * * * * * * * * * * * * * * * * * * * * * * * * * * * * * * * * * * * * * //
Create time

Create mesh for time = 0

Reading transportProperties

Reading field p

Reading field U

Reading/calculating face flux field phi


Starting time loop

Time = 0.004

Courant Number mean: 0 max: 0
nonePBiCGStab:  Solving for Ux, Initial residual = 1, Final residual = 7.65408e-07, No Iterations 29
nonePBiCGStab:  Solving for Uy, Initial residual = 0, Final residual = 0, No Iterations 0
nonePBiCGStab:  Solving for Uz, Initial residual = 0, Final residual = 0, No Iterations 0
nonePCG:  Solving for p, Initial residual = 1, Final residual = 8.45232e-07, No Iterations 219
time step continuity errors : sum local = 3.74963e-09, global = 1.95719e-20, cumulative = 1.95719e-20
nonePCG:  Solving for p, Initial residual = 0.644081, Final residual = 9.77297e-07, No Iterations 214
time step continuity errors : sum local = 6.13231e-09, global = 8.82579e-21, cumulative = 2.83977e-20
ExecutionTime = 0.19 s  ClockTime = 0 s

Time = 0.008

Courant Number mean: 0.0870973 max: 0.619854
nonePBiCGStab:  Solving for Ux, Initial residual = 0.155596, Final residual = 8.35648e-07, No Iterations 24
nonePBiCGStab:  Solving for Uy, Initial residual = 0.278824, Final residual = 9.73272e-07, No Iterations 25
nonePBiCGStab:  Solving for Uz, Initial residual = 0.935409, Final residual = 8.2958e-07, No Iterations 27
nonePCG:  Solving for p, Initial residual = 0.528614, Final residual = 8.23069e-07, No Iterations 212
time step continuity errors : sum local = 4.94191e-09, global = -7.88983e-21, cumulative = 2.05079e-20
nonePCG:  Solving for p, Initial residual = 0.436137, Final residual = 8.42922e-07, No Iterations 210
time step continuity errors : sum local = 5.27932e-09, global = -2.00773e-20, cumulative = 4.30606e-22
ExecutionTime = 0.28 s  ClockTime = 0 s

Time = 0.012

Courant Number mean: 0.127408 max: 0.79886
nonePBiCGStab:  Solving for Ux, Initial residual = 0.0410194, Final residual = 6.91142e-07, No Iterations 21
nonePBiCGStab:  Solving for Uy, Initial residual = 0.0707715, Final residual = 8.73332e-07, No Iterations 22
nonePBiCGStab:  Solving for Uz, Initial residual = 0.155329, Final residual = 7.16471e-07, No Iterations 23
nonePCG:  Solving for p, Initial residual = 0.273207, Final residual = 9.54344e-07, No Iterations 207
time step continuity errors : sum local = 4.08146e-09, global = 7.64385e-21, cumulative = 8.07445e-21
nonePCG:  Solving for p, Initial residual = 0.222002, Final residual = 9.20002e-07, No Iterations 204
time step continuity errors : sum local = 3.85555e-09, global = -1.29423e-19, cumulative = -1.21349e-19
ExecutionTime = 0.36 s  ClockTime = 0 s

Time = 0.016

Courant Number mean: 0.145283 max: 0.827356
nonePBiCGStab:  Solving for Ux, Initial residual = 0.020704, Final residual = 7.73347e-07, No Iterations 17
nonePBiCGStab:  Solving for Uy, Initial residual = 0.0443348, Final residual = 8.58724e-07, No Iterations 20
nonePBiCGStab:  Solving for Uz, Initial residual = 0.081797, Final residual = 9.23532e-07, No Iterations 22
nonePCG:  Solving for p, Initial residual = 0.129446, Final residual = 9.09773e-07, No Iterations 200
time step continuity errors : sum local = 3.84099e-09, global = -2.69702e-20, cumulative = -1.48319e-19
nonePCG:  Solving for p, Initial residual = 0.100656, Final residual = 8.6596e-07, No Iterations 198
time step continuity errors : sum local = 3.70611e-09, global = -6.08791e-20, cumulative = -2.09198e-19
ExecutionTime = 0.43 s  ClockTime = 0 s

Time = 0.02

Courant Number mean: 0.157111 max: 0.84597
nonePBiCGStab:  Solving for Ux, Initial residual = 0.0127507, Final residual = 7.32422e-07, No Iterations 18
nonePBiCGStab:  Solving for Uy, Initial residual = 0.0265804, Final residual = 9.66945e-07, No Iterations 19
nonePBiCGStab:  Solving for Uz, Initial residual = 0.0476362, Final residual = 8.89547e-07, No Iterations 21
nonePCG:  Solving for p, Initial residual = 0.0611452, Final residual = 9.80923e-07, No Iterations 196
time step continuity errors : sum local = 4.00807e-09, global = 4.04583e-20, cumulative = -1.6874e-19
nonePCG:  Solving for p, Initial residual = 0.0485974, Final residual = 9.39232e-07, No Iterations 194
time step continuity errors : sum local = 3.83722e-09, global = -9.02767e-20, cumulative = -2.59016e-19
ExecutionTime = 0.51 s  ClockTime = 0 s

End

