/*---------------------------------------------------------------------------*\
  =========                 |
  \\      /  F ield         | OpenFOAM: The Open Source CFD Toolbox
   \\    /   O peration     | Website:  https://openfoam.org
    \\  /    A nd           | Version:  8
     \\/     M anipulation  |
\*---------------------------------------------------------------------------*/
Build  : 8-13d66902f78c
Exec   : icoFoam
Date   : Jul 04 2021
Time   : 07:23:18
Host   : "uc2n420.localdomain"
PID    : 1114656
I/O    : uncollated
Case   : /pfs/data5/home/kit/scc/nq7776/code/OGL_DATA/lidDrivenCavity3D/v0.1-136-g40fef35/f584ccac99/IntelXeonGold6230CPU@2.10GHz/Test_2021-07-04-07:18:41/25/p-BiCGStab-GKO-none-omp/lidDrivenCavity3D
nProcs : 1
sigFpe : Enabling floating point exception trapping (FOAM_SIGFPE).
fileModificationChecking : Monitoring run-time modified files using timeStampMaster (fileModificationSkew 10)
allowSystemOperations : Allowing user-supplied system call operations

// * * * * * * * * * * * * * * * * * * * * * * * * * * * * * * * * * * * * * //
Create time

Create mesh for time = 0

Reading transportProperties

Reading field p

Reading field U

Reading/calculating face flux field phi


Starting time loop

Time = 0.004

Courant Number mean: 0 max: 0
nonePBiCGStab:  Solving for Ux, Initial residual = 1, Final residual = 0.0337517, No Iterations 5
nonePBiCGStab:  Solving for Uy, Initial residual = 0, Final residual = 0, No Iterations 0
nonePBiCGStab:  Solving for Uz, Initial residual = 0, Final residual = 0, No Iterations 0
[OGL LOG] init_host_sparsity_pattern : 4 ms
[OGL LOG] matrix not stored update host matrix
[OGL LOG] update_host_mtx : 2 ms
[OGL LOG] matrix is not yet sorted, compute sorting idxs
[OGL LOG] compute_sort : 106 ms
[OGL LOG] matrix is not yet sorted, sorting host matrix
[OGL LOG] sort_host_mtx_sparsity_pattern : 2 ms
[OGL LOG] sort_host_mtx : 1 ms
[OGL LOG] init_preconditioner : 0 ms
[OGL LOG] solve : 84 ms
noneompGKOBiCGStab:  Solving for p, Initial residual = 1, Final residual = 4.91817e-07, No Iterations 170
time step continuity errors : sum local = 2.88949e-09, global = -1.72416e-20, cumulative = -1.72416e-20
[OGL LOG] init_preconditioner : 0 ms
[OGL LOG] solve : 83 ms
noneompGKOBiCGStab:  Solving for p, Initial residual = 0.622285, Final residual = 9.69552e-07, No Iterations 170
time step continuity errors : sum local = 4.95066e-08, global = -6.8593e-20, cumulative = -8.58347e-20
ExecutionTime = 3.01 s  ClockTime = 1 s

Time = 0.008

Courant Number mean: 0.084228 max: 0.621061
nonePBiCGStab:  Solving for Ux, Initial residual = 0.149589, Final residual = 0.00942688, No Iterations 5
nonePBiCGStab:  Solving for Uy, Initial residual = 0.281195, Final residual = 0.01422, No Iterations 5
nonePBiCGStab:  Solving for Uz, Initial residual = 0.933253, Final residual = 0.0511088, No Iterations 5
[OGL LOG] init_preconditioner : 0 ms
[OGL LOG] solve : 84 ms
noneompGKOBiCGStab:  Solving for p, Initial residual = 0.518041, Final residual = 5.62821e-07, No Iterations 171
time step continuity errors : sum local = 1.06712e-07, global = -1.5141e-19, cumulative = -2.37244e-19
[OGL LOG] init_preconditioner : 0 ms
[OGL LOG] solve : 85 ms
noneompGKOBiCGStab:  Solving for p, Initial residual = 0.415899, Final residual = 8.63105e-08, No Iterations 166
time step continuity errors : sum local = 2.45791e-07, global = 1.66269e-19, cumulative = -7.09755e-20
ExecutionTime = 5.87 s  ClockTime = 1 s

Time = 0.012

Courant Number mean: 0.124051 max: 0.792234
nonePBiCGStab:  Solving for Ux, Initial residual = 0.0424954, Final residual = 0.00204629, No Iterations 5
nonePBiCGStab:  Solving for Uy, Initial residual = 0.0761578, Final residual = 0.00263676, No Iterations 5
nonePBiCGStab:  Solving for Uz, Initial residual = 0.142768, Final residual = 0.00668104, No Iterations 5
[OGL LOG] init_preconditioner : 0 ms
[OGL LOG] solve : 93 ms
noneompGKOBiCGStab:  Solving for p, Initial residual = 0.279223, Final residual = 4.63883e-07, No Iterations 173
time step continuity errors : sum local = 2.23531e-08, global = -3.5823e-20, cumulative = -1.06799e-19
[OGL LOG] init_preconditioner : 0 ms
[OGL LOG] solve : 91 ms
noneompGKOBiCGStab:  Solving for p, Initial residual = 0.224061, Final residual = 7.60132e-07, No Iterations 169
time step continuity errors : sum local = 4.5338e-07, global = -4.63922e-20, cumulative = -1.53191e-19
ExecutionTime = 8.93 s  ClockTime = 1 s

Time = 0.016

Courant Number mean: 0.142529 max: 0.824384
nonePBiCGStab:  Solving for Ux, Initial residual = 0.0219015, Final residual = 0.000753207, No Iterations 5
nonePBiCGStab:  Solving for Uy, Initial residual = 0.0474744, Final residual = 0.000976236, No Iterations 5
nonePBiCGStab:  Solving for Uz, Initial residual = 0.092685, Final residual = 0.00335948, No Iterations 5
[OGL LOG] init_preconditioner : 0 ms
[OGL LOG] solve : 87 ms
noneompGKOBiCGStab:  Solving for p, Initial residual = 0.138583, Final residual = 8.42345e-07, No Iterations 163
time step continuity errors : sum local = 2.40951e-08, global = -7.47136e-20, cumulative = -2.27904e-19
[OGL LOG] init_preconditioner : 0 ms
[OGL LOG] solve : 87 ms
noneompGKOBiCGStab:  Solving for p, Initial residual = 0.10656, Final residual = 8.90234e-07, No Iterations 162
time step continuity errors : sum local = 2.74632e-08, global = -7.85925e-21, cumulative = -2.35764e-19
ExecutionTime = 11.85 s  ClockTime = 1 s

Time = 0.02

Courant Number mean: 0.154857 max: 0.843614
nonePBiCGStab:  Solving for Ux, Initial residual = 0.013662, Final residual = 0.000404492, No Iterations 5
nonePBiCGStab:  Solving for Uy, Initial residual = 0.0288077, Final residual = 0.000727911, No Iterations 5
nonePBiCGStab:  Solving for Uz, Initial residual = 0.055237, Final residual = 0.00179312, No Iterations 5
[OGL LOG] init_preconditioner : 0 ms
[OGL LOG] solve : 82 ms
noneompGKOBiCGStab:  Solving for p, Initial residual = 0.065425, Final residual = 8.87917e-07, No Iterations 155
time step continuity errors : sum local = 8.93307e-08, global = 1.31009e-19, cumulative = -1.04755e-19
[OGL LOG] init_preconditioner : 0 ms
[OGL LOG] solve : 81 ms
noneompGKOBiCGStab:  Solving for p, Initial residual = 0.0510889, Final residual = 1.00777e-07, No Iterations 158
time step continuity errors : sum local = 2.54648e-07, global = 2.84267e-20, cumulative = -7.63284e-20
ExecutionTime = 14.58 s  ClockTime = 2 s

End

