/*---------------------------------------------------------------------------*\
  =========                 |
  \\      /  F ield         | OpenFOAM: The Open Source CFD Toolbox
   \\    /   O peration     | Website:  https://openfoam.org
    \\  /    A nd           | Version:  8
     \\/     M anipulation  |
\*---------------------------------------------------------------------------*/
Build  : 8-13d66902f78c
Exec   : icoFoam
Date   : Jul 04 2021
Time   : 08:15:27
Host   : "uc2n445.localdomain"
PID    : 2184949
I/O    : uncollated
Case   : /pfs/data5/home/kit/scc/nq7776/code/OGL_DATA/lidDrivenCavity3D/v0.1-136-g40fef35/f584ccac99/IntelXeonGold6230CPU@2.10GHz/Test_2021-07-04-08:13:47/25/p-BiCGStab-GKO-BJ-omp/lidDrivenCavity3D
nProcs : 1
sigFpe : Enabling floating point exception trapping (FOAM_SIGFPE).
fileModificationChecking : Monitoring run-time modified files using timeStampMaster (fileModificationSkew 10)
allowSystemOperations : Allowing user-supplied system call operations

// * * * * * * * * * * * * * * * * * * * * * * * * * * * * * * * * * * * * * //
Create time

Create mesh for time = 0

Reading transportProperties

Reading field p

Reading field U

Reading/calculating face flux field phi


Starting time loop

Time = 0.004

Courant Number mean: 0 max: 0
nonePBiCGStab:  Solving for Ux, Initial residual = 1, Final residual = 0.0337517, No Iterations 5
nonePBiCGStab:  Solving for Uy, Initial residual = 0, Final residual = 0, No Iterations 0
nonePBiCGStab:  Solving for Uz, Initial residual = 0, Final residual = 0, No Iterations 0
[OGL LOG] init_host_sparsity_pattern : 4 ms
[OGL LOG] matrix not stored update host matrix
[OGL LOG] update_host_mtx : 2 ms
[OGL LOG] matrix is not yet sorted, compute sorting idxs
[OGL LOG] compute_sort : 105 ms
[OGL LOG] matrix is not yet sorted, sorting host matrix
[OGL LOG] sort_host_mtx_sparsity_pattern : 3 ms
[OGL LOG] sort_host_mtx : 1 ms
[OGL LOG] init_preconditioner : 2 ms
[OGL LOG] solve : 219 ms
BJompGKOBiCGStab:  Solving for p, Initial residual = 1, Final residual = 9.96727e-07, No Iterations 141
time step continuity errors : sum local = 1.71942e-07, global = 1.16905e-20, cumulative = 1.16905e-20
[OGL LOG] init_preconditioner : 0 ms
[OGL LOG] solve : 209 ms
BJompGKOBiCGStab:  Solving for p, Initial residual = 0.622329, Final residual = 7.80736e-07, No Iterations 134
time step continuity errors : sum local = 6.86767e-09, global = 7.99503e-20, cumulative = 9.16408e-20
ExecutionTime = 1.1 s  ClockTime = 1 s

Time = 0.008

Courant Number mean: 0.084228 max: 0.621061
nonePBiCGStab:  Solving for Ux, Initial residual = 0.149592, Final residual = 0.00942717, No Iterations 5
nonePBiCGStab:  Solving for Uy, Initial residual = 0.281197, Final residual = 0.0142253, No Iterations 5
nonePBiCGStab:  Solving for Uz, Initial residual = 0.933365, Final residual = 0.0511612, No Iterations 5
[OGL LOG] init_preconditioner : 0 ms
[OGL LOG] solve : 194 ms
BJompGKOBiCGStab:  Solving for p, Initial residual = 0.518048, Final residual = 5.28577e-07, No Iterations 123
time step continuity errors : sum local = 6.27224e-08, global = -8.48213e-20, cumulative = 6.81958e-21
[OGL LOG] init_preconditioner : 0 ms
[OGL LOG] solve : 191 ms
BJompGKOBiCGStab:  Solving for p, Initial residual = 0.415894, Final residual = 7.41341e-07, No Iterations 122
time step continuity errors : sum local = 1.69629e-08, global = 2.35202e-20, cumulative = 3.03397e-20
ExecutionTime = 1.89 s  ClockTime = 1 s

Time = 0.012

Courant Number mean: 0.124051 max: 0.792235
nonePBiCGStab:  Solving for Ux, Initial residual = 0.0424971, Final residual = 0.00204603, No Iterations 5
nonePBiCGStab:  Solving for Uy, Initial residual = 0.0761549, Final residual = 0.00263714, No Iterations 5
nonePBiCGStab:  Solving for Uz, Initial residual = 0.142709, Final residual = 0.00668787, No Iterations 5
[OGL LOG] init_preconditioner : 0 ms
[OGL LOG] solve : 194 ms
BJompGKOBiCGStab:  Solving for p, Initial residual = 0.279205, Final residual = 9.11566e-07, No Iterations 120
time step continuity errors : sum local = 2.99142e-07, global = 2.71129e-20, cumulative = 5.74526e-20
[OGL LOG] init_preconditioner : 0 ms
[OGL LOG] solve : 189 ms
BJompGKOBiCGStab:  Solving for p, Initial residual = 0.224077, Final residual = 8.8962e-07, No Iterations 120
time step continuity errors : sum local = 2.48956e-07, global = -8.44721e-20, cumulative = -2.70195e-20
ExecutionTime = 2.69 s  ClockTime = 2 s

Time = 0.016

Courant Number mean: 0.142529 max: 0.824384
nonePBiCGStab:  Solving for Ux, Initial residual = 0.0219027, Final residual = 0.000753034, No Iterations 5
nonePBiCGStab:  Solving for Uy, Initial residual = 0.0474717, Final residual = 0.000975652, No Iterations 5
nonePBiCGStab:  Solving for Uz, Initial residual = 0.0926948, Final residual = 0.00333353, No Iterations 5
[OGL LOG] init_preconditioner : 0 ms
[OGL LOG] solve : 171 ms
BJompGKOBiCGStab:  Solving for p, Initial residual = 0.138602, Final residual = 4.66003e-07, No Iterations 109
time step continuity errors : sum local = 2.7551e-08, global = 1.15582e-20, cumulative = -1.54613e-20
[OGL LOG] init_preconditioner : 0 ms
[OGL LOG] solve : 188 ms
BJompGKOBiCGStab:  Solving for p, Initial residual = 0.106566, Final residual = 9.15115e-07, No Iterations 120
time step continuity errors : sum local = 8.45614e-09, global = 1.93453e-20, cumulative = 3.88407e-21
ExecutionTime = 3.43 s  ClockTime = 2 s

Time = 0.02

Courant Number mean: 0.154857 max: 0.843613
nonePBiCGStab:  Solving for Ux, Initial residual = 0.0136635, Final residual = 0.000405468, No Iterations 5
nonePBiCGStab:  Solving for Uy, Initial residual = 0.0288045, Final residual = 0.000727153, No Iterations 5
nonePBiCGStab:  Solving for Uz, Initial residual = 0.0552149, Final residual = 0.00174361, No Iterations 5
[OGL LOG] init_preconditioner : 0 ms
[OGL LOG] solve : 186 ms
BJompGKOBiCGStab:  Solving for p, Initial residual = 0.0654155, Final residual = 9.75521e-07, No Iterations 119
time step continuity errors : sum local = 1.74628e-08, global = 6.81026e-20, cumulative = 7.19866e-20
[OGL LOG] init_preconditioner : 0 ms
[OGL LOG] solve : 181 ms
BJompGKOBiCGStab:  Solving for p, Initial residual = 0.0510744, Final residual = 9.23875e-07, No Iterations 115
time step continuity errors : sum local = 2.40471e-08, global = -1.11038e-19, cumulative = -3.90509e-20
ExecutionTime = 4.18 s  ClockTime = 2 s

End

