/*---------------------------------------------------------------------------*\
  =========                 |
  \\      /  F ield         | OpenFOAM: The Open Source CFD Toolbox
   \\    /   O peration     | Website:  https://openfoam.org
    \\  /    A nd           | Version:  8
     \\/     M anipulation  |
\*---------------------------------------------------------------------------*/
Build  : 8-13d66902f78c
Exec   : icoFoam
Date   : Jul 13 2021
Time   : 23:12:01
Host   : "uc2n525.localdomain"
PID    : 3759656
I/O    : uncollated
Case   : /pfs/data5/home/kit/scc/nq7776/code/OGL_DATA/lidDrivenCavity3D/v0.1-136-g40fef35/f584ccac99/IntelXeonGold6230CPU@2.10GHz/Test_2021-07-13-22:16:26/75/p-BiCGStab-GKO-none-omp/lidDrivenCavity3D
nProcs : 1
sigFpe : Enabling floating point exception trapping (FOAM_SIGFPE).
fileModificationChecking : Monitoring run-time modified files using timeStampMaster (fileModificationSkew 10)
allowSystemOperations : Allowing user-supplied system call operations

// * * * * * * * * * * * * * * * * * * * * * * * * * * * * * * * * * * * * * //
Create time

Create mesh for time = 0

Reading transportProperties

Reading field p

Reading field U

Reading/calculating face flux field phi


Starting time loop

Time = 0.00133333

Courant Number mean: 0 max: 0
nonePBiCGStab:  Solving for Ux, Initial residual = 1, Final residual = 0.0730209, No Iterations 5
nonePBiCGStab:  Solving for Uy, Initial residual = 0, Final residual = 0, No Iterations 0
nonePBiCGStab:  Solving for Uz, Initial residual = 0, Final residual = 0, No Iterations 0
[OGL LOG] init_host_sparsity_pattern : 124 ms
[OGL LOG] matrix not stored update host matrix
[OGL LOG] update_host_mtx : 62 ms
[OGL LOG] matrix is not yet sorted, compute sorting idxs
[OGL LOG] compute_sort : 3334 ms
[OGL LOG] matrix is not yet sorted, sorting host matrix
[OGL LOG] sort_host_mtx_sparsity_pattern : 81 ms
[OGL LOG] sort_host_mtx : 53 ms
[OGL LOG] init_preconditioner : 0 ms
[OGL LOG] solve : 4924 ms
noneompGKOBiCGStab:  Solving for p, Initial residual = 1, Final residual = 8.1714e-07, No Iterations 521
time step continuity errors : sum local = 4.38194e-08, global = 7.57884e-21, cumulative = 7.57884e-21
[OGL LOG] init_preconditioner : 0 ms
[OGL LOG] solve : 4828 ms
noneompGKOBiCGStab:  Solving for p, Initial residual = 0.697119, Final residual = 3.65392e-07, No Iterations 541
time step continuity errors : sum local = 1.36606e-06, global = -2.59004e-21, cumulative = 4.9888e-21
ExecutionTime = 161.35 s  ClockTime = 16 s

Time = 0.00266667

Courant Number mean: 0.0508104 max: 0.767258
nonePBiCGStab:  Solving for Ux, Initial residual = 0.140718, Final residual = 0.0325376, No Iterations 5
nonePBiCGStab:  Solving for Uy, Initial residual = 0.413595, Final residual = 0.0936036, No Iterations 5
nonePBiCGStab:  Solving for Uz, Initial residual = 0.974141, Final residual = 0.253154, No Iterations 5
[OGL LOG] init_preconditioner : 0 ms
[OGL LOG] solve : 5181 ms
noneompGKOBiCGStab:  Solving for p, Initial residual = 0.745403, Final residual = 7.99767e-07, No Iterations 561
time step continuity errors : sum local = 2.40544e-09, global = 9.63066e-21, cumulative = 1.46195e-20
[OGL LOG] init_preconditioner : 0 ms
[OGL LOG] solve : 4534 ms
noneompGKOBiCGStab:  Solving for p, Initial residual = 0.666026, Final residual = 1.9979e-07, No Iterations 507
time step continuity errors : sum local = 3.84814e-07, global = 7.86021e-21, cumulative = 2.24797e-20
ExecutionTime = 317.05 s  ClockTime = 26 s

Time = 0.004

Courant Number mean: 0.0795425 max: 0.885945
nonePBiCGStab:  Solving for Ux, Initial residual = 0.0584511, Final residual = 0.011159, No Iterations 5
nonePBiCGStab:  Solving for Uy, Initial residual = 0.172656, Final residual = 0.0407516, No Iterations 5
nonePBiCGStab:  Solving for Uz, Initial residual = 0.606236, Final residual = 0.146705, No Iterations 5
[OGL LOG] init_preconditioner : 0 ms
[OGL LOG] solve : 4519 ms
noneompGKOBiCGStab:  Solving for p, Initial residual = 0.729726, Final residual = 9.3812e-07, No Iterations 492
time step continuity errors : sum local = 3.7047e-08, global = 5.89483e-21, cumulative = 2.83745e-20
[OGL LOG] init_preconditioner : 0 ms
[OGL LOG] solve : 4803 ms
noneompGKOBiCGStab:  Solving for p, Initial residual = 0.660272, Final residual = 9.50242e-07, No Iterations 525
time step continuity errors : sum local = 5.80838e-07, global = 1.9494e-20, cumulative = 4.78685e-20
ExecutionTime = 466.4 s  ClockTime = 36 s

Time = 0.00533333

Courant Number mean: 0.09474 max: 0.902513
nonePBiCGStab:  Solving for Ux, Initial residual = 0.034652, Final residual = 0.00687952, No Iterations 5
nonePBiCGStab:  Solving for Uy, Initial residual = 0.11976, Final residual = 0.0294019, No Iterations 5
nonePBiCGStab:  Solving for Uz, Initial residual = 0.389174, Final residual = 0.0862182, No Iterations 5
[OGL LOG] init_preconditioner : 0 ms
[OGL LOG] solve : 4323 ms
noneompGKOBiCGStab:  Solving for p, Initial residual = 0.608304, Final residual = 5.3682e-07, No Iterations 473
time step continuity errors : sum local = 1.12332e-06, global = 4.51638e-21, cumulative = 5.23849e-20
[OGL LOG] init_preconditioner : 0 ms
[OGL LOG] solve : 4600 ms
noneompGKOBiCGStab:  Solving for p, Initial residual = 0.519997, Final residual = 7.46425e-07, No Iterations 509
time step continuity errors : sum local = 2.16791e-08, global = 3.50144e-21, cumulative = 5.58863e-20
ExecutionTime = 609.4 s  ClockTime = 46 s

Time = 0.00666667

Courant Number mean: 0.107132 max: 0.916811
nonePBiCGStab:  Solving for Ux, Initial residual = 0.0257911, Final residual = 0.00507301, No Iterations 5
nonePBiCGStab:  Solving for Uy, Initial residual = 0.0750971, Final residual = 0.0214928, No Iterations 5
nonePBiCGStab:  Solving for Uz, Initial residual = 0.218711, Final residual = 0.0554443, No Iterations 5
[OGL LOG] init_preconditioner : 0 ms
[OGL LOG] solve : 4093 ms
noneompGKOBiCGStab:  Solving for p, Initial residual = 0.628138, Final residual = 8.46229e-07, No Iterations 448
time step continuity errors : sum local = 1.48914e-09, global = -3.09335e-22, cumulative = 5.5577e-20
[OGL LOG] init_preconditioner : 0 ms
[OGL LOG] solve : 4268 ms
noneompGKOBiCGStab:  Solving for p, Initial residual = 0.551161, Final residual = 9.11662e-07, No Iterations 473
time step continuity errors : sum local = 3.42056e-09, global = 1.81639e-20, cumulative = 7.37408e-20
ExecutionTime = 743.46 s  ClockTime = 54 s

End

