/*---------------------------------------------------------------------------*\
  =========                 |
  \\      /  F ield         | OpenFOAM: The Open Source CFD Toolbox
   \\    /   O peration     | Website:  https://openfoam.org
    \\  /    A nd           | Version:  8
     \\/     M anipulation  |
\*---------------------------------------------------------------------------*/
Build  : 8-13d66902f78c
Exec   : icoFoam
Date   : Jul 14 2021
Time   : 02:11:43
Host   : "uc2n525.localdomain"
PID    : 3778222
I/O    : uncollated
Case   : /pfs/data5/home/kit/scc/nq7776/code/OGL_DATA/lidDrivenCavity3D/v0.1-136-g40fef35/f584ccac99/IntelXeonGold6230CPU@2.10GHz/Test_2021-07-14-02:08:08/75/p-U-BiCGStab-OF-none-reference/lidDrivenCavity3D
nProcs : 1
sigFpe : Enabling floating point exception trapping (FOAM_SIGFPE).
fileModificationChecking : Monitoring run-time modified files using timeStampMaster (fileModificationSkew 10)
allowSystemOperations : Allowing user-supplied system call operations

// * * * * * * * * * * * * * * * * * * * * * * * * * * * * * * * * * * * * * //
Create time

Create mesh for time = 0

Reading transportProperties

Reading field p

Reading field U

Reading/calculating face flux field phi


Starting time loop

Time = 0.00133333

Courant Number mean: 0 max: 0
nonePBiCGStab:  Solving for Ux, Initial residual = 1, Final residual = 4.80905e-07, No Iterations 51
nonePBiCGStab:  Solving for Uy, Initial residual = 0, Final residual = 0, No Iterations 0
nonePBiCGStab:  Solving for Uz, Initial residual = 0, Final residual = 0, No Iterations 0
nonePBiCGStab:  Solving for p, Initial residual = 1, Final residual = 3.97459e-07, No Iterations 533
time step continuity errors : sum local = 7.26066e-10, global = -1.61042e-21, cumulative = -1.61042e-21
nonePBiCGStab:  Solving for p, Initial residual = 0.759328, Final residual = 9.77611e-07, No Iterations 520
time step continuity errors : sum local = 2.28618e-09, global = 4.04866e-22, cumulative = -1.20555e-21
ExecutionTime = 14.18 s  ClockTime = 14 s

Time = 0.00266667

Courant Number mean: 0.0631769 max: 0.775391
nonePBiCGStab:  Solving for Ux, Initial residual = 0.146102, Final residual = 3.50217e-07, No Iterations 44
nonePBiCGStab:  Solving for Uy, Initial residual = 0.397313, Final residual = 9.9809e-07, No Iterations 49
nonePBiCGStab:  Solving for Uz, Initial residual = 0.986921, Final residual = 7.85325e-07, No Iterations 49
nonePBiCGStab:  Solving for p, Initial residual = 0.749195, Final residual = 3.41725e-07, No Iterations 529
time step continuity errors : sum local = 9.73386e-10, global = 2.74123e-20, cumulative = 2.62068e-20
nonePBiCGStab:  Solving for p, Initial residual = 0.683637, Final residual = 2.49389e-07, No Iterations 563
time step continuity errors : sum local = 7.26154e-10, global = 7.85407e-21, cumulative = 3.40608e-20
ExecutionTime = 28.23 s  ClockTime = 28 s

Time = 0.004

Courant Number mean: 0.0951463 max: 0.917198
nonePBiCGStab:  Solving for Ux, Initial residual = 0.0611249, Final residual = 7.53698e-07, No Iterations 39
nonePBiCGStab:  Solving for Uy, Initial residual = 0.173981, Final residual = 7.37385e-07, No Iterations 44
nonePBiCGStab:  Solving for Uz, Initial residual = 0.741922, Final residual = 8.51394e-07, No Iterations 47
nonePBiCGStab:  Solving for p, Initial residual = 0.753005, Final residual = 3.17981e-07, No Iterations 555
time step continuity errors : sum local = 7.41884e-10, global = -1.49758e-20, cumulative = 1.9085e-20
nonePBiCGStab:  Solving for p, Initial residual = 0.714878, Final residual = 8.63612e-07, No Iterations 568
time step continuity errors : sum local = 1.95586e-09, global = 1.72001e-20, cumulative = 3.62851e-20
ExecutionTime = 42.51 s  ClockTime = 42 s

Time = 0.00533333

Courant Number mean: 0.109258 max: 0.913447
nonePBiCGStab:  Solving for Ux, Initial residual = 0.0319959, Final residual = 7.77515e-07, No Iterations 36
nonePBiCGStab:  Solving for Uy, Initial residual = 0.124107, Final residual = 8.00523e-07, No Iterations 38
nonePBiCGStab:  Solving for Uz, Initial residual = 0.472105, Final residual = 6.66206e-07, No Iterations 46
nonePBiCGStab:  Solving for p, Initial residual = 0.60673, Final residual = 9.13708e-07, No Iterations 501
time step continuity errors : sum local = 1.84991e-09, global = -1.10001e-20, cumulative = 2.52851e-20
nonePBiCGStab:  Solving for p, Initial residual = 0.541011, Final residual = 9.05283e-07, No Iterations 506
time step continuity errors : sum local = 1.86034e-09, global = -4.91749e-21, cumulative = 2.03676e-20
ExecutionTime = 55.4 s  ClockTime = 55 s

Time = 0.00666667

Courant Number mean: 0.122084 max: 0.92886
nonePBiCGStab:  Solving for Ux, Initial residual = 0.0238205, Final residual = 6.62776e-07, No Iterations 37
nonePBiCGStab:  Solving for Uy, Initial residual = 0.0607801, Final residual = 8.73533e-07, No Iterations 43
nonePBiCGStab:  Solving for Uz, Initial residual = 0.303611, Final residual = 5.80528e-07, No Iterations 52
nonePBiCGStab:  Solving for p, Initial residual = 0.56904, Final residual = 8.65777e-07, No Iterations 536
time step continuity errors : sum local = 1.37872e-09, global = -5.70256e-21, cumulative = 1.4665e-20
nonePBiCGStab:  Solving for p, Initial residual = 0.517182, Final residual = 3.6025e-07, No Iterations 493
time step continuity errors : sum local = 4.70522e-10, global = 2.27354e-20, cumulative = 3.74004e-20
ExecutionTime = 68.67 s  ClockTime = 69 s

End

