/*---------------------------------------------------------------------------*\
  =========                 |
  \\      /  F ield         | OpenFOAM: The Open Source CFD Toolbox
   \\    /   O peration     | Website:  https://openfoam.org
    \\  /    A nd           | Version:  8
     \\/     M anipulation  |
\*---------------------------------------------------------------------------*/
Build  : 8-13d66902f78c
Exec   : icoFoam
Date   : Jul 14 2021
Time   : 01:59:01
Host   : "uc2n538.localdomain"
PID    : 2781034
I/O    : uncollated
Case   : /pfs/data5/home/kit/scc/nq7776/code/OGL_DATA/lidDrivenCavity3D/v0.1-136-g40fef35/f584ccac99/IntelXeonGold6230CPU@2.10GHz/Test_2021-07-14-01:57:38/50/p-U-CG-OF-none-reference/lidDrivenCavity3D
nProcs : 1
sigFpe : Enabling floating point exception trapping (FOAM_SIGFPE).
fileModificationChecking : Monitoring run-time modified files using timeStampMaster (fileModificationSkew 10)
allowSystemOperations : Allowing user-supplied system call operations

// * * * * * * * * * * * * * * * * * * * * * * * * * * * * * * * * * * * * * //
Create time

Create mesh for time = 0

Reading transportProperties

Reading field p

Reading field U

Reading/calculating face flux field phi


Starting time loop

Time = 0.002

Courant Number mean: 0 max: 0
nonePBiCGStab:  Solving for Ux, Initial residual = 1, Final residual = 9.47854e-07, No Iterations 42
nonePBiCGStab:  Solving for Uy, Initial residual = 0, Final residual = 0, No Iterations 0
nonePBiCGStab:  Solving for Uz, Initial residual = 0, Final residual = 0, No Iterations 0
nonePCG:  Solving for p, Initial residual = 1, Final residual = 9.02465e-07, No Iterations 444
time step continuity errors : sum local = 1.48599e-09, global = 6.40702e-21, cumulative = 6.40702e-21
nonePCG:  Solving for p, Initial residual = 0.721582, Final residual = 9.47801e-07, No Iterations 440
time step continuity errors : sum local = 2.06919e-09, global = -3.98589e-21, cumulative = 2.42114e-21
ExecutionTime = 1.87 s  ClockTime = 2 s

Time = 0.004

Courant Number mean: 0.0720722 max: 0.726639
nonePBiCGStab:  Solving for Ux, Initial residual = 0.151829, Final residual = 9.85533e-07, No Iterations 36
nonePBiCGStab:  Solving for Uy, Initial residual = 0.353386, Final residual = 9.80823e-07, No Iterations 39
nonePBiCGStab:  Solving for Uz, Initial residual = 0.97797, Final residual = 7.83971e-07, No Iterations 43
nonePCG:  Solving for p, Initial residual = 0.673581, Final residual = 9.96703e-07, No Iterations 428
time step continuity errors : sum local = 2.3651e-09, global = 2.32317e-20, cumulative = 2.56528e-20
nonePCG:  Solving for p, Initial residual = 0.598437, Final residual = 9.84124e-07, No Iterations 430
time step continuity errors : sum local = 2.39788e-09, global = -6.96885e-21, cumulative = 1.86839e-20
ExecutionTime = 3.45 s  ClockTime = 3 s

Time = 0.006

Courant Number mean: 0.107407 max: 0.881779
nonePBiCGStab:  Solving for Ux, Initial residual = 0.0527342, Final residual = 9.74994e-07, No Iterations 33
nonePBiCGStab:  Solving for Uy, Initial residual = 0.117605, Final residual = 9.4793e-07, No Iterations 34
nonePBiCGStab:  Solving for Uz, Initial residual = 0.456604, Final residual = 4.7791e-07, No Iterations 39
nonePCG:  Solving for p, Initial residual = 0.60042, Final residual = 9.99832e-07, No Iterations 430
time step continuity errors : sum local = 1.66659e-09, global = 5.89081e-20, cumulative = 7.7592e-20
nonePCG:  Solving for p, Initial residual = 0.551194, Final residual = 9.66339e-07, No Iterations 428
time step continuity errors : sum local = 1.55523e-09, global = 4.09201e-20, cumulative = 1.18512e-19
ExecutionTime = 5 s  ClockTime = 5 s

Time = 0.008

Courant Number mean: 0.123246 max: 0.890085
nonePBiCGStab:  Solving for Ux, Initial residual = 0.0254307, Final residual = 8.23321e-07, No Iterations 31
nonePBiCGStab:  Solving for Uy, Initial residual = 0.0796825, Final residual = 9.89425e-07, No Iterations 34
nonePBiCGStab:  Solving for Uz, Initial residual = 0.25228, Final residual = 9.11726e-07, No Iterations 39
nonePCG:  Solving for p, Initial residual = 0.384622, Final residual = 9.81904e-07, No Iterations 422
time step continuity errors : sum local = 1.4557e-09, global = 1.49249e-20, cumulative = 1.33437e-19
nonePCG:  Solving for p, Initial residual = 0.324404, Final residual = 9.7799e-07, No Iterations 420
time step continuity errors : sum local = 1.47365e-09, global = 2.95675e-20, cumulative = 1.63005e-19
ExecutionTime = 6.53 s  ClockTime = 6 s

Time = 0.01

Courant Number mean: 0.136097 max: 0.906812
nonePBiCGStab:  Solving for Ux, Initial residual = 0.0177757, Final residual = 8.16368e-07, No Iterations 30
nonePBiCGStab:  Solving for Uy, Initial residual = 0.0389351, Final residual = 8.29134e-07, No Iterations 32
nonePBiCGStab:  Solving for Uz, Initial residual = 0.085152, Final residual = 9.56195e-07, No Iterations 34
nonePCG:  Solving for p, Initial residual = 0.290073, Final residual = 9.53396e-07, No Iterations 421
time step continuity errors : sum local = 1.16645e-09, global = -5.1822e-22, cumulative = 1.62486e-19
nonePCG:  Solving for p, Initial residual = 0.248637, Final residual = 9.2373e-07, No Iterations 420
time step continuity errors : sum local = 1.11846e-09, global = 4.78207e-20, cumulative = 2.10307e-19
ExecutionTime = 8.01 s  ClockTime = 8 s

End

