/*---------------------------------------------------------------------------*\
  =========                 |
  \\      /  F ield         | OpenFOAM: The Open Source CFD Toolbox
   \\    /   O peration     | Website:  https://openfoam.org
    \\  /    A nd           | Version:  8
     \\/     M anipulation  |
\*---------------------------------------------------------------------------*/
Build  : 8-13d66902f78c
Exec   : icoFoam
Date   : Jul 14 2021
Time   : 02:00:06
Host   : "uc2n394.localdomain"
PID    : 3282307
I/O    : uncollated
Case   : /pfs/data5/home/kit/scc/nq7776/code/OGL_DATA/lidDrivenCavity3D/v0.1-136-g40fef35/f584ccac99/IntelXeonGold6230CPU@2.10GHz/Test_2021-07-14-00:31:10/75/p-BiCGStab-GKO-BJ-omp/lidDrivenCavity3D
nProcs : 1
sigFpe : Enabling floating point exception trapping (FOAM_SIGFPE).
fileModificationChecking : Monitoring run-time modified files using timeStampMaster (fileModificationSkew 10)
allowSystemOperations : Allowing user-supplied system call operations

// * * * * * * * * * * * * * * * * * * * * * * * * * * * * * * * * * * * * * //
Create time

Create mesh for time = 0

Reading transportProperties

Reading field p

Reading field U

Reading/calculating face flux field phi


Starting time loop

Time = 0.00133333

Courant Number mean: 0 max: 0
nonePBiCGStab:  Solving for Ux, Initial residual = 1, Final residual = 0.0730209, No Iterations 5
nonePBiCGStab:  Solving for Uy, Initial residual = 0, Final residual = 0, No Iterations 0
nonePBiCGStab:  Solving for Uz, Initial residual = 0, Final residual = 0, No Iterations 0
[OGL LOG] init_host_sparsity_pattern : 123 ms
[OGL LOG] matrix not stored update host matrix
[OGL LOG] update_host_mtx : 62 ms
[OGL LOG] matrix is not yet sorted, compute sorting idxs
[OGL LOG] compute_sort : 3335 ms
[OGL LOG] matrix is not yet sorted, sorting host matrix
[OGL LOG] sort_host_mtx_sparsity_pattern : 81 ms
[OGL LOG] sort_host_mtx : 52 ms
[OGL LOG] init_preconditioner : 18 ms
[OGL LOG] solve : 7891 ms
BJompGKOBiCGStab:  Solving for p, Initial residual = 1, Final residual = 9.97466e-07, No Iterations 484
time step continuity errors : sum local = 8.63907e-10, global = 1.26993e-20, cumulative = 1.26993e-20
[OGL LOG] init_preconditioner : 0 ms
[OGL LOG] solve : 7672 ms
BJompGKOBiCGStab:  Solving for p, Initial residual = 0.697097, Final residual = 8.49162e-07, No Iterations 478
time step continuity errors : sum local = 4.45211e-09, global = 2.77818e-21, cumulative = 1.54775e-20
ExecutionTime = 130.11 s  ClockTime = 21 s

Time = 0.00266667

Courant Number mean: 0.0508075 max: 0.767258
nonePBiCGStab:  Solving for Ux, Initial residual = 0.140587, Final residual = 0.0324501, No Iterations 5
nonePBiCGStab:  Solving for Uy, Initial residual = 0.41364, Final residual = 0.0923272, No Iterations 5
nonePBiCGStab:  Solving for Uz, Initial residual = 0.983118, Final residual = 0.24982, No Iterations 5
[OGL LOG] init_preconditioner : 0 ms
[OGL LOG] solve : 8202 ms
BJompGKOBiCGStab:  Solving for p, Initial residual = 0.746899, Final residual = 8.73564e-07, No Iterations 497
time step continuity errors : sum local = 2.43547e-08, global = 1.8052e-20, cumulative = 3.35294e-20
[OGL LOG] init_preconditioner : 0 ms
[OGL LOG] solve : 8100 ms
BJompGKOBiCGStab:  Solving for p, Initial residual = 0.668146, Final residual = 7.63111e-07, No Iterations 493
time step continuity errors : sum local = 8.28707e-09, global = 6.00042e-22, cumulative = 3.41295e-20
ExecutionTime = 260.75 s  ClockTime = 38 s

Time = 0.004

Courant Number mean: 0.0796135 max: 0.886044
nonePBiCGStab:  Solving for Ux, Initial residual = 0.0584476, Final residual = 0.0111482, No Iterations 5
nonePBiCGStab:  Solving for Uy, Initial residual = 0.171963, Final residual = 0.039881, No Iterations 5
nonePBiCGStab:  Solving for Uz, Initial residual = 0.610838, Final residual = 0.142358, No Iterations 5
[OGL LOG] init_preconditioner : 0 ms
[OGL LOG] solve : 8258 ms
BJompGKOBiCGStab:  Solving for p, Initial residual = 0.730357, Final residual = 1.76426e-07, No Iterations 501
time step continuity errors : sum local = 1.30748e-08, global = -8.10892e-21, cumulative = 2.60205e-20
[OGL LOG] init_preconditioner : 0 ms
[OGL LOG] solve : 7766 ms
BJompGKOBiCGStab:  Solving for p, Initial residual = 0.660893, Final residual = 3.1681e-07, No Iterations 474
time step continuity errors : sum local = 5.1525e-10, global = -2.1338e-20, cumulative = 4.6826e-21
ExecutionTime = 389.18 s  ClockTime = 55 s

Time = 0.00533333

Courant Number mean: 0.0948105 max: 0.902572
nonePBiCGStab:  Solving for Ux, Initial residual = 0.0345929, Final residual = 0.00682881, No Iterations 5
nonePBiCGStab:  Solving for Uy, Initial residual = 0.119551, Final residual = 0.0298214, No Iterations 5
nonePBiCGStab:  Solving for Uz, Initial residual = 0.386408, Final residual = 0.0807894, No Iterations 5
[OGL LOG] init_preconditioner : 0 ms
[OGL LOG] solve : 7969 ms
BJompGKOBiCGStab:  Solving for p, Initial residual = 0.609804, Final residual = 9.85367e-07, No Iterations 484
time step continuity errors : sum local = 1.36953e-09, global = 9.60804e-21, cumulative = 1.42906e-20
[OGL LOG] init_preconditioner : 0 ms
[OGL LOG] solve : 8028 ms
BJompGKOBiCGStab:  Solving for p, Initial residual = 0.521111, Final residual = 8.32613e-07, No Iterations 488
time step continuity errors : sum local = 2.51153e-09, global = 1.61684e-20, cumulative = 3.0459e-20
ExecutionTime = 517.37 s  ClockTime = 71 s

Time = 0.00666667

Courant Number mean: 0.107177 max: 0.916782
nonePBiCGStab:  Solving for Ux, Initial residual = 0.0257331, Final residual = 0.00503156, No Iterations 5
nonePBiCGStab:  Solving for Uy, Initial residual = 0.0750466, Final residual = 0.0208218, No Iterations 5
nonePBiCGStab:  Solving for Uz, Initial residual = 0.212794, Final residual = 0.0495587, No Iterations 5
[OGL LOG] init_preconditioner : 0 ms
[OGL LOG] solve : 8512 ms
BJompGKOBiCGStab:  Solving for p, Initial residual = 0.629327, Final residual = 9.00398e-07, No Iterations 517
time step continuity errors : sum local = 1.53962e-09, global = -1.36306e-21, cumulative = 2.9096e-20
[OGL LOG] init_preconditioner : 0 ms
[OGL LOG] solve : 7445 ms
BJompGKOBiCGStab:  Solving for p, Initial residual = 0.55216, Final residual = 9.54635e-07, No Iterations 451
time step continuity errors : sum local = 8.35545e-10, global = 2.43869e-20, cumulative = 5.34829e-20
ExecutionTime = 645.24 s  ClockTime = 88 s

End

