/*---------------------------------------------------------------------------*\
  =========                 |
  \\      /  F ield         | OpenFOAM: The Open Source CFD Toolbox
   \\    /   O peration     | Website:  https://openfoam.org
    \\  /    A nd           | Version:  8
     \\/     M anipulation  |
\*---------------------------------------------------------------------------*/
Build  : 8-13d66902f78c
Exec   : icoFoam
Date   : Jul 12 2021
Time   : 13:17:35
Host   : "uc2n448.localdomain"
PID    : 411537
I/O    : uncollated
Case   : /pfs/data5/home/kit/scc/nq7776/code/OGL_DATA/lidDrivenCavity3D/v0.1-136-g40fef35/f584ccac99/IntelXeonGold6230CPU@2.10GHz/Test_2021-07-12-13:00:18/50/p-U-CG-GKO-BJ-omp/lidDrivenCavity3D
nProcs : 1
sigFpe : Enabling floating point exception trapping (FOAM_SIGFPE).
fileModificationChecking : Monitoring run-time modified files using timeStampMaster (fileModificationSkew 10)
allowSystemOperations : Allowing user-supplied system call operations

// * * * * * * * * * * * * * * * * * * * * * * * * * * * * * * * * * * * * * //
Create time

Create mesh for time = 0

Reading transportProperties

Reading field p

Reading field U

Reading/calculating face flux field phi


Starting time loop

Time = 0.002

Courant Number mean: 0 max: 0
[OGL LOG] init_host_sparsity_pattern : 35 ms
[OGL LOG] matrix not stored update host matrix
[OGL LOG] update_host_mtx : 18 ms
[OGL LOG] matrix is not yet sorted, compute sorting idxs
[OGL LOG] compute_sort : 998 ms
[OGL LOG] matrix is not yet sorted, sorting host matrix
[OGL LOG] sort_host_mtx_sparsity_pattern : 23 ms
[OGL LOG] sort_host_mtx : 14 ms
[OGL LOG] init_preconditioner : 5 ms
[OGL LOG] solve : 151 ms
BJompGKOBiCGStab:  Solving for Ux, Initial residual = 1, Final residual = 8.40984e-07, No Iterations 31
[OGL LOG] init_host_sparsity_pattern : 34 ms
[OGL LOG] matrix not stored update host matrix
[OGL LOG] update_host_mtx : 18 ms
[OGL LOG] matrix is not yet sorted, sorting host matrix
[OGL LOG] sort_host_mtx_sparsity_pattern : 23 ms
[OGL LOG] sort_host_mtx : 12 ms
[OGL LOG] init_preconditioner : 5 ms
[OGL LOG] solve : 4 ms
BJompGKOBiCGStab:  Solving for Uy, Initial residual = 0, Final residual = 0, No Iterations 0
[OGL LOG] init_host_sparsity_pattern : 33 ms
[OGL LOG] matrix not stored update host matrix
[OGL LOG] update_host_mtx : 15 ms
[OGL LOG] matrix is not yet sorted, sorting host matrix
[OGL LOG] sort_host_mtx_sparsity_pattern : 23 ms
[OGL LOG] sort_host_mtx : 12 ms
[OGL LOG] init_preconditioner : 6 ms
[OGL LOG] solve : 4 ms
BJompGKOBiCGStab:  Solving for Uz, Initial residual = 0, Final residual = 0, No Iterations 0
[OGL LOG] init_host_sparsity_pattern : 33 ms
[OGL LOG] matrix not stored update host matrix
[OGL LOG] update_host_mtx : 18 ms
[OGL LOG] matrix is not yet sorted, sorting host matrix
[OGL LOG] sort_host_mtx_sparsity_pattern : 22 ms
[OGL LOG] sort_host_mtx : 14 ms
[OGL LOG] init_preconditioner : 5 ms
 CG create  precond 
[OGL LOG] solve : 1013 ms
BJompGKOCG:  Solving for p, Initial residual = 1, Final residual = 9.57569e-07, No Iterations 404
time step continuity errors : sum local = 1.57675e-09, global = 1.40047e-21, cumulative = 1.40047e-21
[OGL LOG] init_preconditioner : 0 ms
 CG create  precond 
[OGL LOG] solve : 972 ms
BJompGKOCG:  Solving for p, Initial residual = 0.721583, Final residual = 9.47224e-07, No Iterations 385
time step continuity errors : sum local = 2.06792e-09, global = -8.57697e-21, cumulative = -7.1765e-21
ExecutionTime = 19.52 s  ClockTime = 4 s

Time = 0.004

Courant Number mean: 0.0720722 max: 0.726639
[OGL LOG] init_host_sparsity_pattern : 33 ms
[OGL LOG] matrix not stored update host matrix
[OGL LOG] update_host_mtx : 16 ms
[OGL LOG] matrix is not yet sorted, sorting host matrix
[OGL LOG] sort_host_mtx_sparsity_pattern : 23 ms
[OGL LOG] sort_host_mtx : 13 ms
[OGL LOG] init_preconditioner : 0 ms
[OGL LOG] solve : 123 ms
BJompGKOBiCGStab:  Solving for Ux, Initial residual = 0.203465, Final residual = 5.55771e-07, No Iterations 23
[OGL LOG] init_host_sparsity_pattern : 33 ms
[OGL LOG] matrix not stored update host matrix
[OGL LOG] update_host_mtx : 16 ms
[OGL LOG] matrix is not yet sorted, sorting host matrix
[OGL LOG] sort_host_mtx_sparsity_pattern : 22 ms
[OGL LOG] sort_host_mtx : 12 ms
[OGL LOG] init_preconditioner : 0 ms
[OGL LOG] solve : 170 ms
BJompGKOBiCGStab:  Solving for Uy, Initial residual = 0.618431, Final residual = 9.26956e-07, No Iterations 32
[OGL LOG] init_host_sparsity_pattern : 33 ms
[OGL LOG] matrix not stored update host matrix
[OGL LOG] update_host_mtx : 15 ms
[OGL LOG] matrix is not yet sorted, sorting host matrix
[OGL LOG] sort_host_mtx_sparsity_pattern : 22 ms
[OGL LOG] sort_host_mtx : 12 ms
[OGL LOG] init_preconditioner : 0 ms
[OGL LOG] solve : 162 ms
BJompGKOBiCGStab:  Solving for Uz, Initial residual = 0.536268, Final residual = 9.93021e-07, No Iterations 31
[OGL LOG] init_preconditioner : 0 ms
 CG create  precond 
[OGL LOG] solve : 963 ms
BJompGKOCG:  Solving for p, Initial residual = 0.673319, Final residual = 9.36062e-07, No Iterations 377
time step continuity errors : sum local = 2.21985e-09, global = -4.56684e-21, cumulative = -1.17433e-20
[OGL LOG] init_preconditioner : 0 ms
 CG create  precond 
[OGL LOG] solve : 964 ms
BJompGKOCG:  Solving for p, Initial residual = 0.598888, Final residual = 9.48279e-07, No Iterations 376
time step continuity errors : sum local = 2.30809e-09, global = -1.38654e-20, cumulative = -2.56087e-20
ExecutionTime = 39.09 s  ClockTime = 7 s

Time = 0.006

Courant Number mean: 0.107408 max: 0.881754
[OGL LOG] init_host_sparsity_pattern : 33 ms
[OGL LOG] matrix not stored update host matrix
[OGL LOG] update_host_mtx : 17 ms
[OGL LOG] matrix is not yet sorted, sorting host matrix
[OGL LOG] sort_host_mtx_sparsity_pattern : 24 ms
[OGL LOG] sort_host_mtx : 13 ms
[OGL LOG] init_preconditioner : 0 ms
[OGL LOG] solve : 108 ms
BJompGKOBiCGStab:  Solving for Ux, Initial residual = 0.0995685, Final residual = 7.01793e-07, No Iterations 21
[OGL LOG] init_host_sparsity_pattern : 33 ms
[OGL LOG] matrix not stored update host matrix
[OGL LOG] update_host_mtx : 16 ms
[OGL LOG] matrix is not yet sorted, sorting host matrix
[OGL LOG] sort_host_mtx_sparsity_pattern : 22 ms
[OGL LOG] sort_host_mtx : 12 ms
[OGL LOG] init_preconditioner : 0 ms
[OGL LOG] solve : 147 ms
BJompGKOBiCGStab:  Solving for Uy, Initial residual = 0.249969, Final residual = 8.21634e-07, No Iterations 29
[OGL LOG] init_host_sparsity_pattern : 33 ms
[OGL LOG] matrix not stored update host matrix
[OGL LOG] update_host_mtx : 16 ms
[OGL LOG] matrix is not yet sorted, sorting host matrix
[OGL LOG] sort_host_mtx_sparsity_pattern : 22 ms
[OGL LOG] sort_host_mtx : 12 ms
[OGL LOG] init_preconditioner : 0 ms
[OGL LOG] solve : 161 ms
BJompGKOBiCGStab:  Solving for Uz, Initial residual = 0.540949, Final residual = 8.53032e-07, No Iterations 32
[OGL LOG] init_preconditioner : 0 ms
 CG create  precond 
[OGL LOG] solve : 1056 ms
BJompGKOCG:  Solving for p, Initial residual = 0.60689, Final residual = 9.38926e-07, No Iterations 408
time step continuity errors : sum local = 1.59881e-09, global = -7.24766e-21, cumulative = -3.28564e-20
[OGL LOG] init_preconditioner : 0 ms
 CG create  precond 
[OGL LOG] solve : 1020 ms
BJompGKOCG:  Solving for p, Initial residual = 0.560846, Final residual = 9.19105e-07, No Iterations 407
time step continuity errors : sum local = 1.51283e-09, global = 4.22345e-20, cumulative = 9.37809e-21
ExecutionTime = 59.58 s  ClockTime = 10 s

Time = 0.008

Courant Number mean: 0.123244 max: 0.890102
[OGL LOG] init_host_sparsity_pattern : 33 ms
[OGL LOG] matrix not stored update host matrix
[OGL LOG] update_host_mtx : 17 ms
[OGL LOG] matrix is not yet sorted, sorting host matrix
[OGL LOG] sort_host_mtx_sparsity_pattern : 23 ms
[OGL LOG] sort_host_mtx : 13 ms
[OGL LOG] init_preconditioner : 0 ms
[OGL LOG] solve : 131 ms
BJompGKOBiCGStab:  Solving for Ux, Initial residual = 0.0341421, Final residual = 7.88562e-07, No Iterations 25
[OGL LOG] init_host_sparsity_pattern : 33 ms
[OGL LOG] matrix not stored update host matrix
[OGL LOG] update_host_mtx : 15 ms
[OGL LOG] matrix is not yet sorted, sorting host matrix
[OGL LOG] sort_host_mtx_sparsity_pattern : 22 ms
[OGL LOG] sort_host_mtx : 12 ms
[OGL LOG] init_preconditioner : 0 ms
[OGL LOG] solve : 143 ms
BJompGKOBiCGStab:  Solving for Uy, Initial residual = 0.13238, Final residual = 8.1414e-07, No Iterations 28
[OGL LOG] init_host_sparsity_pattern : 33 ms
[OGL LOG] matrix not stored update host matrix
[OGL LOG] update_host_mtx : 15 ms
[OGL LOG] matrix is not yet sorted, sorting host matrix
[OGL LOG] sort_host_mtx_sparsity_pattern : 22 ms
[OGL LOG] sort_host_mtx : 13 ms
[OGL LOG] init_preconditioner : 0 ms
[OGL LOG] solve : 157 ms
BJompGKOBiCGStab:  Solving for Uz, Initial residual = 0.47195, Final residual = 9.32771e-07, No Iterations 31
[OGL LOG] init_preconditioner : 0 ms
 CG create  precond 
[OGL LOG] solve : 1022 ms
BJompGKOCG:  Solving for p, Initial residual = 0.42304, Final residual = 9.07284e-07, No Iterations 403
time step continuity errors : sum local = 1.43249e-09, global = 2.58764e-20, cumulative = 3.52545e-20
[OGL LOG] init_preconditioner : 0 ms
 CG create  precond 
[OGL LOG] solve : 1013 ms
BJompGKOCG:  Solving for p, Initial residual = 0.368379, Final residual = 9.22106e-07, No Iterations 402
time step continuity errors : sum local = 1.47704e-09, global = 1.10795e-20, cumulative = 4.6334e-20
ExecutionTime = 79.85 s  ClockTime = 13 s

Time = 0.01

Courant Number mean: 0.136096 max: 0.906942
[OGL LOG] init_host_sparsity_pattern : 33 ms
[OGL LOG] matrix not stored update host matrix
[OGL LOG] update_host_mtx : 16 ms
[OGL LOG] matrix is not yet sorted, sorting host matrix
[OGL LOG] sort_host_mtx_sparsity_pattern : 22 ms
[OGL LOG] sort_host_mtx : 12 ms
[OGL LOG] init_preconditioner : 0 ms
[OGL LOG] solve : 122 ms
BJompGKOBiCGStab:  Solving for Ux, Initial residual = 0.0230738, Final residual = 7.32554e-07, No Iterations 24
[OGL LOG] init_host_sparsity_pattern : 33 ms
[OGL LOG] matrix not stored update host matrix
[OGL LOG] update_host_mtx : 15 ms
[OGL LOG] matrix is not yet sorted, sorting host matrix
[OGL LOG] sort_host_mtx_sparsity_pattern : 22 ms
[OGL LOG] sort_host_mtx : 12 ms
[OGL LOG] init_preconditioner : 0 ms
[OGL LOG] solve : 126 ms
BJompGKOBiCGStab:  Solving for Uy, Initial residual = 0.0484117, Final residual = 9.762e-07, No Iterations 25
[OGL LOG] init_host_sparsity_pattern : 33 ms
[OGL LOG] matrix not stored update host matrix
[OGL LOG] update_host_mtx : 16 ms
[OGL LOG] matrix is not yet sorted, sorting host matrix
[OGL LOG] sort_host_mtx_sparsity_pattern : 22 ms
[OGL LOG] sort_host_mtx : 12 ms
[OGL LOG] init_preconditioner : 0 ms
[OGL LOG] solve : 141 ms
BJompGKOBiCGStab:  Solving for Uz, Initial residual = 0.159037, Final residual = 8.49856e-07, No Iterations 28
[OGL LOG] init_preconditioner : 0 ms
 CG create  precond 
[OGL LOG] solve : 964 ms
BJompGKOCG:  Solving for p, Initial residual = 0.361668, Final residual = 9.8715e-07, No Iterations 381
time step continuity errors : sum local = 1.34865e-09, global = 1.75601e-20, cumulative = 6.38941e-20
[OGL LOG] init_preconditioner : 0 ms
 CG create  precond 
[OGL LOG] solve : 958 ms
BJompGKOCG:  Solving for p, Initial residual = 0.333162, Final residual = 9.57799e-07, No Iterations 380
time step continuity errors : sum local = 1.29683e-09, global = -1.76052e-20, cumulative = 4.62889e-20
ExecutionTime = 98.88 s  ClockTime = 15 s

End

