/*---------------------------------------------------------------------------*\
  =========                 |
  \\      /  F ield         | OpenFOAM: The Open Source CFD Toolbox
   \\    /   O peration     | Website:  https://openfoam.org
    \\  /    A nd           | Version:  8
     \\/     M anipulation  |
\*---------------------------------------------------------------------------*/
Build  : 8-13d66902f78c
Exec   : icoFoam
Date   : Jul 14 2021
Time   : 00:23:12
Host   : "uc2n553.localdomain"
PID    : 747513
I/O    : uncollated
Case   : /pfs/data5/home/kit/scc/nq7776/code/OGL_DATA/lidDrivenCavity3D/v0.1-136-g40fef35/f584ccac99/IntelXeonGold6230CPU@2.10GHz/Test_2021-07-14-00:17:39/25/p-U-CG-GKO-none-omp/lidDrivenCavity3D
nProcs : 1
sigFpe : Enabling floating point exception trapping (FOAM_SIGFPE).
fileModificationChecking : Monitoring run-time modified files using timeStampMaster (fileModificationSkew 10)
allowSystemOperations : Allowing user-supplied system call operations

// * * * * * * * * * * * * * * * * * * * * * * * * * * * * * * * * * * * * * //
Create time

Create mesh for time = 0

Reading transportProperties

Reading field p

Reading field U

Reading/calculating face flux field phi


Starting time loop

Time = 0.004

Courant Number mean: 0 max: 0
[OGL LOG] init_host_sparsity_pattern : 4 ms
[OGL LOG] matrix not stored update host matrix
[OGL LOG] update_host_mtx : 2 ms
[OGL LOG] matrix is not yet sorted, compute sorting idxs
[OGL LOG] compute_sort : 98 ms
[OGL LOG] matrix is not yet sorted, sorting host matrix
[OGL LOG] sort_host_mtx_sparsity_pattern : 2 ms
[OGL LOG] sort_host_mtx : 1 ms
[OGL LOG] init_preconditioner : 0 ms
[OGL LOG] solve : 23 ms
noneompGKOBiCGStab:  Solving for Ux, Initial residual = 1, Final residual = 7.65409e-07, No Iterations 28
[OGL LOG] init_host_sparsity_pattern : 4 ms
[OGL LOG] matrix not stored update host matrix
[OGL LOG] update_host_mtx : 2 ms
[OGL LOG] matrix is not yet sorted, sorting host matrix
[OGL LOG] sort_host_mtx_sparsity_pattern : 3 ms
[OGL LOG] sort_host_mtx : 1 ms
[OGL LOG] init_preconditioner : 0 ms
[OGL LOG] solve : 0 ms
noneompGKOBiCGStab:  Solving for Uy, Initial residual = 0, Final residual = 0, No Iterations 0
[OGL LOG] init_host_sparsity_pattern : 4 ms
[OGL LOG] matrix not stored update host matrix
[OGL LOG] update_host_mtx : 2 ms
[OGL LOG] matrix is not yet sorted, sorting host matrix
[OGL LOG] sort_host_mtx_sparsity_pattern : 2 ms
[OGL LOG] sort_host_mtx : 1 ms
[OGL LOG] init_preconditioner : 0 ms
[OGL LOG] solve : 0 ms
noneompGKOBiCGStab:  Solving for Uz, Initial residual = 0, Final residual = 0, No Iterations 0
[OGL LOG] init_host_sparsity_pattern : 4 ms
[OGL LOG] matrix not stored update host matrix
[OGL LOG] update_host_mtx : 1 ms
[OGL LOG] matrix is not yet sorted, sorting host matrix
[OGL LOG] sort_host_mtx_sparsity_pattern : 2 ms
[OGL LOG] sort_host_mtx : 1 ms
[OGL LOG] init_preconditioner : 0 ms
[OGL LOG] solve : 77 ms
noneompGKOCG:  Solving for p, Initial residual = 1, Final residual = 9.02696e-07, No Iterations 219
time step continuity errors : sum local = 4.00476e-09, global = 4.31005e-20, cumulative = 4.31005e-20
[OGL LOG] init_preconditioner : 0 ms
[OGL LOG] solve : 74 ms
noneompGKOCG:  Solving for p, Initial residual = 0.644082, Final residual = 9.89985e-07, No Iterations 214
time step continuity errors : sum local = 6.2119e-09, global = 1.18759e-20, cumulative = 5.49764e-20
ExecutionTime = 6.88 s  ClockTime = 0 s

Time = 0.008

Courant Number mean: 0.0870974 max: 0.619854
[OGL LOG] init_host_sparsity_pattern : 4 ms
[OGL LOG] matrix not stored update host matrix
[OGL LOG] update_host_mtx : 1 ms
[OGL LOG] matrix is not yet sorted, sorting host matrix
[OGL LOG] sort_host_mtx_sparsity_pattern : 2 ms
[OGL LOG] sort_host_mtx : 1 ms
[OGL LOG] init_preconditioner : 0 ms
[OGL LOG] solve : 17 ms
noneompGKOBiCGStab:  Solving for Ux, Initial residual = 0.238938, Final residual = 6.81783e-07, No Iterations 25
[OGL LOG] init_host_sparsity_pattern : 4 ms
[OGL LOG] matrix not stored update host matrix
[OGL LOG] update_host_mtx : 1 ms
[OGL LOG] matrix is not yet sorted, sorting host matrix
[OGL LOG] sort_host_mtx_sparsity_pattern : 2 ms
[OGL LOG] sort_host_mtx : 1 ms
[OGL LOG] init_preconditioner : 0 ms
[OGL LOG] solve : 18 ms
noneompGKOBiCGStab:  Solving for Uy, Initial residual = 0.615478, Final residual = 9.88831e-07, No Iterations 27
[OGL LOG] init_host_sparsity_pattern : 4 ms
[OGL LOG] matrix not stored update host matrix
[OGL LOG] update_host_mtx : 1 ms
[OGL LOG] matrix is not yet sorted, sorting host matrix
[OGL LOG] sort_host_mtx_sparsity_pattern : 2 ms
[OGL LOG] sort_host_mtx : 1 ms
[OGL LOG] init_preconditioner : 0 ms
[OGL LOG] solve : 16 ms
noneompGKOBiCGStab:  Solving for Uz, Initial residual = 0.391817, Final residual = 9.15835e-07, No Iterations 24
[OGL LOG] init_preconditioner : 0 ms
[OGL LOG] solve : 70 ms
noneompGKOCG:  Solving for p, Initial residual = 0.527353, Final residual = 8.65568e-07, No Iterations 212
time step continuity errors : sum local = 5.18382e-09, global = -5.01084e-20, cumulative = 4.86797e-21
[OGL LOG] init_preconditioner : 0 ms
[OGL LOG] solve : 72 ms
noneompGKOCG:  Solving for p, Initial residual = 0.437513, Final residual = 8.84906e-07, No Iterations 210
time step continuity errors : sum local = 5.52192e-09, global = 8.12666e-20, cumulative = 8.61346e-20
ExecutionTime = 13.79 s  ClockTime = 1 s

Time = 0.012

Courant Number mean: 0.127403 max: 0.798792
[OGL LOG] init_host_sparsity_pattern : 4 ms
[OGL LOG] matrix not stored update host matrix
[OGL LOG] update_host_mtx : 1 ms
[OGL LOG] matrix is not yet sorted, sorting host matrix
[OGL LOG] sort_host_mtx_sparsity_pattern : 2 ms
[OGL LOG] sort_host_mtx : 1 ms
[OGL LOG] init_preconditioner : 0 ms
[OGL LOG] solve : 15 ms
noneompGKOBiCGStab:  Solving for Ux, Initial residual = 0.0920495, Final residual = 9.86941e-07, No Iterations 22
[OGL LOG] init_host_sparsity_pattern : 4 ms
[OGL LOG] matrix not stored update host matrix
[OGL LOG] update_host_mtx : 1 ms
[OGL LOG] matrix is not yet sorted, sorting host matrix
[OGL LOG] sort_host_mtx_sparsity_pattern : 2 ms
[OGL LOG] sort_host_mtx : 1 ms
[OGL LOG] init_preconditioner : 0 ms
[OGL LOG] solve : 14 ms
noneompGKOBiCGStab:  Solving for Uy, Initial residual = 0.145851, Final residual = 9.74873e-07, No Iterations 22
[OGL LOG] init_host_sparsity_pattern : 4 ms
[OGL LOG] matrix not stored update host matrix
[OGL LOG] update_host_mtx : 2 ms
[OGL LOG] matrix is not yet sorted, sorting host matrix
[OGL LOG] sort_host_mtx_sparsity_pattern : 2 ms
[OGL LOG] sort_host_mtx : 1 ms
[OGL LOG] init_preconditioner : 0 ms
[OGL LOG] solve : 15 ms
noneompGKOBiCGStab:  Solving for Uz, Initial residual = 0.339761, Final residual = 9.39235e-07, No Iterations 24
[OGL LOG] init_preconditioner : 0 ms
[OGL LOG] solve : 68 ms
noneompGKOCG:  Solving for p, Initial residual = 0.305732, Final residual = 9.03206e-07, No Iterations 209
time step continuity errors : sum local = 4.04011e-09, global = -7.14669e-20, cumulative = 1.46677e-20
[OGL LOG] init_preconditioner : 0 ms
[OGL LOG] solve : 71 ms
noneompGKOCG:  Solving for p, Initial residual = 0.265164, Final residual = 9.41786e-07, No Iterations 210
time step continuity errors : sum local = 4.12587e-09, global = -1.38606e-19, cumulative = -1.23939e-19
ExecutionTime = 20.43 s  ClockTime = 1 s

Time = 0.016

Courant Number mean: 0.145254 max: 0.82722
[OGL LOG] init_host_sparsity_pattern : 4 ms
[OGL LOG] matrix not stored update host matrix
[OGL LOG] update_host_mtx : 1 ms
[OGL LOG] matrix is not yet sorted, sorting host matrix
[OGL LOG] sort_host_mtx_sparsity_pattern : 2 ms
[OGL LOG] sort_host_mtx : 1 ms
[OGL LOG] init_preconditioner : 0 ms
[OGL LOG] solve : 12 ms
noneompGKOBiCGStab:  Solving for Ux, Initial residual = 0.0235043, Final residual = 9.57481e-07, No Iterations 19
[OGL LOG] init_host_sparsity_pattern : 4 ms
[OGL LOG] matrix not stored update host matrix
[OGL LOG] update_host_mtx : 1 ms
[OGL LOG] matrix is not yet sorted, sorting host matrix
[OGL LOG] sort_host_mtx_sparsity_pattern : 2 ms
[OGL LOG] sort_host_mtx : 1 ms
[OGL LOG] init_preconditioner : 0 ms
[OGL LOG] solve : 15 ms
noneompGKOBiCGStab:  Solving for Uy, Initial residual = 0.0608567, Final residual = 8.98182e-07, No Iterations 22
[OGL LOG] init_host_sparsity_pattern : 4 ms
[OGL LOG] matrix not stored update host matrix
[OGL LOG] update_host_mtx : 1 ms
[OGL LOG] matrix is not yet sorted, sorting host matrix
[OGL LOG] sort_host_mtx_sparsity_pattern : 2 ms
[OGL LOG] sort_host_mtx : 1 ms
[OGL LOG] init_preconditioner : 0 ms
[OGL LOG] solve : 15 ms
noneompGKOBiCGStab:  Solving for Uz, Initial residual = 0.184291, Final residual = 7.91294e-07, No Iterations 23
[OGL LOG] init_preconditioner : 0 ms
[OGL LOG] solve : 70 ms
noneompGKOCG:  Solving for p, Initial residual = 0.239443, Final residual = 8.75413e-07, No Iterations 211
time step continuity errors : sum local = 4.06676e-09, global = -1.24402e-19, cumulative = -2.48341e-19
[OGL LOG] init_preconditioner : 0 ms
[OGL LOG] solve : 70 ms
noneompGKOCG:  Solving for p, Initial residual = 0.222234, Final residual = 8.74847e-07, No Iterations 210
time step continuity errors : sum local = 4.11003e-09, global = 8.92807e-20, cumulative = -1.5906e-19
ExecutionTime = 27.07 s  ClockTime = 1 s

Time = 0.02

Courant Number mean: 0.157058 max: 0.845844
[OGL LOG] init_host_sparsity_pattern : 4 ms
[OGL LOG] matrix not stored update host matrix
[OGL LOG] update_host_mtx : 1 ms
[OGL LOG] matrix is not yet sorted, sorting host matrix
[OGL LOG] sort_host_mtx_sparsity_pattern : 2 ms
[OGL LOG] sort_host_mtx : 1 ms
[OGL LOG] init_preconditioner : 0 ms
[OGL LOG] solve : 12 ms
noneompGKOBiCGStab:  Solving for Ux, Initial residual = 0.0150185, Final residual = 9.60433e-07, No Iterations 18
[OGL LOG] init_host_sparsity_pattern : 4 ms
[OGL LOG] matrix not stored update host matrix
[OGL LOG] update_host_mtx : 1 ms
[OGL LOG] matrix is not yet sorted, sorting host matrix
[OGL LOG] sort_host_mtx_sparsity_pattern : 2 ms
[OGL LOG] sort_host_mtx : 1 ms
[OGL LOG] init_preconditioner : 0 ms
[OGL LOG] solve : 14 ms
noneompGKOBiCGStab:  Solving for Uy, Initial residual = 0.028096, Final residual = 9.93554e-07, No Iterations 20
[OGL LOG] init_host_sparsity_pattern : 5 ms
[OGL LOG] matrix not stored update host matrix
[OGL LOG] update_host_mtx : 1 ms
[OGL LOG] matrix is not yet sorted, sorting host matrix
[OGL LOG] sort_host_mtx_sparsity_pattern : 2 ms
[OGL LOG] sort_host_mtx : 1 ms
[OGL LOG] init_preconditioner : 0 ms
[OGL LOG] solve : 15 ms
noneompGKOBiCGStab:  Solving for Uz, Initial residual = 0.0757738, Final residual = 9.63833e-07, No Iterations 21
[OGL LOG] init_preconditioner : 0 ms
[OGL LOG] solve : 81 ms
noneompGKOCG:  Solving for p, Initial residual = 0.234834, Final residual = 8.65565e-07, No Iterations 210
time step continuity errors : sum local = 3.97225e-09, global = 7.72713e-20, cumulative = -8.17886e-20
[OGL LOG] init_preconditioner : 0 ms
[OGL LOG] solve : 86 ms
noneompGKOCG:  Solving for p, Initial residual = 0.233062, Final residual = 9.76816e-07, No Iterations 209
time step continuity errors : sum local = 4.4853e-09, global = -7.23548e-20, cumulative = -1.54143e-19
ExecutionTime = 34.69 s  ClockTime = 1 s

End

