/*---------------------------------------------------------------------------*\
  =========                 |
  \\      /  F ield         | OpenFOAM: The Open Source CFD Toolbox
   \\    /   O peration     | Website:  https://openfoam.org
    \\  /    A nd           | Version:  8
     \\/     M anipulation  |
\*---------------------------------------------------------------------------*/
Build  : 8-13d66902f78c
Exec   : icoFoam
Date   : Jul 14 2021
Time   : 02:39:45
Host   : "uc2n477.localdomain"
PID    : 2923293
I/O    : uncollated
Case   : /pfs/data5/home/kit/scc/nq7776/code/OGL_DATA/lidDrivenCavity3D/v0.1-136-g40fef35/f584ccac99/IntelXeonGold6230CPU@2.10GHz/Test_2021-07-14-00:33:42/100/p-U-CG-GKO-BJ-omp/lidDrivenCavity3D
nProcs : 1
sigFpe : Enabling floating point exception trapping (FOAM_SIGFPE).
fileModificationChecking : Monitoring run-time modified files using timeStampMaster (fileModificationSkew 10)
allowSystemOperations : Allowing user-supplied system call operations

// * * * * * * * * * * * * * * * * * * * * * * * * * * * * * * * * * * * * * //
Create time

Create mesh for time = 0

Reading transportProperties

Reading field p

Reading field U

Reading/calculating face flux field phi


Starting time loop

Time = 0.001

Courant Number mean: 0 max: 0
[OGL LOG] init_host_sparsity_pattern : 290 ms
[OGL LOG] matrix not stored update host matrix
[OGL LOG] update_host_mtx : 147 ms
[OGL LOG] matrix is not yet sorted, compute sorting idxs
[OGL LOG] compute_sort : 8315 ms
[OGL LOG] matrix is not yet sorted, sorting host matrix
[OGL LOG] sort_host_mtx_sparsity_pattern : 185 ms
[OGL LOG] sort_host_mtx : 124 ms
[OGL LOG] init_preconditioner : 143 ms
[OGL LOG] solve : 5922 ms
BJompGKOBiCGStab:  Solving for Ux, Initial residual = 1, Final residual = 7.01284e-07, No Iterations 56
[OGL LOG] init_host_sparsity_pattern : 316 ms
[OGL LOG] matrix not stored update host matrix
[OGL LOG] update_host_mtx : 179 ms
[OGL LOG] matrix is not yet sorted, sorting host matrix
[OGL LOG] sort_host_mtx_sparsity_pattern : 213 ms
[OGL LOG] sort_host_mtx : 128 ms
[OGL LOG] init_preconditioner : 140 ms
[OGL LOG] solve : 90 ms
BJompGKOBiCGStab:  Solving for Uy, Initial residual = 0, Final residual = 0, No Iterations 0
[OGL LOG] init_host_sparsity_pattern : 270 ms
[OGL LOG] matrix not stored update host matrix
[OGL LOG] update_host_mtx : 146 ms
[OGL LOG] matrix is not yet sorted, sorting host matrix
[OGL LOG] sort_host_mtx_sparsity_pattern : 181 ms
[OGL LOG] sort_host_mtx : 125 ms
[OGL LOG] init_preconditioner : 150 ms
[OGL LOG] solve : 110 ms
BJompGKOBiCGStab:  Solving for Uz, Initial residual = 0, Final residual = 0, No Iterations 0
[OGL LOG] init_host_sparsity_pattern : 270 ms
[OGL LOG] matrix not stored update host matrix
[OGL LOG] update_host_mtx : 148 ms
[OGL LOG] matrix is not yet sorted, sorting host matrix
[OGL LOG] sort_host_mtx_sparsity_pattern : 194 ms
[OGL LOG] sort_host_mtx : 126 ms
[OGL LOG] init_preconditioner : 144 ms
 CG create  precond 
[OGL LOG] solve : 42589 ms
BJompGKOCG:  Solving for p, Initial residual = 1, Final residual = 9.78731e-07, No Iterations 888
time step continuity errors : sum local = 5.86802e-10, global = 3.75768e-22, cumulative = 3.75768e-22
[OGL LOG] init_preconditioner : 0 ms
 CG create  precond 
[OGL LOG] solve : 42371 ms
BJompGKOCG:  Solving for p, Initial residual = 0.783584, Final residual = 9.49136e-07, No Iterations 882
time step continuity errors : sum local = 7.11437e-10, global = 8.93372e-21, cumulative = 9.30949e-21
ExecutionTime = 199.63 s  ClockTime = 108 s

Time = 0.002

Courant Number mean: 0.0571435 max: 0.804774
[OGL LOG] init_host_sparsity_pattern : 266 ms
[OGL LOG] matrix not stored update host matrix
[OGL LOG] update_host_mtx : 146 ms
[OGL LOG] matrix is not yet sorted, sorting host matrix
[OGL LOG] sort_host_mtx_sparsity_pattern : 192 ms
[OGL LOG] sort_host_mtx : 125 ms
[OGL LOG] init_preconditioner : 0 ms
[OGL LOG] solve : 4803 ms
BJompGKOBiCGStab:  Solving for Ux, Initial residual = 0.169075, Final residual = 9.7786e-07, No Iterations 49
[OGL LOG] init_host_sparsity_pattern : 271 ms
[OGL LOG] matrix not stored update host matrix
[OGL LOG] update_host_mtx : 146 ms
[OGL LOG] matrix is not yet sorted, sorting host matrix
[OGL LOG] sort_host_mtx_sparsity_pattern : 193 ms
[OGL LOG] sort_host_mtx : 125 ms
[OGL LOG] init_preconditioner : 0 ms
[OGL LOG] solve : 4841 ms
BJompGKOBiCGStab:  Solving for Uy, Initial residual = 0.620181, Final residual = 9.12703e-07, No Iterations 50
[OGL LOG] init_host_sparsity_pattern : 266 ms
[OGL LOG] matrix not stored update host matrix
[OGL LOG] update_host_mtx : 146 ms
[OGL LOG] matrix is not yet sorted, sorting host matrix
[OGL LOG] sort_host_mtx_sparsity_pattern : 193 ms
[OGL LOG] sort_host_mtx : 125 ms
[OGL LOG] init_preconditioner : 0 ms
[OGL LOG] solve : 5197 ms
BJompGKOBiCGStab:  Solving for Uz, Initial residual = 0.646977, Final residual = 9.19731e-07, No Iterations 53
[OGL LOG] init_preconditioner : 0 ms
 CG create  precond 
[OGL LOG] solve : 41936 ms
BJompGKOCG:  Solving for p, Initial residual = 0.798453, Final residual = 9.70086e-07, No Iterations 872
time step continuity errors : sum local = 9.8654e-10, global = -6.62896e-22, cumulative = 8.6466e-21
[OGL LOG] init_preconditioner : 0 ms
 CG create  precond 
[OGL LOG] solve : 41345 ms
BJompGKOCG:  Solving for p, Initial residual = 0.738608, Final residual = 9.81226e-07, No Iterations 866
time step continuity errors : sum local = 1.01932e-09, global = -5.76862e-21, cumulative = 2.87797e-21
ExecutionTime = 399.03 s  ClockTime = 210 s

Time = 0.003

Courant Number mean: 0.0867389 max: 0.944826
[OGL LOG] init_host_sparsity_pattern : 267 ms
[OGL LOG] matrix not stored update host matrix
[OGL LOG] update_host_mtx : 146 ms
[OGL LOG] matrix is not yet sorted, sorting host matrix
[OGL LOG] sort_host_mtx_sparsity_pattern : 192 ms
[OGL LOG] sort_host_mtx : 125 ms
[OGL LOG] init_preconditioner : 0 ms
[OGL LOG] solve : 4738 ms
BJompGKOBiCGStab:  Solving for Ux, Initial residual = 0.102637, Final residual = 8.13059e-07, No Iterations 49
[OGL LOG] init_host_sparsity_pattern : 267 ms
[OGL LOG] matrix not stored update host matrix
[OGL LOG] update_host_mtx : 146 ms
[OGL LOG] matrix is not yet sorted, sorting host matrix
[OGL LOG] sort_host_mtx_sparsity_pattern : 193 ms
[OGL LOG] sort_host_mtx : 125 ms
[OGL LOG] init_preconditioner : 0 ms
[OGL LOG] solve : 4595 ms
BJompGKOBiCGStab:  Solving for Uy, Initial residual = 0.396947, Final residual = 7.59639e-07, No Iterations 47
[OGL LOG] init_host_sparsity_pattern : 267 ms
[OGL LOG] matrix not stored update host matrix
[OGL LOG] update_host_mtx : 158 ms
[OGL LOG] matrix is not yet sorted, sorting host matrix
[OGL LOG] sort_host_mtx_sparsity_pattern : 196 ms
[OGL LOG] sort_host_mtx : 125 ms
[OGL LOG] init_preconditioner : 0 ms
[OGL LOG] solve : 5468 ms
BJompGKOBiCGStab:  Solving for Uz, Initial residual = 1.00089, Final residual = 8.72484e-07, No Iterations 56
[OGL LOG] init_preconditioner : 0 ms
 CG create  precond 
[OGL LOG] solve : 42166 ms
BJompGKOCG:  Solving for p, Initial residual = 0.832648, Final residual = 9.93315e-07, No Iterations 884
time step continuity errors : sum local = 9.56876e-10, global = -1.70041e-21, cumulative = 1.17756e-21
[OGL LOG] init_preconditioner : 0 ms
 CG create  precond 
[OGL LOG] solve : 42147 ms
BJompGKOCG:  Solving for p, Initial residual = 0.802906, Final residual = 9.80243e-07, No Iterations 882
time step continuity errors : sum local = 9.20672e-10, global = 7.02943e-21, cumulative = 8.20699e-21
ExecutionTime = 600.41 s  ClockTime = 312 s

Time = 0.004

Courant Number mean: 0.0995266 max: 0.926352
[OGL LOG] init_host_sparsity_pattern : 267 ms
[OGL LOG] matrix not stored update host matrix
[OGL LOG] update_host_mtx : 146 ms
[OGL LOG] matrix is not yet sorted, sorting host matrix
[OGL LOG] sort_host_mtx_sparsity_pattern : 194 ms
[OGL LOG] sort_host_mtx : 125 ms
[OGL LOG] init_preconditioner : 0 ms
[OGL LOG] solve : 4315 ms
BJompGKOBiCGStab:  Solving for Ux, Initial residual = 0.0541605, Final residual = 9.77137e-07, No Iterations 44
[OGL LOG] init_host_sparsity_pattern : 266 ms
[OGL LOG] matrix not stored update host matrix
[OGL LOG] update_host_mtx : 146 ms
[OGL LOG] matrix is not yet sorted, sorting host matrix
[OGL LOG] sort_host_mtx_sparsity_pattern : 193 ms
[OGL LOG] sort_host_mtx : 125 ms
[OGL LOG] init_preconditioner : 0 ms
[OGL LOG] solve : 4691 ms
BJompGKOBiCGStab:  Solving for Uy, Initial residual = 0.255021, Final residual = 6.48847e-07, No Iterations 48
[OGL LOG] init_host_sparsity_pattern : 266 ms
[OGL LOG] matrix not stored update host matrix
[OGL LOG] update_host_mtx : 146 ms
[OGL LOG] matrix is not yet sorted, sorting host matrix
[OGL LOG] sort_host_mtx_sparsity_pattern : 194 ms
[OGL LOG] sort_host_mtx : 125 ms
[OGL LOG] init_preconditioner : 0 ms
[OGL LOG] solve : 5165 ms
BJompGKOBiCGStab:  Solving for Uz, Initial residual = 0.873039, Final residual = 9.42496e-07, No Iterations 53
[OGL LOG] init_preconditioner : 0 ms
 CG create  precond 
[OGL LOG] solve : 42159 ms
BJompGKOCG:  Solving for p, Initial residual = 0.750169, Final residual = 9.97693e-07, No Iterations 884
time step continuity errors : sum local = 8.87816e-10, global = 2.40386e-22, cumulative = 8.44738e-21
[OGL LOG] init_preconditioner : 0 ms
 CG create  precond 
[OGL LOG] solve : 42105 ms
BJompGKOCG:  Solving for p, Initial residual = 0.685316, Final residual = 9.81895e-07, No Iterations 880
time step continuity errors : sum local = 8.90275e-10, global = -3.31115e-21, cumulative = 5.13623e-21
ExecutionTime = 800.41 s  ClockTime = 414 s

Time = 0.005

Courant Number mean: 0.112163 max: 0.946348
[OGL LOG] init_host_sparsity_pattern : 267 ms
[OGL LOG] matrix not stored update host matrix
[OGL LOG] update_host_mtx : 146 ms
[OGL LOG] matrix is not yet sorted, sorting host matrix
[OGL LOG] sort_host_mtx_sparsity_pattern : 194 ms
[OGL LOG] sort_host_mtx : 125 ms
[OGL LOG] init_preconditioner : 0 ms
[OGL LOG] solve : 4107 ms
BJompGKOBiCGStab:  Solving for Ux, Initial residual = 0.0411815, Final residual = 5.92409e-07, No Iterations 42
[OGL LOG] init_host_sparsity_pattern : 266 ms
[OGL LOG] matrix not stored update host matrix
[OGL LOG] update_host_mtx : 146 ms
[OGL LOG] matrix is not yet sorted, sorting host matrix
[OGL LOG] sort_host_mtx_sparsity_pattern : 193 ms
[OGL LOG] sort_host_mtx : 125 ms
[OGL LOG] init_preconditioner : 0 ms
[OGL LOG] solve : 4357 ms
BJompGKOBiCGStab:  Solving for Uy, Initial residual = 0.131858, Final residual = 5.57221e-07, No Iterations 45
[OGL LOG] init_host_sparsity_pattern : 266 ms
[OGL LOG] matrix not stored update host matrix
[OGL LOG] update_host_mtx : 146 ms
[OGL LOG] matrix is not yet sorted, sorting host matrix
[OGL LOG] sort_host_mtx_sparsity_pattern : 200 ms
[OGL LOG] sort_host_mtx : 125 ms
[OGL LOG] init_preconditioner : 0 ms
[OGL LOG] solve : 5362 ms
BJompGKOBiCGStab:  Solving for Uz, Initial residual = 0.871823, Final residual = 9.54612e-07, No Iterations 55
[OGL LOG] init_preconditioner : 0 ms
 CG create  precond 
[OGL LOG] solve : 42350 ms
BJompGKOCG:  Solving for p, Initial residual = 0.760002, Final residual = 9.42153e-07, No Iterations 888
time step continuity errors : sum local = 7.12366e-10, global = 8.78424e-21, cumulative = 1.39205e-20
[OGL LOG] init_preconditioner : 0 ms
 CG create  precond 
[OGL LOG] solve : 42309 ms
BJompGKOCG:  Solving for p, Initial residual = 0.713347, Final residual = 9.26482e-07, No Iterations 887
time step continuity errors : sum local = 6.89332e-10, global = -6.14193e-21, cumulative = 7.77854e-21
ExecutionTime = 1000.53 s  ClockTime = 516 s

End

