/*---------------------------------------------------------------------------*\
  =========                 |
  \\      /  F ield         | OpenFOAM: The Open Source CFD Toolbox
   \\    /   O peration     | Website:  https://openfoam.org
    \\  /    A nd           | Version:  8
     \\/     M anipulation  |
\*---------------------------------------------------------------------------*/
Build  : 8-13d66902f78c
Exec   : icoFoam
Date   : Jul 12 2021
Time   : 13:01:02
Host   : "uc2n400.localdomain"
PID    : 3892608
I/O    : uncollated
Case   : /pfs/data5/home/kit/scc/nq7776/code/OGL_DATA/lidDrivenCavity3D/v0.1-136-g40fef35/f584ccac99/IntelXeonGold6230CPU@2.10GHz/Test_2021-07-12-12:50:00/50/p-U-BiCGStab-GKO-none-omp/lidDrivenCavity3D
nProcs : 1
sigFpe : Enabling floating point exception trapping (FOAM_SIGFPE).
fileModificationChecking : Monitoring run-time modified files using timeStampMaster (fileModificationSkew 10)
allowSystemOperations : Allowing user-supplied system call operations

// * * * * * * * * * * * * * * * * * * * * * * * * * * * * * * * * * * * * * //
Create time

Create mesh for time = 0

Reading transportProperties

Reading field p

Reading field U

Reading/calculating face flux field phi


Starting time loop

Time = 0.002

Courant Number mean: 0 max: 0
[OGL LOG] init_host_sparsity_pattern : 35 ms
[OGL LOG] matrix not stored update host matrix
[OGL LOG] update_host_mtx : 18 ms
[OGL LOG] matrix is not yet sorted, compute sorting idxs
[OGL LOG] compute_sort : 985 ms
[OGL LOG] matrix is not yet sorted, sorting host matrix
[OGL LOG] sort_host_mtx_sparsity_pattern : 23 ms
[OGL LOG] sort_host_mtx : 15 ms
[OGL LOG] init_preconditioner : 0 ms
[OGL LOG] solve : 209 ms
noneompGKOBiCGStab:  Solving for Ux, Initial residual = 1, Final residual = 8.72813e-07, No Iterations 41
[OGL LOG] init_host_sparsity_pattern : 34 ms
[OGL LOG] matrix not stored update host matrix
[OGL LOG] update_host_mtx : 18 ms
[OGL LOG] matrix is not yet sorted, sorting host matrix
[OGL LOG] sort_host_mtx_sparsity_pattern : 23 ms
[OGL LOG] sort_host_mtx : 12 ms
[OGL LOG] init_preconditioner : 0 ms
[OGL LOG] solve : 6 ms
noneompGKOBiCGStab:  Solving for Uy, Initial residual = 0, Final residual = 0, No Iterations 0
[OGL LOG] init_host_sparsity_pattern : 33 ms
[OGL LOG] matrix not stored update host matrix
[OGL LOG] update_host_mtx : 15 ms
[OGL LOG] matrix is not yet sorted, sorting host matrix
[OGL LOG] sort_host_mtx_sparsity_pattern : 23 ms
[OGL LOG] sort_host_mtx : 12 ms
[OGL LOG] init_preconditioner : 0 ms
[OGL LOG] solve : 5 ms
noneompGKOBiCGStab:  Solving for Uz, Initial residual = 0, Final residual = 0, No Iterations 0
[OGL LOG] init_host_sparsity_pattern : 33 ms
[OGL LOG] matrix not stored update host matrix
[OGL LOG] update_host_mtx : 18 ms
[OGL LOG] matrix is not yet sorted, sorting host matrix
[OGL LOG] sort_host_mtx_sparsity_pattern : 22 ms
[OGL LOG] sort_host_mtx : 14 ms
[OGL LOG] init_preconditioner : 0 ms
[OGL LOG] solve : 1691 ms
noneompGKOBiCGStab:  Solving for p, Initial residual = 1, Final residual = 8.43708e-07, No Iterations 349
time step continuity errors : sum local = 6.80484e-09, global = -3.71014e-21, cumulative = -3.71014e-21
[OGL LOG] init_preconditioner : 0 ms
[OGL LOG] solve : 1597 ms
noneompGKOBiCGStab:  Solving for p, Initial residual = 0.721586, Final residual = 4.27719e-08, No Iterations 340
time step continuity errors : sum local = 1.09095e-07, global = -1.53838e-20, cumulative = -1.90939e-20
ExecutionTime = 9 s  ClockTime = 5 s

Time = 0.004

Courant Number mean: 0.0720723 max: 0.726639
[OGL LOG] init_host_sparsity_pattern : 33 ms
[OGL LOG] matrix not stored update host matrix
[OGL LOG] update_host_mtx : 16 ms
[OGL LOG] matrix is not yet sorted, sorting host matrix
[OGL LOG] sort_host_mtx_sparsity_pattern : 23 ms
[OGL LOG] sort_host_mtx : 12 ms
[OGL LOG] init_preconditioner : 0 ms
[OGL LOG] solve : 184 ms
noneompGKOBiCGStab:  Solving for Ux, Initial residual = 0.203477, Final residual = 7.52941e-07, No Iterations 38
[OGL LOG] init_host_sparsity_pattern : 33 ms
[OGL LOG] matrix not stored update host matrix
[OGL LOG] update_host_mtx : 15 ms
[OGL LOG] matrix is not yet sorted, sorting host matrix
[OGL LOG] sort_host_mtx_sparsity_pattern : 21 ms
[OGL LOG] sort_host_mtx : 12 ms
[OGL LOG] init_preconditioner : 0 ms
[OGL LOG] solve : 203 ms
noneompGKOBiCGStab:  Solving for Uy, Initial residual = 0.61842, Final residual = 6.9587e-07, No Iterations 41
[OGL LOG] init_host_sparsity_pattern : 33 ms
[OGL LOG] matrix not stored update host matrix
[OGL LOG] update_host_mtx : 15 ms
[OGL LOG] matrix is not yet sorted, sorting host matrix
[OGL LOG] sort_host_mtx_sparsity_pattern : 21 ms
[OGL LOG] sort_host_mtx : 12 ms
[OGL LOG] init_preconditioner : 0 ms
[OGL LOG] solve : 194 ms
noneompGKOBiCGStab:  Solving for Uz, Initial residual = 0.536771, Final residual = 4.21803e-07, No Iterations 40
[OGL LOG] init_preconditioner : 0 ms
[OGL LOG] solve : 1639 ms
noneompGKOBiCGStab:  Solving for p, Initial residual = 0.673316, Final residual = 7.82972e-07, No Iterations 350
time step continuity errors : sum local = 1.03417e-08, global = 1.264e-20, cumulative = -6.45391e-21
[OGL LOG] init_preconditioner : 0 ms
[OGL LOG] solve : 1617 ms
noneompGKOBiCGStab:  Solving for p, Initial residual = 0.598875, Final residual = 9.00267e-07, No Iterations 342
time step continuity errors : sum local = 2.24809e-08, global = -3.46406e-20, cumulative = -4.10945e-20
ExecutionTime = 17.08 s  ClockTime = 10 s

Time = 0.006

Courant Number mean: 0.107409 max: 0.881757
[OGL LOG] init_host_sparsity_pattern : 32 ms
[OGL LOG] matrix not stored update host matrix
[OGL LOG] update_host_mtx : 16 ms
[OGL LOG] matrix is not yet sorted, sorting host matrix
[OGL LOG] sort_host_mtx_sparsity_pattern : 24 ms
[OGL LOG] sort_host_mtx : 12 ms
[OGL LOG] init_preconditioner : 0 ms
[OGL LOG] solve : 171 ms
noneompGKOBiCGStab:  Solving for Ux, Initial residual = 0.0995943, Final residual = 9.16749e-07, No Iterations 35
[OGL LOG] init_host_sparsity_pattern : 33 ms
[OGL LOG] matrix not stored update host matrix
[OGL LOG] update_host_mtx : 15 ms
[OGL LOG] matrix is not yet sorted, sorting host matrix
[OGL LOG] sort_host_mtx_sparsity_pattern : 21 ms
[OGL LOG] sort_host_mtx : 12 ms
[OGL LOG] init_preconditioner : 0 ms
[OGL LOG] solve : 180 ms
noneompGKOBiCGStab:  Solving for Uy, Initial residual = 0.249912, Final residual = 5.68537e-07, No Iterations 37
[OGL LOG] init_host_sparsity_pattern : 33 ms
[OGL LOG] matrix not stored update host matrix
[OGL LOG] update_host_mtx : 15 ms
[OGL LOG] matrix is not yet sorted, sorting host matrix
[OGL LOG] sort_host_mtx_sparsity_pattern : 21 ms
[OGL LOG] sort_host_mtx : 12 ms
[OGL LOG] init_preconditioner : 0 ms
[OGL LOG] solve : 190 ms
noneompGKOBiCGStab:  Solving for Uz, Initial residual = 0.542805, Final residual = 3.01861e-07, No Iterations 39
[OGL LOG] init_preconditioner : 0 ms
[OGL LOG] solve : 1697 ms
noneompGKOBiCGStab:  Solving for p, Initial residual = 0.606905, Final residual = 9.19999e-07, No Iterations 358
time step continuity errors : sum local = 1.47837e-07, global = 3.36633e-20, cumulative = -7.43127e-21
[OGL LOG] init_preconditioner : 0 ms
[OGL LOG] solve : 1689 ms
noneompGKOBiCGStab:  Solving for p, Initial residual = 0.560808, Final residual = 9.10485e-07, No Iterations 352
time step continuity errors : sum local = 5.93426e-09, global = -1.81377e-20, cumulative = -2.5569e-20
ExecutionTime = 25.31 s  ClockTime = 14 s

Time = 0.008

Courant Number mean: 0.123244 max: 0.890102
[OGL LOG] init_host_sparsity_pattern : 33 ms
[OGL LOG] matrix not stored update host matrix
[OGL LOG] update_host_mtx : 15 ms
[OGL LOG] matrix is not yet sorted, sorting host matrix
[OGL LOG] sort_host_mtx_sparsity_pattern : 21 ms
[OGL LOG] sort_host_mtx : 12 ms
[OGL LOG] init_preconditioner : 0 ms
[OGL LOG] solve : 155 ms
noneompGKOBiCGStab:  Solving for Ux, Initial residual = 0.0341435, Final residual = 8.32324e-07, No Iterations 31
[OGL LOG] init_host_sparsity_pattern : 33 ms
[OGL LOG] matrix not stored update host matrix
[OGL LOG] update_host_mtx : 15 ms
[OGL LOG] matrix is not yet sorted, sorting host matrix
[OGL LOG] sort_host_mtx_sparsity_pattern : 21 ms
[OGL LOG] sort_host_mtx : 12 ms
[OGL LOG] init_preconditioner : 0 ms
[OGL LOG] solve : 170 ms
noneompGKOBiCGStab:  Solving for Uy, Initial residual = 0.132382, Final residual = 8.85425e-07, No Iterations 34
[OGL LOG] init_host_sparsity_pattern : 33 ms
[OGL LOG] matrix not stored update host matrix
[OGL LOG] update_host_mtx : 15 ms
[OGL LOG] matrix is not yet sorted, sorting host matrix
[OGL LOG] sort_host_mtx_sparsity_pattern : 21 ms
[OGL LOG] sort_host_mtx : 12 ms
[OGL LOG] init_preconditioner : 0 ms
[OGL LOG] solve : 183 ms
noneompGKOBiCGStab:  Solving for Uz, Initial residual = 0.472417, Final residual = 7.93112e-07, No Iterations 37
[OGL LOG] init_preconditioner : 0 ms
[OGL LOG] solve : 1742 ms
noneompGKOBiCGStab:  Solving for p, Initial residual = 0.423037, Final residual = 8.77357e-07, No Iterations 371
time step continuity errors : sum local = 1.19665e-08, global = 4.37851e-20, cumulative = 1.82161e-20
[OGL LOG] init_preconditioner : 0 ms
[OGL LOG] solve : 1647 ms
noneompGKOBiCGStab:  Solving for p, Initial residual = 0.368363, Final residual = 7.65649e-07, No Iterations 344
time step continuity errors : sum local = 6.42411e-08, global = 3.44805e-20, cumulative = 5.26967e-20
ExecutionTime = 33.49 s  ClockTime = 18 s

Time = 0.01

Courant Number mean: 0.136096 max: 0.906942
[OGL LOG] init_host_sparsity_pattern : 33 ms
[OGL LOG] matrix not stored update host matrix
[OGL LOG] update_host_mtx : 16 ms
[OGL LOG] matrix is not yet sorted, sorting host matrix
[OGL LOG] sort_host_mtx_sparsity_pattern : 23 ms
[OGL LOG] sort_host_mtx : 12 ms
[OGL LOG] init_preconditioner : 0 ms
[OGL LOG] solve : 151 ms
noneompGKOBiCGStab:  Solving for Ux, Initial residual = 0.023084, Final residual = 7.76987e-07, No Iterations 30
[OGL LOG] init_host_sparsity_pattern : 33 ms
[OGL LOG] matrix not stored update host matrix
[OGL LOG] update_host_mtx : 15 ms
[OGL LOG] matrix is not yet sorted, sorting host matrix
[OGL LOG] sort_host_mtx_sparsity_pattern : 21 ms
[OGL LOG] sort_host_mtx : 12 ms
[OGL LOG] init_preconditioner : 0 ms
[OGL LOG] solve : 161 ms
noneompGKOBiCGStab:  Solving for Uy, Initial residual = 0.0483911, Final residual = 8.3865e-07, No Iterations 32
[OGL LOG] init_host_sparsity_pattern : 33 ms
[OGL LOG] matrix not stored update host matrix
[OGL LOG] update_host_mtx : 15 ms
[OGL LOG] matrix is not yet sorted, sorting host matrix
[OGL LOG] sort_host_mtx_sparsity_pattern : 21 ms
[OGL LOG] sort_host_mtx : 12 ms
[OGL LOG] init_preconditioner : 0 ms
[OGL LOG] solve : 177 ms
noneompGKOBiCGStab:  Solving for Uz, Initial residual = 0.159841, Final residual = 9.82917e-07, No Iterations 36
[OGL LOG] init_preconditioner : 0 ms
[OGL LOG] solve : 1645 ms
noneompGKOBiCGStab:  Solving for p, Initial residual = 0.361724, Final residual = 6.59242e-07, No Iterations 346
time step continuity errors : sum local = 1.23903e-08, global = -7.59581e-21, cumulative = 4.51009e-20
[OGL LOG] init_preconditioner : 0 ms
[OGL LOG] solve : 1660 ms
noneompGKOBiCGStab:  Solving for p, Initial residual = 0.333244, Final residual = 6.9904e-07, No Iterations 351
time step continuity errors : sum local = 9.21082e-09, global = -4.38692e-20, cumulative = 1.23172e-21
ExecutionTime = 41.47 s  ClockTime = 22 s

End

