/*---------------------------------------------------------------------------*\
  =========                 |
  \\      /  F ield         | OpenFOAM: The Open Source CFD Toolbox
   \\    /   O peration     | Website:  https://openfoam.org
    \\  /    A nd           | Version:  8
     \\/     M anipulation  |
\*---------------------------------------------------------------------------*/
Build  : 8-13d66902f78c
Exec   : icoFoam
Date   : Jul 14 2021
Time   : 02:49:18
Host   : "uc2n398.localdomain"
PID    : 547521
I/O    : uncollated
Case   : /pfs/data5/home/kit/scc/nq7776/code/OGL_DATA/lidDrivenCavity3D/v0.1-136-g40fef35/f584ccac99/IntelXeonGold6230CPU@2.10GHz/Test_2021-07-14-01:40:40/75/p-U-BiCGStab-GKO-BJ-omp/lidDrivenCavity3D
nProcs : 1
sigFpe : Enabling floating point exception trapping (FOAM_SIGFPE).
fileModificationChecking : Monitoring run-time modified files using timeStampMaster (fileModificationSkew 10)
allowSystemOperations : Allowing user-supplied system call operations

// * * * * * * * * * * * * * * * * * * * * * * * * * * * * * * * * * * * * * //
Create time

Create mesh for time = 0

Reading transportProperties

Reading field p

Reading field U

Reading/calculating face flux field phi


Starting time loop

Time = 0.00133333

Courant Number mean: 0 max: 0
[OGL LOG] init_host_sparsity_pattern : 121 ms
[OGL LOG] matrix not stored update host matrix
[OGL LOG] update_host_mtx : 61 ms
[OGL LOG] matrix is not yet sorted, compute sorting idxs
[OGL LOG] compute_sort : 3335 ms
[OGL LOG] matrix is not yet sorted, sorting host matrix
[OGL LOG] sort_host_mtx_sparsity_pattern : 78 ms
[OGL LOG] sort_host_mtx : 53 ms
[OGL LOG] init_preconditioner : 61 ms
[OGL LOG] solve : 1852 ms
BJompGKOBiCGStab:  Solving for Ux, Initial residual = 1, Final residual = 8.05502e-07, No Iterations 44
[OGL LOG] init_host_sparsity_pattern : 116 ms
[OGL LOG] matrix not stored update host matrix
[OGL LOG] update_host_mtx : 61 ms
[OGL LOG] matrix is not yet sorted, sorting host matrix
[OGL LOG] sort_host_mtx_sparsity_pattern : 80 ms
[OGL LOG] sort_host_mtx : 43 ms
[OGL LOG] init_preconditioner : 59 ms
[OGL LOG] solve : 33 ms
BJompGKOBiCGStab:  Solving for Uy, Initial residual = 0, Final residual = 0, No Iterations 0
[OGL LOG] init_host_sparsity_pattern : 112 ms
[OGL LOG] matrix not stored update host matrix
[OGL LOG] update_host_mtx : 53 ms
[OGL LOG] matrix is not yet sorted, sorting host matrix
[OGL LOG] sort_host_mtx_sparsity_pattern : 76 ms
[OGL LOG] sort_host_mtx : 47 ms
[OGL LOG] init_preconditioner : 59 ms
[OGL LOG] solve : 32 ms
BJompGKOBiCGStab:  Solving for Uz, Initial residual = 0, Final residual = 0, No Iterations 0
[OGL LOG] init_host_sparsity_pattern : 112 ms
[OGL LOG] matrix not stored update host matrix
[OGL LOG] update_host_mtx : 62 ms
[OGL LOG] matrix is not yet sorted, sorting host matrix
[OGL LOG] sort_host_mtx_sparsity_pattern : 80 ms
[OGL LOG] sort_host_mtx : 43 ms
[OGL LOG] init_preconditioner : 59 ms
[OGL LOG] solve : 20243 ms
BJompGKOBiCGStab:  Solving for p, Initial residual = 1, Final residual = 9.90854e-07, No Iterations 491
time step continuity errors : sum local = 1.21055e-08, global = 1.39587e-21, cumulative = 1.39587e-21
[OGL LOG] init_preconditioner : 0 ms
[OGL LOG] solve : 20449 ms
BJompGKOBiCGStab:  Solving for p, Initial residual = 0.759312, Final residual = 7.76447e-07, No Iterations 497
time step continuity errors : sum local = 1.50363e-08, global = 6.89616e-21, cumulative = 8.29203e-21
ExecutionTime = 92.18 s  ClockTime = 50 s

Time = 0.00266667

Courant Number mean: 0.0631769 max: 0.775391
[OGL LOG] init_host_sparsity_pattern : 113 ms
[OGL LOG] matrix not stored update host matrix
[OGL LOG] update_host_mtx : 56 ms
[OGL LOG] matrix is not yet sorted, sorting host matrix
[OGL LOG] sort_host_mtx_sparsity_pattern : 80 ms
[OGL LOG] sort_host_mtx : 44 ms
[OGL LOG] init_preconditioner : 0 ms
[OGL LOG] solve : 1851 ms
BJompGKOBiCGStab:  Solving for Ux, Initial residual = 0.183021, Final residual = 7.99942e-07, No Iterations 43
[OGL LOG] init_host_sparsity_pattern : 112 ms
[OGL LOG] matrix not stored update host matrix
[OGL LOG] update_host_mtx : 54 ms
[OGL LOG] matrix is not yet sorted, sorting host matrix
[OGL LOG] sort_host_mtx_sparsity_pattern : 73 ms
[OGL LOG] sort_host_mtx : 44 ms
[OGL LOG] init_preconditioner : 0 ms
[OGL LOG] solve : 1914 ms
BJompGKOBiCGStab:  Solving for Uy, Initial residual = 0.61964, Final residual = 9.62074e-07, No Iterations 45
[OGL LOG] init_host_sparsity_pattern : 112 ms
[OGL LOG] matrix not stored update host matrix
[OGL LOG] update_host_mtx : 53 ms
[OGL LOG] matrix is not yet sorted, sorting host matrix
[OGL LOG] sort_host_mtx_sparsity_pattern : 73 ms
[OGL LOG] sort_host_mtx : 44 ms
[OGL LOG] init_preconditioner : 0 ms
[OGL LOG] solve : 1995 ms
BJompGKOBiCGStab:  Solving for Uz, Initial residual = 0.604608, Final residual = 5.32692e-07, No Iterations 47
[OGL LOG] init_preconditioner : 0 ms
[OGL LOG] solve : 19736 ms
BJompGKOBiCGStab:  Solving for p, Initial residual = 0.749128, Final residual = 9.86694e-07, No Iterations 478
time step continuity errors : sum local = 2.85209e-09, global = 9.20624e-21, cumulative = 1.74983e-20
[OGL LOG] init_preconditioner : 0 ms
[OGL LOG] solve : 20243 ms
BJompGKOBiCGStab:  Solving for p, Initial residual = 0.68393, Final residual = 8.1595e-07, No Iterations 493
time step continuity errors : sum local = 2.225e-09, global = 7.43274e-21, cumulative = 2.4931e-20
ExecutionTime = 184.76 s  ClockTime = 97 s

Time = 0.004

Courant Number mean: 0.0951458 max: 0.917122
[OGL LOG] init_host_sparsity_pattern : 112 ms
[OGL LOG] matrix not stored update host matrix
[OGL LOG] update_host_mtx : 57 ms
[OGL LOG] matrix is not yet sorted, sorting host matrix
[OGL LOG] sort_host_mtx_sparsity_pattern : 81 ms
[OGL LOG] sort_host_mtx : 44 ms
[OGL LOG] init_preconditioner : 0 ms
[OGL LOG] solve : 1844 ms
BJompGKOBiCGStab:  Solving for Ux, Initial residual = 0.10193, Final residual = 6.15821e-07, No Iterations 44
[OGL LOG] init_host_sparsity_pattern : 112 ms
[OGL LOG] matrix not stored update host matrix
[OGL LOG] update_host_mtx : 54 ms
[OGL LOG] matrix is not yet sorted, sorting host matrix
[OGL LOG] sort_host_mtx_sparsity_pattern : 73 ms
[OGL LOG] sort_host_mtx : 44 ms
[OGL LOG] init_preconditioner : 0 ms
[OGL LOG] solve : 1936 ms
BJompGKOBiCGStab:  Solving for Uy, Initial residual = 0.335477, Final residual = 9.90218e-07, No Iterations 46
[OGL LOG] init_host_sparsity_pattern : 114 ms
[OGL LOG] matrix not stored update host matrix
[OGL LOG] update_host_mtx : 57 ms
[OGL LOG] matrix is not yet sorted, sorting host matrix
[OGL LOG] sort_host_mtx_sparsity_pattern : 73 ms
[OGL LOG] sort_host_mtx : 44 ms
[OGL LOG] init_preconditioner : 0 ms
[OGL LOG] solve : 1925 ms
BJompGKOBiCGStab:  Solving for Uz, Initial residual = 0.920995, Final residual = 8.33842e-07, No Iterations 46
[OGL LOG] init_preconditioner : 0 ms
[OGL LOG] solve : 21166 ms
BJompGKOBiCGStab:  Solving for p, Initial residual = 0.754747, Final residual = 7.69762e-07, No Iterations 515
time step continuity errors : sum local = 2.21956e-09, global = 1.56365e-20, cumulative = 4.05675e-20
[OGL LOG] init_preconditioner : 0 ms
[OGL LOG] solve : 19835 ms
BJompGKOBiCGStab:  Solving for p, Initial residual = 0.717034, Final residual = 8.72324e-07, No Iterations 483
time step continuity errors : sum local = 2.8219e-09, global = -1.00867e-20, cumulative = 3.04808e-20
ExecutionTime = 279.32 s  ClockTime = 145 s

Time = 0.00533333

Courant Number mean: 0.109256 max: 0.91346
[OGL LOG] init_host_sparsity_pattern : 113 ms
[OGL LOG] matrix not stored update host matrix
[OGL LOG] update_host_mtx : 54 ms
[OGL LOG] matrix is not yet sorted, sorting host matrix
[OGL LOG] sort_host_mtx_sparsity_pattern : 78 ms
[OGL LOG] sort_host_mtx : 44 ms
[OGL LOG] init_preconditioner : 0 ms
[OGL LOG] solve : 1623 ms
BJompGKOBiCGStab:  Solving for Ux, Initial residual = 0.0446949, Final residual = 9.34293e-07, No Iterations 38
[OGL LOG] init_host_sparsity_pattern : 112 ms
[OGL LOG] matrix not stored update host matrix
[OGL LOG] update_host_mtx : 53 ms
[OGL LOG] matrix is not yet sorted, sorting host matrix
[OGL LOG] sort_host_mtx_sparsity_pattern : 72 ms
[OGL LOG] sort_host_mtx : 44 ms
[OGL LOG] init_preconditioner : 0 ms
[OGL LOG] solve : 1663 ms
BJompGKOBiCGStab:  Solving for Uy, Initial residual = 0.197561, Final residual = 8.30988e-07, No Iterations 39
[OGL LOG] init_host_sparsity_pattern : 112 ms
[OGL LOG] matrix not stored update host matrix
[OGL LOG] update_host_mtx : 54 ms
[OGL LOG] matrix is not yet sorted, sorting host matrix
[OGL LOG] sort_host_mtx_sparsity_pattern : 73 ms
[OGL LOG] sort_host_mtx : 43 ms
[OGL LOG] init_preconditioner : 0 ms
[OGL LOG] solve : 1935 ms
BJompGKOBiCGStab:  Solving for Uz, Initial residual = 0.732834, Final residual = 6.87851e-07, No Iterations 46
[OGL LOG] init_preconditioner : 0 ms
[OGL LOG] solve : 20820 ms
BJompGKOBiCGStab:  Solving for p, Initial residual = 0.617343, Final residual = 9.27744e-07, No Iterations 507
time step continuity errors : sum local = 1.54466e-09, global = 1.21556e-20, cumulative = 4.26364e-20
[OGL LOG] init_preconditioner : 0 ms
[OGL LOG] solve : 19755 ms
BJompGKOBiCGStab:  Solving for p, Initial residual = 0.554732, Final residual = 9.33118e-07, No Iterations 481
time step continuity errors : sum local = 1.63728e-09, global = 7.96737e-21, cumulative = 5.06038e-20
ExecutionTime = 372.01 s  ClockTime = 192 s

Time = 0.00666667

Courant Number mean: 0.122084 max: 0.929107
[OGL LOG] init_host_sparsity_pattern : 112 ms
[OGL LOG] matrix not stored update host matrix
[OGL LOG] update_host_mtx : 54 ms
[OGL LOG] matrix is not yet sorted, sorting host matrix
[OGL LOG] sort_host_mtx_sparsity_pattern : 77 ms
[OGL LOG] sort_host_mtx : 44 ms
[OGL LOG] init_preconditioner : 0 ms
[OGL LOG] solve : 1489 ms
BJompGKOBiCGStab:  Solving for Ux, Initial residual = 0.0319088, Final residual = 8.19003e-07, No Iterations 35
[OGL LOG] init_host_sparsity_pattern : 112 ms
[OGL LOG] matrix not stored update host matrix
[OGL LOG] update_host_mtx : 53 ms
[OGL LOG] matrix is not yet sorted, sorting host matrix
[OGL LOG] sort_host_mtx_sparsity_pattern : 72 ms
[OGL LOG] sort_host_mtx : 43 ms
[OGL LOG] init_preconditioner : 0 ms
[OGL LOG] solve : 1491 ms
BJompGKOBiCGStab:  Solving for Uy, Initial residual = 0.080449, Final residual = 8.78953e-07, No Iterations 35
[OGL LOG] init_host_sparsity_pattern : 112 ms
[OGL LOG] matrix not stored update host matrix
[OGL LOG] update_host_mtx : 53 ms
[OGL LOG] matrix is not yet sorted, sorting host matrix
[OGL LOG] sort_host_mtx_sparsity_pattern : 73 ms
[OGL LOG] sort_host_mtx : 43 ms
[OGL LOG] init_preconditioner : 0 ms
[OGL LOG] solve : 1855 ms
BJompGKOBiCGStab:  Solving for Uz, Initial residual = 0.513763, Final residual = 5.62213e-07, No Iterations 44
[OGL LOG] init_preconditioner : 0 ms
[OGL LOG] solve : 12982 ms
BJompGKOBiCGStab:  Solving for p, Initial residual = 0.591997, Final residual = 9.71612e-07, No Iterations 316
time step continuity errors : sum local = 1.40668e-09, global = -7.85096e-21, cumulative = 4.27528e-20
[OGL LOG] init_preconditioner : 0 ms
[OGL LOG] solve : 20672 ms
BJompGKOBiCGStab:  Solving for p, Initial residual = 0.54313, Final residual = 8.89279e-07, No Iterations 505
time step continuity errors : sum local = 1.07051e-09, global = -6.49951e-22, cumulative = 4.21028e-20
ExecutionTime = 450.1 s  ClockTime = 232 s

End

