/*---------------------------------------------------------------------------*\
  =========                 |
  \\      /  F ield         | OpenFOAM: The Open Source CFD Toolbox
   \\    /   O peration     | Website:  https://openfoam.org
    \\  /    A nd           | Version:  8
     \\/     M anipulation  |
\*---------------------------------------------------------------------------*/
Build  : 8-13d66902f78c
Exec   : icoFoam
Date   : Jul 14 2021
Time   : 00:59:55
Host   : "uc2n477.localdomain"
PID    : 2916374
I/O    : uncollated
Case   : /pfs/data5/home/kit/scc/nq7776/code/OGL_DATA/lidDrivenCavity3D/v0.1-136-g40fef35/f584ccac99/IntelXeonGold6230CPU@2.10GHz/Test_2021-07-14-00:33:42/75/p-U-CG-GKO-BJ-omp/lidDrivenCavity3D
nProcs : 1
sigFpe : Enabling floating point exception trapping (FOAM_SIGFPE).
fileModificationChecking : Monitoring run-time modified files using timeStampMaster (fileModificationSkew 10)
allowSystemOperations : Allowing user-supplied system call operations

// * * * * * * * * * * * * * * * * * * * * * * * * * * * * * * * * * * * * * //
Create time

Create mesh for time = 0

Reading transportProperties

Reading field p

Reading field U

Reading/calculating face flux field phi


Starting time loop

Time = 0.00133333

Courant Number mean: 0 max: 0
[OGL LOG] init_host_sparsity_pattern : 120 ms
[OGL LOG] matrix not stored update host matrix
[OGL LOG] update_host_mtx : 61 ms
[OGL LOG] matrix is not yet sorted, compute sorting idxs
[OGL LOG] compute_sort : 3343 ms
[OGL LOG] matrix is not yet sorted, sorting host matrix
[OGL LOG] sort_host_mtx_sparsity_pattern : 81 ms
[OGL LOG] sort_host_mtx : 52 ms
[OGL LOG] init_preconditioner : 113 ms
[OGL LOG] solve : 3266 ms
BJompGKOBiCGStab:  Solving for Ux, Initial residual = 1, Final residual = 8.05502e-07, No Iterations 44
[OGL LOG] init_host_sparsity_pattern : 116 ms
[OGL LOG] matrix not stored update host matrix
[OGL LOG] update_host_mtx : 60 ms
[OGL LOG] matrix is not yet sorted, sorting host matrix
[OGL LOG] sort_host_mtx_sparsity_pattern : 79 ms
[OGL LOG] sort_host_mtx : 44 ms
[OGL LOG] init_preconditioner : 112 ms
[OGL LOG] solve : 57 ms
BJompGKOBiCGStab:  Solving for Uy, Initial residual = 0, Final residual = 0, No Iterations 0
[OGL LOG] init_host_sparsity_pattern : 112 ms
[OGL LOG] matrix not stored update host matrix
[OGL LOG] update_host_mtx : 53 ms
[OGL LOG] matrix is not yet sorted, sorting host matrix
[OGL LOG] sort_host_mtx_sparsity_pattern : 76 ms
[OGL LOG] sort_host_mtx : 47 ms
[OGL LOG] init_preconditioner : 118 ms
[OGL LOG] solve : 56 ms
BJompGKOBiCGStab:  Solving for Uz, Initial residual = 0, Final residual = 0, No Iterations 0
[OGL LOG] init_host_sparsity_pattern : 112 ms
[OGL LOG] matrix not stored update host matrix
[OGL LOG] update_host_mtx : 62 ms
[OGL LOG] matrix is not yet sorted, sorting host matrix
[OGL LOG] sort_host_mtx_sparsity_pattern : 80 ms
[OGL LOG] sort_host_mtx : 43 ms
[OGL LOG] init_preconditioner : 112 ms
 CG create  precond 
[OGL LOG] solve : 24393 ms
BJompGKOCG:  Solving for p, Initial residual = 1, Final residual = 9.70497e-07, No Iterations 661
time step continuity errors : sum local = 8.86458e-10, global = 2.60401e-21, cumulative = 2.60401e-21
[OGL LOG] init_preconditioner : 0 ms
 CG create  precond 
[OGL LOG] solve : 24199 ms
BJompGKOCG:  Solving for p, Initial residual = 0.759326, Final residual = 9.84959e-07, No Iterations 656
time step continuity errors : sum local = 1.1517e-09, global = -1.77714e-21, cumulative = 8.26868e-22
ExecutionTime = 58.95 s  ClockTime = 60 s

Time = 0.00266667

Courant Number mean: 0.0631769 max: 0.775391
[OGL LOG] init_host_sparsity_pattern : 112 ms
[OGL LOG] matrix not stored update host matrix
[OGL LOG] update_host_mtx : 53 ms
[OGL LOG] matrix is not yet sorted, sorting host matrix
[OGL LOG] sort_host_mtx_sparsity_pattern : 72 ms
[OGL LOG] sort_host_mtx : 43 ms
[OGL LOG] init_preconditioner : 0 ms
[OGL LOG] solve : 3512 ms
BJompGKOBiCGStab:  Solving for Ux, Initial residual = 0.18303, Final residual = 8.2487e-07, No Iterations 47
[OGL LOG] init_host_sparsity_pattern : 112 ms
[OGL LOG] matrix not stored update host matrix
[OGL LOG] update_host_mtx : 53 ms
[OGL LOG] matrix is not yet sorted, sorting host matrix
[OGL LOG] sort_host_mtx_sparsity_pattern : 72 ms
[OGL LOG] sort_host_mtx : 43 ms
[OGL LOG] init_preconditioner : 0 ms
[OGL LOG] solve : 3192 ms
BJompGKOBiCGStab:  Solving for Uy, Initial residual = 0.619628, Final residual = 8.72479e-07, No Iterations 43
[OGL LOG] init_host_sparsity_pattern : 112 ms
[OGL LOG] matrix not stored update host matrix
[OGL LOG] update_host_mtx : 53 ms
[OGL LOG] matrix is not yet sorted, sorting host matrix
[OGL LOG] sort_host_mtx_sparsity_pattern : 72 ms
[OGL LOG] sort_host_mtx : 44 ms
[OGL LOG] init_preconditioner : 0 ms
[OGL LOG] solve : 3369 ms
BJompGKOBiCGStab:  Solving for Uz, Initial residual = 0.604713, Final residual = 9.44771e-07, No Iterations 45
[OGL LOG] init_preconditioner : 0 ms
 CG create  precond 
[OGL LOG] solve : 23629 ms
BJompGKOCG:  Solving for p, Initial residual = 0.749121, Final residual = 9.66845e-07, No Iterations 641
time step continuity errors : sum local = 1.85884e-09, global = 1.80578e-21, cumulative = 2.63265e-21
[OGL LOG] init_preconditioner : 0 ms
 CG create  precond 
[OGL LOG] solve : 23526 ms
BJompGKOCG:  Solving for p, Initial residual = 0.683903, Final residual = 9.85237e-07, No Iterations 637
time step continuity errors : sum local = 1.4467e-09, global = 1.0068e-20, cumulative = 1.27007e-20
ExecutionTime = 117.3 s  ClockTime = 118 s

Time = 0.004

Courant Number mean: 0.095146 max: 0.917122
[OGL LOG] init_host_sparsity_pattern : 112 ms
[OGL LOG] matrix not stored update host matrix
[OGL LOG] update_host_mtx : 53 ms
[OGL LOG] matrix is not yet sorted, sorting host matrix
[OGL LOG] sort_host_mtx_sparsity_pattern : 72 ms
[OGL LOG] sort_host_mtx : 43 ms
[OGL LOG] init_preconditioner : 0 ms
[OGL LOG] solve : 3182 ms
BJompGKOBiCGStab:  Solving for Ux, Initial residual = 0.101942, Final residual = 5.36449e-07, No Iterations 43
[OGL LOG] init_host_sparsity_pattern : 112 ms
[OGL LOG] matrix not stored update host matrix
[OGL LOG] update_host_mtx : 53 ms
[OGL LOG] matrix is not yet sorted, sorting host matrix
[OGL LOG] sort_host_mtx_sparsity_pattern : 72 ms
[OGL LOG] sort_host_mtx : 43 ms
[OGL LOG] init_preconditioner : 0 ms
[OGL LOG] solve : 3622 ms
BJompGKOBiCGStab:  Solving for Uy, Initial residual = 0.335433, Final residual = 8.01245e-07, No Iterations 49
[OGL LOG] init_host_sparsity_pattern : 112 ms
[OGL LOG] matrix not stored update host matrix
[OGL LOG] update_host_mtx : 54 ms
[OGL LOG] matrix is not yet sorted, sorting host matrix
[OGL LOG] sort_host_mtx_sparsity_pattern : 72 ms
[OGL LOG] sort_host_mtx : 43 ms
[OGL LOG] init_preconditioner : 0 ms
[OGL LOG] solve : 3405 ms
BJompGKOBiCGStab:  Solving for Uz, Initial residual = 0.920737, Final residual = 7.14167e-07, No Iterations 46
[OGL LOG] init_preconditioner : 0 ms
 CG create  precond 
[OGL LOG] solve : 24125 ms
BJompGKOCG:  Solving for p, Initial residual = 0.754748, Final residual = 9.93852e-07, No Iterations 655
time step continuity errors : sum local = 1.48304e-09, global = 2.08737e-20, cumulative = 3.35744e-20
[OGL LOG] init_preconditioner : 0 ms
 CG create  precond 
[OGL LOG] solve : 24122 ms
BJompGKOCG:  Solving for p, Initial residual = 0.717012, Final residual = 9.82012e-07, No Iterations 654
time step continuity errors : sum local = 1.14481e-09, global = 2.4572e-20, cumulative = 5.81464e-20
ExecutionTime = 176.88 s  ClockTime = 178 s

Time = 0.00533333

Courant Number mean: 0.109256 max: 0.91346
[OGL LOG] init_host_sparsity_pattern : 112 ms
[OGL LOG] matrix not stored update host matrix
[OGL LOG] update_host_mtx : 53 ms
[OGL LOG] matrix is not yet sorted, sorting host matrix
[OGL LOG] sort_host_mtx_sparsity_pattern : 72 ms
[OGL LOG] sort_host_mtx : 43 ms
[OGL LOG] init_preconditioner : 0 ms
[OGL LOG] solve : 2968 ms
BJompGKOBiCGStab:  Solving for Ux, Initial residual = 0.0446959, Final residual = 4.90094e-07, No Iterations 40
[OGL LOG] init_host_sparsity_pattern : 112 ms
[OGL LOG] matrix not stored update host matrix
[OGL LOG] update_host_mtx : 53 ms
[OGL LOG] matrix is not yet sorted, sorting host matrix
[OGL LOG] sort_host_mtx_sparsity_pattern : 72 ms
[OGL LOG] sort_host_mtx : 43 ms
[OGL LOG] init_preconditioner : 0 ms
[OGL LOG] solve : 3149 ms
BJompGKOBiCGStab:  Solving for Uy, Initial residual = 0.197564, Final residual = 6.92449e-07, No Iterations 42
[OGL LOG] init_host_sparsity_pattern : 112 ms
[OGL LOG] matrix not stored update host matrix
[OGL LOG] update_host_mtx : 53 ms
[OGL LOG] matrix is not yet sorted, sorting host matrix
[OGL LOG] sort_host_mtx_sparsity_pattern : 72 ms
[OGL LOG] sort_host_mtx : 43 ms
[OGL LOG] init_preconditioner : 0 ms
[OGL LOG] solve : 3259 ms
BJompGKOBiCGStab:  Solving for Uz, Initial residual = 0.732498, Final residual = 9.01228e-07, No Iterations 44
[OGL LOG] init_preconditioner : 0 ms
 CG create  precond 
[OGL LOG] solve : 24114 ms
BJompGKOCG:  Solving for p, Initial residual = 0.61735, Final residual = 9.48784e-07, No Iterations 655
time step continuity errors : sum local = 1.13839e-09, global = 1.89611e-21, cumulative = 6.00425e-20
[OGL LOG] init_preconditioner : 0 ms
 CG create  precond 
[OGL LOG] solve : 24044 ms
BJompGKOCG:  Solving for p, Initial residual = 0.554744, Final residual = 9.70523e-07, No Iterations 653
time step continuity errors : sum local = 1.04449e-09, global = 1.5589e-20, cumulative = 7.56315e-20
ExecutionTime = 235.51 s  ClockTime = 236 s

Time = 0.00666667

Courant Number mean: 0.122084 max: 0.929107
[OGL LOG] init_host_sparsity_pattern : 112 ms
[OGL LOG] matrix not stored update host matrix
[OGL LOG] update_host_mtx : 54 ms
[OGL LOG] matrix is not yet sorted, sorting host matrix
[OGL LOG] sort_host_mtx_sparsity_pattern : 72 ms
[OGL LOG] sort_host_mtx : 43 ms
[OGL LOG] init_preconditioner : 0 ms
[OGL LOG] solve : 2711 ms
BJompGKOBiCGStab:  Solving for Ux, Initial residual = 0.0319065, Final residual = 8.88823e-07, No Iterations 36
[OGL LOG] init_host_sparsity_pattern : 112 ms
[OGL LOG] matrix not stored update host matrix
[OGL LOG] update_host_mtx : 53 ms
[OGL LOG] matrix is not yet sorted, sorting host matrix
[OGL LOG] sort_host_mtx_sparsity_pattern : 72 ms
[OGL LOG] sort_host_mtx : 43 ms
[OGL LOG] init_preconditioner : 0 ms
[OGL LOG] solve : 2409 ms
BJompGKOBiCGStab:  Solving for Uy, Initial residual = 0.0804619, Final residual = 8.4794e-07, No Iterations 32
[OGL LOG] init_host_sparsity_pattern : 112 ms
[OGL LOG] matrix not stored update host matrix
[OGL LOG] update_host_mtx : 53 ms
[OGL LOG] matrix is not yet sorted, sorting host matrix
[OGL LOG] sort_host_mtx_sparsity_pattern : 72 ms
[OGL LOG] sort_host_mtx : 43 ms
[OGL LOG] init_preconditioner : 0 ms
[OGL LOG] solve : 3368 ms
BJompGKOBiCGStab:  Solving for Uz, Initial residual = 0.513461, Final residual = 7.20943e-07, No Iterations 45
[OGL LOG] init_preconditioner : 0 ms
 CG create  precond 
[OGL LOG] solve : 24194 ms
BJompGKOCG:  Solving for p, Initial residual = 0.591987, Final residual = 9.77585e-07, No Iterations 657
time step continuity errors : sum local = 9.20805e-10, global = -5.65291e-21, cumulative = 6.99786e-20
[OGL LOG] init_preconditioner : 0 ms
 CG create  precond 
[OGL LOG] solve : 24177 ms
BJompGKOCG:  Solving for p, Initial residual = 0.543109, Final residual = 9.61048e-07, No Iterations 656
time step continuity errors : sum local = 8.19417e-10, global = -2.24375e-20, cumulative = 4.75411e-20
ExecutionTime = 293.45 s  ClockTime = 295 s

End

