/*---------------------------------------------------------------------------*\
  =========                 |
  \\      /  F ield         | OpenFOAM: The Open Source CFD Toolbox
   \\    /   O peration     | Website:  https://openfoam.org
    \\  /    A nd           | Version:  8
     \\/     M anipulation  |
\*---------------------------------------------------------------------------*/
Build  : 8-13d66902f78c
Exec   : icoFoam
Date   : Jul 12 2021
Time   : 15:51:56
Host   : "uc2n400.localdomain"
PID    : 3910835
I/O    : uncollated
Case   : /pfs/data5/home/kit/scc/nq7776/code/OGL_DATA/lidDrivenCavity3D/v0.1-136-g40fef35/f584ccac99/IntelXeonGold6230CPU@2.10GHz/Test_2021-07-12-15:50:29/50/p-U-CG-OF-none-reference/lidDrivenCavity3D
nProcs : 1
sigFpe : Enabling floating point exception trapping (FOAM_SIGFPE).
fileModificationChecking : Monitoring run-time modified files using timeStampMaster (fileModificationSkew 10)
allowSystemOperations : Allowing user-supplied system call operations

// * * * * * * * * * * * * * * * * * * * * * * * * * * * * * * * * * * * * * //
Create time

Create mesh for time = 0

Reading transportProperties

Reading field p

Reading field U

Reading/calculating face flux field phi


Starting time loop

Time = 0.002

Courant Number mean: 0 max: 0
nonePBiCGStab:  Solving for Ux, Initial residual = 1, Final residual = 8.74541e-07, No Iterations 42
nonePBiCGStab:  Solving for Uy, Initial residual = 0, Final residual = 0, No Iterations 0
nonePBiCGStab:  Solving for Uz, Initial residual = 0, Final residual = 0, No Iterations 0
nonePCG:  Solving for p, Initial residual = 1, Final residual = 9.02348e-07, No Iterations 444
time step continuity errors : sum local = 1.48579e-09, global = 2.00813e-20, cumulative = 2.00813e-20
nonePCG:  Solving for p, Initial residual = 0.721582, Final residual = 9.46479e-07, No Iterations 440
time step continuity errors : sum local = 2.06631e-09, global = 3.44405e-20, cumulative = 5.45218e-20
ExecutionTime = 1.86 s  ClockTime = 2 s

Time = 0.004

Courant Number mean: 0.0720722 max: 0.726639
nonePBiCGStab:  Solving for Ux, Initial residual = 0.151829, Final residual = 9.83384e-07, No Iterations 36
nonePBiCGStab:  Solving for Uy, Initial residual = 0.353386, Final residual = 9.3895e-07, No Iterations 36
nonePBiCGStab:  Solving for Uz, Initial residual = 0.97797, Final residual = 4.57808e-07, No Iterations 41
nonePCG:  Solving for p, Initial residual = 0.673582, Final residual = 9.9683e-07, No Iterations 428
time step continuity errors : sum local = 2.36541e-09, global = 3.70887e-20, cumulative = 9.16105e-20
nonePCG:  Solving for p, Initial residual = 0.598438, Final residual = 9.84072e-07, No Iterations 430
time step continuity errors : sum local = 2.39775e-09, global = -2.62383e-20, cumulative = 6.53722e-20
ExecutionTime = 3.43 s  ClockTime = 3 s

Time = 0.006

Courant Number mean: 0.107407 max: 0.881779
nonePBiCGStab:  Solving for Ux, Initial residual = 0.0527342, Final residual = 9.76239e-07, No Iterations 33
nonePBiCGStab:  Solving for Uy, Initial residual = 0.117605, Final residual = 9.47647e-07, No Iterations 34
nonePBiCGStab:  Solving for Uz, Initial residual = 0.456603, Final residual = 5.15797e-07, No Iterations 39
nonePCG:  Solving for p, Initial residual = 0.60042, Final residual = 9.91221e-07, No Iterations 431
time step continuity errors : sum local = 1.65217e-09, global = -9.30885e-21, cumulative = 5.60633e-20
nonePCG:  Solving for p, Initial residual = 0.551195, Final residual = 9.65999e-07, No Iterations 428
time step continuity errors : sum local = 1.55468e-09, global = 7.54859e-21, cumulative = 6.36119e-20
ExecutionTime = 4.97 s  ClockTime = 5 s

Time = 0.008

Courant Number mean: 0.123246 max: 0.890085
nonePBiCGStab:  Solving for Ux, Initial residual = 0.0254307, Final residual = 8.13755e-07, No Iterations 31
nonePBiCGStab:  Solving for Uy, Initial residual = 0.0796825, Final residual = 9.65041e-07, No Iterations 34
nonePBiCGStab:  Solving for Uz, Initial residual = 0.25228, Final residual = 5.94027e-07, No Iterations 39
nonePCG:  Solving for p, Initial residual = 0.384622, Final residual = 9.92899e-07, No Iterations 422
time step continuity errors : sum local = 1.472e-09, global = 1.98768e-20, cumulative = 8.34887e-20
nonePCG:  Solving for p, Initial residual = 0.324404, Final residual = 9.78389e-07, No Iterations 420
time step continuity errors : sum local = 1.47426e-09, global = -8.40611e-22, cumulative = 8.26481e-20
ExecutionTime = 6.49 s  ClockTime = 6 s

Time = 0.01

Courant Number mean: 0.136097 max: 0.906812
nonePBiCGStab:  Solving for Ux, Initial residual = 0.0177757, Final residual = 8.08712e-07, No Iterations 30
nonePBiCGStab:  Solving for Uy, Initial residual = 0.0389351, Final residual = 8.33634e-07, No Iterations 32
nonePBiCGStab:  Solving for Uz, Initial residual = 0.085152, Final residual = 9.69129e-07, No Iterations 34
nonePCG:  Solving for p, Initial residual = 0.290073, Final residual = 9.56661e-07, No Iterations 421
time step continuity errors : sum local = 1.17044e-09, global = -3.99273e-20, cumulative = 4.27208e-20
nonePCG:  Solving for p, Initial residual = 0.248637, Final residual = 9.2436e-07, No Iterations 420
time step continuity errors : sum local = 1.11923e-09, global = -4.76295e-20, cumulative = -4.90875e-21
ExecutionTime = 8.05 s  ClockTime = 8 s

End

