/*---------------------------------------------------------------------------*\
  =========                 |
  \\      /  F ield         | OpenFOAM: The Open Source CFD Toolbox
   \\    /   O peration     | Website:  https://openfoam.org
    \\  /    A nd           | Version:  8
     \\/     M anipulation  |
\*---------------------------------------------------------------------------*/
Build  : 8-13d66902f78c
Exec   : icoFoam
Date   : Jul 14 2021
Time   : 00:56:24
Host   : "uc2n394.localdomain"
PID    : 3278057
I/O    : uncollated
Case   : /pfs/data5/home/kit/scc/nq7776/code/OGL_DATA/lidDrivenCavity3D/v0.1-136-g40fef35/f584ccac99/IntelXeonGold6230CPU@2.10GHz/Test_2021-07-14-00:31:10/50/p-BiCGStab-GKO-BJ-omp/lidDrivenCavity3D
nProcs : 1
sigFpe : Enabling floating point exception trapping (FOAM_SIGFPE).
fileModificationChecking : Monitoring run-time modified files using timeStampMaster (fileModificationSkew 10)
allowSystemOperations : Allowing user-supplied system call operations

// * * * * * * * * * * * * * * * * * * * * * * * * * * * * * * * * * * * * * //
Create time

Create mesh for time = 0

Reading transportProperties

Reading field p

Reading field U

Reading/calculating face flux field phi


Starting time loop

Time = 0.002

Courant Number mean: 0 max: 0
nonePBiCGStab:  Solving for Ux, Initial residual = 1, Final residual = 0.0592055, No Iterations 5
nonePBiCGStab:  Solving for Uy, Initial residual = 0, Final residual = 0, No Iterations 0
nonePBiCGStab:  Solving for Uz, Initial residual = 0, Final residual = 0, No Iterations 0
[OGL LOG] init_host_sparsity_pattern : 35 ms
[OGL LOG] matrix not stored update host matrix
[OGL LOG] update_host_mtx : 18 ms
[OGL LOG] matrix is not yet sorted, compute sorting idxs
[OGL LOG] compute_sort : 908 ms
[OGL LOG] matrix is not yet sorted, sorting host matrix
[OGL LOG] sort_host_mtx_sparsity_pattern : 23 ms
[OGL LOG] sort_host_mtx : 14 ms
[OGL LOG] init_preconditioner : 15 ms
[OGL LOG] solve : 1291 ms
BJompGKOBiCGStab:  Solving for p, Initial residual = 1, Final residual = 4.48358e-07, No Iterations 330
time step continuity errors : sum local = 7.01188e-08, global = 4.03333e-21, cumulative = 4.03333e-21
[OGL LOG] init_preconditioner : 0 ms
[OGL LOG] solve : 1180 ms
BJompGKOBiCGStab:  Solving for p, Initial residual = 0.676726, Final residual = 4.50198e-07, No Iterations 317
time step continuity errors : sum local = 7.88087e-08, global = 3.23605e-20, cumulative = 3.63938e-20
ExecutionTime = 161.18 s  ClockTime = 4 s

Time = 0.004

Courant Number mean: 0.0636233 max: 0.723792
nonePBiCGStab:  Solving for Ux, Initial residual = 0.144132, Final residual = 0.0219189, No Iterations 5
nonePBiCGStab:  Solving for Uy, Initial residual = 0.363931, Final residual = 0.0522877, No Iterations 5
nonePBiCGStab:  Solving for Uz, Initial residual = 0.973354, Final residual = 0.158928, No Iterations 5
[OGL LOG] init_preconditioner : 0 ms
[OGL LOG] solve : 1168 ms
BJompGKOBiCGStab:  Solving for p, Initial residual = 0.668503, Final residual = 7.28673e-07, No Iterations 313
time step continuity errors : sum local = 5.11934e-08, global = -2.53972e-20, cumulative = 1.09967e-20
[OGL LOG] init_preconditioner : 0 ms
[OGL LOG] solve : 1225 ms
BJompGKOBiCGStab:  Solving for p, Initial residual = 0.584663, Final residual = 8.03964e-07, No Iterations 323
time step continuity errors : sum local = 2.23511e-07, global = 1.38415e-20, cumulative = 2.48382e-20
ExecutionTime = 314.68 s  ClockTime = 7 s

Time = 0.006

Courant Number mean: 0.0972272 max: 0.862514
nonePBiCGStab:  Solving for Ux, Initial residual = 0.0524141, Final residual = 0.00685496, No Iterations 5
nonePBiCGStab:  Solving for Uy, Initial residual = 0.127062, Final residual = 0.0201224, No Iterations 5
nonePBiCGStab:  Solving for Uz, Initial residual = 0.36658, Final residual = 0.0531836, No Iterations 5
[OGL LOG] init_preconditioner : 0 ms
[OGL LOG] solve : 1368 ms
BJompGKOBiCGStab:  Solving for p, Initial residual = 0.594549, Final residual = 4.02007e-07, No Iterations 327
time step continuity errors : sum local = 4.89695e-08, global = -1.25145e-20, cumulative = 1.23237e-20
[OGL LOG] init_preconditioner : 0 ms
[OGL LOG] solve : 1327 ms
BJompGKOBiCGStab:  Solving for p, Initial residual = 0.528701, Final residual = 6.84408e-07, No Iterations 319
time step continuity errors : sum local = 1.81236e-09, global = 4.22941e-20, cumulative = 5.46178e-20
ExecutionTime = 487.43 s  ClockTime = 9 s

Time = 0.008

Courant Number mean: 0.113793 max: 0.88248
nonePBiCGStab:  Solving for Ux, Initial residual = 0.0289581, Final residual = 0.00344501, No Iterations 5
nonePBiCGStab:  Solving for Uy, Initial residual = 0.0844239, Final residual = 0.0109174, No Iterations 5
nonePBiCGStab:  Solving for Uz, Initial residual = 0.229284, Final residual = 0.0301014, No Iterations 5
[OGL LOG] init_preconditioner : 0 ms
[OGL LOG] solve : 1413 ms
BJompGKOBiCGStab:  Solving for p, Initial residual = 0.411429, Final residual = 8.90895e-07, No Iterations 340
time step continuity errors : sum local = 1.35896e-09, global = 8.17556e-21, cumulative = 6.27934e-20
[OGL LOG] init_preconditioner : 0 ms
[OGL LOG] solve : 1266 ms
BJompGKOBiCGStab:  Solving for p, Initial residual = 0.342685, Final residual = 9.56503e-07, No Iterations 297
time step continuity errors : sum local = 3.43416e-09, global = 1.41939e-20, cumulative = 7.69873e-20
ExecutionTime = 659.15 s  ClockTime = 12 s

Time = 0.01

Courant Number mean: 0.127339 max: 0.898877
nonePBiCGStab:  Solving for Ux, Initial residual = 0.0202765, Final residual = 0.00208481, No Iterations 5
nonePBiCGStab:  Solving for Uy, Initial residual = 0.0505574, Final residual = 0.00623523, No Iterations 5
nonePBiCGStab:  Solving for Uz, Initial residual = 0.112906, Final residual = 0.0181048, No Iterations 5
[OGL LOG] init_preconditioner : 0 ms
[OGL LOG] solve : 1223 ms
BJompGKOBiCGStab:  Solving for p, Initial residual = 0.354046, Final residual = 9.68262e-07, No Iterations 297
time step continuity errors : sum local = 1.67435e-08, global = 1.73062e-20, cumulative = 9.42935e-20
[OGL LOG] init_preconditioner : 0 ms
[OGL LOG] solve : 1200 ms
BJompGKOBiCGStab:  Solving for p, Initial residual = 0.302214, Final residual = 6.72295e-07, No Iterations 298
time step continuity errors : sum local = 8.5369e-08, global = -1.28712e-20, cumulative = 8.14223e-20
ExecutionTime = 814.51 s  ClockTime = 15 s

End

