/*---------------------------------------------------------------------------*\
  =========                 |
  \\      /  F ield         | OpenFOAM: The Open Source CFD Toolbox
   \\    /   O peration     | Website:  https://openfoam.org
    \\  /    A nd           | Version:  8
     \\/     M anipulation  |
\*---------------------------------------------------------------------------*/
Build  : 8-13d66902f78c
Exec   : icoFoam
Date   : Jul 12 2021
Time   : 13:34:36
Host   : "uc2n476.localdomain"
PID    : 3610050
I/O    : uncollated
Case   : /pfs/data5/home/kit/scc/nq7776/code/OGL_DATA/lidDrivenCavity3D/v0.1-136-g40fef35/f584ccac99/IntelXeonGold6230CPU@2.10GHz/Test_2021-07-12-13:31:32/75/p-CG-OF-none-reference/lidDrivenCavity3D
nProcs : 1
sigFpe : Enabling floating point exception trapping (FOAM_SIGFPE).
fileModificationChecking : Monitoring run-time modified files using timeStampMaster (fileModificationSkew 10)
allowSystemOperations : Allowing user-supplied system call operations

// * * * * * * * * * * * * * * * * * * * * * * * * * * * * * * * * * * * * * //
Create time

Create mesh for time = 0

Reading transportProperties

Reading field p

Reading field U

Reading/calculating face flux field phi


Starting time loop

Time = 0.00133333

Courant Number mean: 0 max: 0
nonePBiCGStab:  Solving for Ux, Initial residual = 1, Final residual = 0.0730231, No Iterations 5
nonePBiCGStab:  Solving for Uy, Initial residual = 0, Final residual = 0, No Iterations 0
nonePBiCGStab:  Solving for Uz, Initial residual = 0, Final residual = 0, No Iterations 0
nonePCG:  Solving for p, Initial residual = 1, Final residual = 9.45836e-07, No Iterations 672
time step continuity errors : sum local = 6.00928e-10, global = 4.54382e-21, cumulative = 4.54382e-21
nonePCG:  Solving for p, Initial residual = 0.697106, Final residual = 9.51041e-07, No Iterations 667
time step continuity errors : sum local = 8.42792e-10, global = 1.09218e-20, cumulative = 1.54657e-20
ExecutionTime = 8.75 s  ClockTime = 9 s

Time = 0.00266667

Courant Number mean: 0.0508075 max: 0.767232
nonePBiCGStab:  Solving for Ux, Initial residual = 0.140592, Final residual = 0.0324525, No Iterations 5
nonePBiCGStab:  Solving for Uy, Initial residual = 0.413642, Final residual = 0.0923278, No Iterations 5
nonePBiCGStab:  Solving for Uz, Initial residual = 0.983213, Final residual = 0.249884, No Iterations 5
nonePCG:  Solving for p, Initial residual = 0.746898, Final residual = 9.65043e-07, No Iterations 644
time step continuity errors : sum local = 1.29949e-09, global = 1.40906e-20, cumulative = 2.95562e-20
nonePCG:  Solving for p, Initial residual = 0.668136, Final residual = 9.39206e-07, No Iterations 642
time step continuity errors : sum local = 1.2899e-09, global = 1.41772e-20, cumulative = 4.37334e-20
ExecutionTime = 15.71 s  ClockTime = 15 s

Time = 0.004

Courant Number mean: 0.0796134 max: 0.886021
nonePBiCGStab:  Solving for Ux, Initial residual = 0.0584505, Final residual = 0.011149, No Iterations 5
nonePBiCGStab:  Solving for Uy, Initial residual = 0.171953, Final residual = 0.0398782, No Iterations 5
nonePBiCGStab:  Solving for Uz, Initial residual = 0.610947, Final residual = 0.142319, No Iterations 5
nonePCG:  Solving for p, Initial residual = 0.730362, Final residual = 9.67266e-07, No Iterations 650
time step continuity errors : sum local = 9.67884e-10, global = -5.18716e-21, cumulative = 3.85463e-20
nonePCG:  Solving for p, Initial residual = 0.660897, Final residual = 9.97532e-07, No Iterations 647
time step continuity errors : sum local = 9.70292e-10, global = -8.85228e-21, cumulative = 2.9694e-20
ExecutionTime = 22.76 s  ClockTime = 23 s

Time = 0.00533333

Courant Number mean: 0.0948105 max: 0.902547
nonePBiCGStab:  Solving for Ux, Initial residual = 0.0345947, Final residual = 0.00682906, No Iterations 5
nonePBiCGStab:  Solving for Uy, Initial residual = 0.11955, Final residual = 0.0298199, No Iterations 5
nonePBiCGStab:  Solving for Uz, Initial residual = 0.386287, Final residual = 0.0806812, No Iterations 5
nonePCG:  Solving for p, Initial residual = 0.609799, Final residual = 9.74634e-07, No Iterations 640
time step continuity errors : sum local = 9.61339e-10, global = 5.94988e-21, cumulative = 3.56439e-20
nonePCG:  Solving for p, Initial residual = 0.521107, Final residual = 9.80776e-07, No Iterations 637
time step continuity errors : sum local = 9.88061e-10, global = 1.43385e-20, cumulative = 4.99824e-20
ExecutionTime = 29.67 s  ClockTime = 29 s

Time = 0.00666667

Courant Number mean: 0.107177 max: 0.916755
nonePBiCGStab:  Solving for Ux, Initial residual = 0.0257329, Final residual = 0.00503149, No Iterations 5
nonePBiCGStab:  Solving for Uy, Initial residual = 0.0750464, Final residual = 0.0208209, No Iterations 5
nonePBiCGStab:  Solving for Uz, Initial residual = 0.212732, Final residual = 0.0495464, No Iterations 5
nonePCG:  Solving for p, Initial residual = 0.629326, Final residual = 9.81627e-07, No Iterations 638
time step continuity errors : sum local = 8.30888e-10, global = 6.94555e-21, cumulative = 5.69279e-20
nonePCG:  Solving for p, Initial residual = 0.552161, Final residual = 9.52214e-07, No Iterations 637
time step continuity errors : sum local = 7.94516e-10, global = 7.04399e-21, cumulative = 6.39719e-20
ExecutionTime = 36.59 s  ClockTime = 36 s

End

