/*---------------------------------------------------------------------------*\
  =========                 |
  \\      /  F ield         | OpenFOAM: The Open Source CFD Toolbox
   \\    /   O peration     | Website:  https://openfoam.org
    \\  /    A nd           | Version:  8
     \\/     M anipulation  |
\*---------------------------------------------------------------------------*/
Build  : 8-13d66902f78c
Exec   : icoFoam
Date   : Jul 12 2021
Time   : 15:49:35
Host   : "uc2n431.localdomain"
PID    : 123813
I/O    : uncollated
Case   : /pfs/data5/home/kit/scc/nq7776/code/OGL_DATA/lidDrivenCavity3D/v0.1-136-g40fef35/f584ccac99/IntelXeonGold6230CPU@2.10GHz/Test_2021-07-12-15:49:01/25/p-BiCGStab-OF-DIC-reference/lidDrivenCavity3D
nProcs : 1
sigFpe : Enabling floating point exception trapping (FOAM_SIGFPE).
fileModificationChecking : Monitoring run-time modified files using timeStampMaster (fileModificationSkew 10)
allowSystemOperations : Allowing user-supplied system call operations

// * * * * * * * * * * * * * * * * * * * * * * * * * * * * * * * * * * * * * //
Create time

Create mesh for time = 0

Reading transportProperties

Reading field p

Reading field U

Reading/calculating face flux field phi


Starting time loop

Time = 0.004

Courant Number mean: 0 max: 0
nonePBiCGStab:  Solving for Ux, Initial residual = 1, Final residual = 0.0337517, No Iterations 5
nonePBiCGStab:  Solving for Uy, Initial residual = 0, Final residual = 0, No Iterations 0
nonePBiCGStab:  Solving for Uz, Initial residual = 0, Final residual = 0, No Iterations 0
DICPBiCGStab:  Solving for p, Initial residual = 1, Final residual = 6.5566e-07, No Iterations 51
time step continuity errors : sum local = 2.98569e-09, global = -3.09934e-20, cumulative = -3.09934e-20
DICPBiCGStab:  Solving for p, Initial residual = 0.622285, Final residual = 5.64676e-07, No Iterations 52
time step continuity errors : sum local = 3.54938e-09, global = -4.3992e-21, cumulative = -3.53926e-20
ExecutionTime = 0.17 s  ClockTime = 0 s

Time = 0.008

Courant Number mean: 0.084228 max: 0.621061
nonePBiCGStab:  Solving for Ux, Initial residual = 0.149589, Final residual = 0.00942683, No Iterations 5
nonePBiCGStab:  Solving for Uy, Initial residual = 0.281195, Final residual = 0.0142199, No Iterations 5
nonePBiCGStab:  Solving for Uz, Initial residual = 0.933282, Final residual = 0.0511086, No Iterations 5
DICPBiCGStab:  Solving for p, Initial residual = 0.518046, Final residual = 6.95896e-07, No Iterations 53
time step continuity errors : sum local = 8.15633e-09, global = -3.50612e-20, cumulative = -7.04538e-20
DICPBiCGStab:  Solving for p, Initial residual = 0.415897, Final residual = 9.01685e-07, No Iterations 49
time step continuity errors : sum local = 1.10069e-08, global = -1.50661e-20, cumulative = -8.55199e-20
ExecutionTime = 0.25 s  ClockTime = 0 s

Time = 0.012

Courant Number mean: 0.124051 max: 0.792234
nonePBiCGStab:  Solving for Ux, Initial residual = 0.0425022, Final residual = 0.00204649, No Iterations 5
nonePBiCGStab:  Solving for Uy, Initial residual = 0.0761403, Final residual = 0.00263684, No Iterations 5
nonePBiCGStab:  Solving for Uz, Initial residual = 0.142733, Final residual = 0.00668811, No Iterations 5
DICPBiCGStab:  Solving for p, Initial residual = 0.27918, Final residual = 7.09078e-07, No Iterations 49
time step continuity errors : sum local = 3.15769e-09, global = 6.01149e-20, cumulative = -2.5405e-20
DICPBiCGStab:  Solving for p, Initial residual = 0.224048, Final residual = 3.28972e-07, No Iterations 48
time step continuity errors : sum local = 1.69509e-09, global = 2.2797e-20, cumulative = -2.608e-21
ExecutionTime = 0.31 s  ClockTime = 0 s

Time = 0.016

Courant Number mean: 0.142529 max: 0.824384
nonePBiCGStab:  Solving for Ux, Initial residual = 0.0219031, Final residual = 0.000752449, No Iterations 5
nonePBiCGStab:  Solving for Uy, Initial residual = 0.0474704, Final residual = 0.000975032, No Iterations 5
nonePBiCGStab:  Solving for Uz, Initial residual = 0.0926331, Final residual = 0.00322951, No Iterations 5
DICPBiCGStab:  Solving for p, Initial residual = 0.138549, Final residual = 9.94094e-07, No Iterations 54
time step continuity errors : sum local = 4.33054e-09, global = 1.87269e-21, cumulative = -7.3531e-22
DICPBiCGStab:  Solving for p, Initial residual = 0.106558, Final residual = 7.11902e-07, No Iterations 50
time step continuity errors : sum local = 3.88537e-09, global = 3.531e-20, cumulative = 3.45747e-20
ExecutionTime = 0.37 s  ClockTime = 0 s

Time = 0.02

Courant Number mean: 0.154857 max: 0.843613
nonePBiCGStab:  Solving for Ux, Initial residual = 0.0136635, Final residual = 0.000405705, No Iterations 5
nonePBiCGStab:  Solving for Uy, Initial residual = 0.0288039, Final residual = 0.000728005, No Iterations 5
nonePBiCGStab:  Solving for Uz, Initial residual = 0.055196, Final residual = 0.0017142, No Iterations 5
DICPBiCGStab:  Solving for p, Initial residual = 0.0654103, Final residual = 6.21846e-07, No Iterations 49
time step continuity errors : sum local = 3.37779e-09, global = -1.20972e-19, cumulative = -8.63974e-20
DICPBiCGStab:  Solving for p, Initial residual = 0.0510699, Final residual = 8.76243e-07, No Iterations 48
time step continuity errors : sum local = 3.69506e-09, global = 5.69698e-20, cumulative = -2.94276e-20
ExecutionTime = 0.43 s  ClockTime = 0 s

End

