/*---------------------------------------------------------------------------*\
  =========                 |
  \\      /  F ield         | OpenFOAM: The Open Source CFD Toolbox
   \\    /   O peration     | Website:  https://openfoam.org
    \\  /    A nd           | Version:  8
     \\/     M anipulation  |
\*---------------------------------------------------------------------------*/
Build  : 8-13d66902f78c
Exec   : icoFoam
Date   : Jul 14 2021
Time   : 02:31:52
Host   : "uc2n399.localdomain"
PID    : 4101685
I/O    : uncollated
Case   : /pfs/data5/home/kit/scc/nq7776/code/OGL_DATA/lidDrivenCavity3D/v0.1-136-g40fef35/f584ccac99/IntelXeonGold6230CPU@2.10GHz/Test_2021-07-14-01:16:21/75/p-U-BiCGStab-GKO-none-omp/lidDrivenCavity3D
nProcs : 1
sigFpe : Enabling floating point exception trapping (FOAM_SIGFPE).
fileModificationChecking : Monitoring run-time modified files using timeStampMaster (fileModificationSkew 10)
allowSystemOperations : Allowing user-supplied system call operations

// * * * * * * * * * * * * * * * * * * * * * * * * * * * * * * * * * * * * * //
Create time

Create mesh for time = 0

Reading transportProperties

Reading field p

Reading field U

Reading/calculating face flux field phi


Starting time loop

Time = 0.00133333

Courant Number mean: 0 max: 0
[OGL LOG] init_host_sparsity_pattern : 121 ms
[OGL LOG] matrix not stored update host matrix
[OGL LOG] update_host_mtx : 62 ms
[OGL LOG] matrix is not yet sorted, compute sorting idxs
[OGL LOG] compute_sort : 3343 ms
[OGL LOG] matrix is not yet sorted, sorting host matrix
[OGL LOG] sort_host_mtx_sparsity_pattern : 81 ms
[OGL LOG] sort_host_mtx : 52 ms
[OGL LOG] init_preconditioner : 0 ms
[OGL LOG] solve : 603 ms
noneompGKOBiCGStab:  Solving for Ux, Initial residual = 1, Final residual = 8.84363e-07, No Iterations 51
[OGL LOG] init_host_sparsity_pattern : 117 ms
[OGL LOG] matrix not stored update host matrix
[OGL LOG] update_host_mtx : 62 ms
[OGL LOG] matrix is not yet sorted, sorting host matrix
[OGL LOG] sort_host_mtx_sparsity_pattern : 81 ms
[OGL LOG] sort_host_mtx : 43 ms
[OGL LOG] init_preconditioner : 0 ms
[OGL LOG] solve : 15 ms
noneompGKOBiCGStab:  Solving for Uy, Initial residual = 0, Final residual = 0, No Iterations 0
[OGL LOG] init_host_sparsity_pattern : 112 ms
[OGL LOG] matrix not stored update host matrix
[OGL LOG] update_host_mtx : 53 ms
[OGL LOG] matrix is not yet sorted, sorting host matrix
[OGL LOG] sort_host_mtx_sparsity_pattern : 80 ms
[OGL LOG] sort_host_mtx : 43 ms
[OGL LOG] init_preconditioner : 0 ms
[OGL LOG] solve : 13 ms
noneompGKOBiCGStab:  Solving for Uz, Initial residual = 0, Final residual = 0, No Iterations 0
[OGL LOG] init_host_sparsity_pattern : 112 ms
[OGL LOG] matrix not stored update host matrix
[OGL LOG] update_host_mtx : 62 ms
[OGL LOG] matrix is not yet sorted, sorting host matrix
[OGL LOG] sort_host_mtx_sparsity_pattern : 81 ms
[OGL LOG] sort_host_mtx : 43 ms
[OGL LOG] init_preconditioner : 0 ms
[OGL LOG] solve : 5843 ms
noneompGKOBiCGStab:  Solving for p, Initial residual = 1, Final residual = 9.96194e-07, No Iterations 530
time step continuity errors : sum local = 8.99634e-09, global = 1.92333e-21, cumulative = 1.92333e-21
[OGL LOG] init_preconditioner : 0 ms
[OGL LOG] solve : 5748 ms
noneompGKOBiCGStab:  Solving for p, Initial residual = 0.759334, Final residual = 9.28614e-07, No Iterations 524
time step continuity errors : sum local = 6.25083e-09, global = 9.52042e-21, cumulative = 1.14438e-20
ExecutionTime = 787.98 s  ClockTime = 19 s

Time = 0.00266667

Courant Number mean: 0.0631768 max: 0.775391
[OGL LOG] init_host_sparsity_pattern : 111 ms
[OGL LOG] matrix not stored update host matrix
[OGL LOG] update_host_mtx : 54 ms
[OGL LOG] matrix is not yet sorted, sorting host matrix
[OGL LOG] sort_host_mtx_sparsity_pattern : 86 ms
[OGL LOG] sort_host_mtx : 44 ms
[OGL LOG] init_preconditioner : 0 ms
[OGL LOG] solve : 538 ms
noneompGKOBiCGStab:  Solving for Ux, Initial residual = 0.183035, Final residual = 9.18275e-07, No Iterations 43
[OGL LOG] init_host_sparsity_pattern : 112 ms
[OGL LOG] matrix not stored update host matrix
[OGL LOG] update_host_mtx : 53 ms
[OGL LOG] matrix is not yet sorted, sorting host matrix
[OGL LOG] sort_host_mtx_sparsity_pattern : 72 ms
[OGL LOG] sort_host_mtx : 43 ms
[OGL LOG] init_preconditioner : 0 ms
[OGL LOG] solve : 580 ms
noneompGKOBiCGStab:  Solving for Uy, Initial residual = 0.619623, Final residual = 7.16776e-07, No Iterations 48
[OGL LOG] init_host_sparsity_pattern : 114 ms
[OGL LOG] matrix not stored update host matrix
[OGL LOG] update_host_mtx : 55 ms
[OGL LOG] matrix is not yet sorted, sorting host matrix
[OGL LOG] sort_host_mtx_sparsity_pattern : 73 ms
[OGL LOG] sort_host_mtx : 44 ms
[OGL LOG] init_preconditioner : 0 ms
[OGL LOG] solve : 497 ms
noneompGKOBiCGStab:  Solving for Uz, Initial residual = 0.604914, Final residual = 4.5557e-07, No Iterations 46
[OGL LOG] init_preconditioner : 0 ms
[OGL LOG] solve : 5409 ms
noneompGKOBiCGStab:  Solving for p, Initial residual = 0.749119, Final residual = 9.4343e-07, No Iterations 548
time step continuity errors : sum local = 2.18406e-07, global = -4.67674e-21, cumulative = 6.76701e-21
[OGL LOG] init_preconditioner : 0 ms
[OGL LOG] solve : 5847 ms
noneompGKOBiCGStab:  Solving for p, Initial residual = 0.683916, Final residual = 6.46107e-07, No Iterations 509
time step continuity errors : sum local = 5.1931e-07, global = -1.45308e-21, cumulative = 5.31393e-21
ExecutionTime = 1612.54 s  ClockTime = 34 s

Time = 0.004

Courant Number mean: 0.0951464 max: 0.917123
[OGL LOG] init_host_sparsity_pattern : 112 ms
[OGL LOG] matrix not stored update host matrix
[OGL LOG] update_host_mtx : 55 ms
[OGL LOG] matrix is not yet sorted, sorting host matrix
[OGL LOG] sort_host_mtx_sparsity_pattern : 89 ms
[OGL LOG] sort_host_mtx : 44 ms
[OGL LOG] init_preconditioner : 0 ms
[OGL LOG] solve : 478 ms
noneompGKOBiCGStab:  Solving for Ux, Initial residual = 0.101949, Final residual = 8.11131e-07, No Iterations 42
[OGL LOG] init_host_sparsity_pattern : 112 ms
[OGL LOG] matrix not stored update host matrix
[OGL LOG] update_host_mtx : 53 ms
[OGL LOG] matrix is not yet sorted, sorting host matrix
[OGL LOG] sort_host_mtx_sparsity_pattern : 72 ms
[OGL LOG] sort_host_mtx : 43 ms
[OGL LOG] init_preconditioner : 0 ms
[OGL LOG] solve : 547 ms
noneompGKOBiCGStab:  Solving for Uy, Initial residual = 0.335426, Final residual = 6.32933e-07, No Iterations 44
[OGL LOG] init_host_sparsity_pattern : 113 ms
[OGL LOG] matrix not stored update host matrix
[OGL LOG] update_host_mtx : 54 ms
[OGL LOG] matrix is not yet sorted, sorting host matrix
[OGL LOG] sort_host_mtx_sparsity_pattern : 74 ms
[OGL LOG] sort_host_mtx : 44 ms
[OGL LOG] init_preconditioner : 0 ms
[OGL LOG] solve : 594 ms
noneompGKOBiCGStab:  Solving for Uz, Initial residual = 0.919707, Final residual = 6.26344e-07, No Iterations 47
[OGL LOG] init_preconditioner : 0 ms
[OGL LOG] solve : 6341 ms
noneompGKOBiCGStab:  Solving for p, Initial residual = 0.754731, Final residual = 7.173e-07, No Iterations 558
time step continuity errors : sum local = 3.37956e-08, global = -2.72488e-20, cumulative = -2.19348e-20
[OGL LOG] init_preconditioner : 0 ms
[OGL LOG] solve : 6009 ms
noneompGKOBiCGStab:  Solving for p, Initial residual = 0.717007, Final residual = 8.07111e-07, No Iterations 540
time step continuity errors : sum local = 2.13828e-07, global = -2.38329e-20, cumulative = -4.57677e-20
ExecutionTime = 2507.52 s  ClockTime = 49 s

Time = 0.00533333

Courant Number mean: 0.109256 max: 0.913461
[OGL LOG] init_host_sparsity_pattern : 112 ms
[OGL LOG] matrix not stored update host matrix
[OGL LOG] update_host_mtx : 55 ms
[OGL LOG] matrix is not yet sorted, sorting host matrix
[OGL LOG] sort_host_mtx_sparsity_pattern : 80 ms
[OGL LOG] sort_host_mtx : 43 ms
[OGL LOG] init_preconditioner : 0 ms
[OGL LOG] solve : 592 ms
noneompGKOBiCGStab:  Solving for Ux, Initial residual = 0.0447014, Final residual = 9.39952e-07, No Iterations 41
[OGL LOG] init_host_sparsity_pattern : 113 ms
[OGL LOG] matrix not stored update host matrix
[OGL LOG] update_host_mtx : 55 ms
[OGL LOG] matrix is not yet sorted, sorting host matrix
[OGL LOG] sort_host_mtx_sparsity_pattern : 74 ms
[OGL LOG] sort_host_mtx : 44 ms
[OGL LOG] init_preconditioner : 0 ms
[OGL LOG] solve : 526 ms
noneompGKOBiCGStab:  Solving for Uy, Initial residual = 0.197578, Final residual = 7.64141e-07, No Iterations 42
[OGL LOG] init_host_sparsity_pattern : 112 ms
[OGL LOG] matrix not stored update host matrix
[OGL LOG] update_host_mtx : 54 ms
[OGL LOG] matrix is not yet sorted, sorting host matrix
[OGL LOG] sort_host_mtx_sparsity_pattern : 74 ms
[OGL LOG] sort_host_mtx : 44 ms
[OGL LOG] init_preconditioner : 0 ms
[OGL LOG] solve : 645 ms
noneompGKOBiCGStab:  Solving for Uz, Initial residual = 0.732564, Final residual = 7.93236e-07, No Iterations 52
[OGL LOG] init_preconditioner : 0 ms
[OGL LOG] solve : 6115 ms
noneompGKOBiCGStab:  Solving for p, Initial residual = 0.617389, Final residual = 5.88597e-07, No Iterations 553
time step continuity errors : sum local = 3.55933e-07, global = 7.47001e-21, cumulative = -3.82977e-20
[OGL LOG] init_preconditioner : 0 ms
[OGL LOG] solve : 6183 ms
noneompGKOBiCGStab:  Solving for p, Initial residual = 0.554796, Final residual = 7.52787e-07, No Iterations 551
time step continuity errors : sum local = 6.86103e-08, global = -2.55914e-21, cumulative = -4.08569e-20
ExecutionTime = 3407.68 s  ClockTime = 64 s

Time = 0.00666667

Courant Number mean: 0.122085 max: 0.929108
[OGL LOG] init_host_sparsity_pattern : 112 ms
[OGL LOG] matrix not stored update host matrix
[OGL LOG] update_host_mtx : 55 ms
[OGL LOG] matrix is not yet sorted, sorting host matrix
[OGL LOG] sort_host_mtx_sparsity_pattern : 82 ms
[OGL LOG] sort_host_mtx : 45 ms
[OGL LOG] init_preconditioner : 0 ms
[OGL LOG] solve : 495 ms
noneompGKOBiCGStab:  Solving for Ux, Initial residual = 0.0318976, Final residual = 9.11625e-07, No Iterations 39
[OGL LOG] init_host_sparsity_pattern : 112 ms
[OGL LOG] matrix not stored update host matrix
[OGL LOG] update_host_mtx : 54 ms
[OGL LOG] matrix is not yet sorted, sorting host matrix
[OGL LOG] sort_host_mtx_sparsity_pattern : 74 ms
[OGL LOG] sort_host_mtx : 44 ms
[OGL LOG] init_preconditioner : 0 ms
[OGL LOG] solve : 510 ms
noneompGKOBiCGStab:  Solving for Uy, Initial residual = 0.0805224, Final residual = 8.78614e-07, No Iterations 41
[OGL LOG] init_host_sparsity_pattern : 113 ms
[OGL LOG] matrix not stored update host matrix
[OGL LOG] update_host_mtx : 53 ms
[OGL LOG] matrix is not yet sorted, sorting host matrix
[OGL LOG] sort_host_mtx_sparsity_pattern : 73 ms
[OGL LOG] sort_host_mtx : 44 ms
[OGL LOG] init_preconditioner : 0 ms
[OGL LOG] solve : 589 ms
noneompGKOBiCGStab:  Solving for Uz, Initial residual = 0.513792, Final residual = 6.28118e-07, No Iterations 44
[OGL LOG] init_preconditioner : 0 ms
[OGL LOG] solve : 4607 ms
noneompGKOBiCGStab:  Solving for p, Initial residual = 0.591983, Final residual = 4.21321e-07, No Iterations 486
time step continuity errors : sum local = 5.19184e-10, global = -2.24762e-20, cumulative = -6.3333e-20
[OGL LOG] init_preconditioner : 0 ms
[OGL LOG] solve : 5317 ms
noneompGKOBiCGStab:  Solving for p, Initial residual = 0.543077, Final residual = 2.14296e-07, No Iterations 523
time step continuity errors : sum local = 3.19348e-07, global = 4.11901e-21, cumulative = -5.9214e-20
ExecutionTime = 4145.74 s  ClockTime = 77 s

End

