/*---------------------------------------------------------------------------*\
  =========                 |
  \\      /  F ield         | OpenFOAM: The Open Source CFD Toolbox
   \\    /   O peration     | Website:  https://openfoam.org
    \\  /    A nd           | Version:  8
     \\/     M anipulation  |
\*---------------------------------------------------------------------------*/
Build  : 8-13d66902f78c
Exec   : icoFoam
Date   : Jul 13 2021
Time   : 22:31:59
Host   : "uc2n525.localdomain"
PID    : 3756299
I/O    : uncollated
Case   : /pfs/data5/home/kit/scc/nq7776/code/OGL_DATA/lidDrivenCavity3D/v0.1-136-g40fef35/f584ccac99/IntelXeonGold6230CPU@2.10GHz/Test_2021-07-13-22:16:26/50/p-BiCGStab-GKO-none-omp/lidDrivenCavity3D
nProcs : 1
sigFpe : Enabling floating point exception trapping (FOAM_SIGFPE).
fileModificationChecking : Monitoring run-time modified files using timeStampMaster (fileModificationSkew 10)
allowSystemOperations : Allowing user-supplied system call operations

// * * * * * * * * * * * * * * * * * * * * * * * * * * * * * * * * * * * * * //
Create time

Create mesh for time = 0

Reading transportProperties

Reading field p

Reading field U

Reading/calculating face flux field phi


Starting time loop

Time = 0.002

Courant Number mean: 0 max: 0
nonePBiCGStab:  Solving for Ux, Initial residual = 1, Final residual = 0.0592055, No Iterations 5
nonePBiCGStab:  Solving for Uy, Initial residual = 0, Final residual = 0, No Iterations 0
nonePBiCGStab:  Solving for Uz, Initial residual = 0, Final residual = 0, No Iterations 0
[OGL LOG] init_host_sparsity_pattern : 35 ms
[OGL LOG] matrix not stored update host matrix
[OGL LOG] update_host_mtx : 18 ms
[OGL LOG] matrix is not yet sorted, compute sorting idxs
[OGL LOG] compute_sort : 909 ms
[OGL LOG] matrix is not yet sorted, sorting host matrix
[OGL LOG] sort_host_mtx_sparsity_pattern : 24 ms
[OGL LOG] sort_host_mtx : 15 ms
[OGL LOG] init_preconditioner : 0 ms
[OGL LOG] solve : 1097 ms
noneompGKOBiCGStab:  Solving for p, Initial residual = 1, Final residual = 9.24901e-07, No Iterations 360
time step continuity errors : sum local = 4.00176e-09, global = 4.79765e-23, cumulative = 4.79765e-23
[OGL LOG] init_preconditioner : 0 ms
[OGL LOG] solve : 937 ms
noneompGKOBiCGStab:  Solving for p, Initial residual = 0.676734, Final residual = 6.18732e-07, No Iterations 338
time step continuity errors : sum local = 2.15159e-09, global = -1.82508e-20, cumulative = -1.82028e-20
ExecutionTime = 34.34 s  ClockTime = 4 s

Time = 0.004

Courant Number mean: 0.0636233 max: 0.723792
nonePBiCGStab:  Solving for Ux, Initial residual = 0.144137, Final residual = 0.0219209, No Iterations 5
nonePBiCGStab:  Solving for Uy, Initial residual = 0.363931, Final residual = 0.0522824, No Iterations 5
nonePBiCGStab:  Solving for Uz, Initial residual = 0.973672, Final residual = 0.158948, No Iterations 5
[OGL LOG] init_preconditioner : 0 ms
[OGL LOG] solve : 910 ms
noneompGKOBiCGStab:  Solving for p, Initial residual = 0.668508, Final residual = 1.23923e-07, No Iterations 352
time step continuity errors : sum local = 1.69104e-07, global = 8.67723e-21, cumulative = -9.52556e-21
[OGL LOG] init_preconditioner : 0 ms
[OGL LOG] solve : 898 ms
noneompGKOBiCGStab:  Solving for p, Initial residual = 0.584667, Final residual = 6.69159e-07, No Iterations 341
time step continuity errors : sum local = 4.96054e-08, global = 8.99446e-21, cumulative = -5.31095e-22
ExecutionTime = 63.45 s  ClockTime = 6 s

Time = 0.006

Courant Number mean: 0.0972275 max: 0.862515
nonePBiCGStab:  Solving for Ux, Initial residual = 0.052414, Final residual = 0.00685427, No Iterations 5
nonePBiCGStab:  Solving for Uy, Initial residual = 0.127064, Final residual = 0.0201239, No Iterations 5
nonePBiCGStab:  Solving for Uz, Initial residual = 0.366388, Final residual = 0.0530321, No Iterations 5
[OGL LOG] init_preconditioner : 0 ms
[OGL LOG] solve : 903 ms
noneompGKOBiCGStab:  Solving for p, Initial residual = 0.594545, Final residual = 8.05571e-07, No Iterations 348
time step continuity errors : sum local = 2.11651e-08, global = -6.1073e-21, cumulative = -6.6384e-21
[OGL LOG] init_preconditioner : 0 ms
[OGL LOG] solve : 904 ms
noneompGKOBiCGStab:  Solving for p, Initial residual = 0.528727, Final residual = 8.67077e-07, No Iterations 348
time step continuity errors : sum local = 1.07665e-08, global = -1.61071e-20, cumulative = -2.27455e-20
ExecutionTime = 92.56 s  ClockTime = 8 s

Time = 0.008

Courant Number mean: 0.113794 max: 0.88248
nonePBiCGStab:  Solving for Ux, Initial residual = 0.028954, Final residual = 0.00344438, No Iterations 5
nonePBiCGStab:  Solving for Uy, Initial residual = 0.084432, Final residual = 0.0109215, No Iterations 5
nonePBiCGStab:  Solving for Uz, Initial residual = 0.229349, Final residual = 0.029993, No Iterations 5
[OGL LOG] init_preconditioner : 0 ms
[OGL LOG] solve : 919 ms
noneompGKOBiCGStab:  Solving for p, Initial residual = 0.411444, Final residual = 8.41763e-07, No Iterations 353
time step continuity errors : sum local = 1.64037e-08, global = -3.39827e-20, cumulative = -5.67282e-20
[OGL LOG] init_preconditioner : 0 ms
[OGL LOG] solve : 881 ms
noneompGKOBiCGStab:  Solving for p, Initial residual = 0.34269, Final residual = 3.77543e-07, No Iterations 336
time step continuity errors : sum local = 2.57944e-07, global = -5.67675e-21, cumulative = -6.2405e-20
ExecutionTime = 121.54 s  ClockTime = 10 s

Time = 0.01

Courant Number mean: 0.127339 max: 0.898876
nonePBiCGStab:  Solving for Ux, Initial residual = 0.0202747, Final residual = 0.00208524, No Iterations 5
nonePBiCGStab:  Solving for Uy, Initial residual = 0.0505666, Final residual = 0.00624643, No Iterations 5
nonePBiCGStab:  Solving for Uz, Initial residual = 0.113052, Final residual = 0.0183762, No Iterations 5
[OGL LOG] init_preconditioner : 0 ms
[OGL LOG] solve : 822 ms
noneompGKOBiCGStab:  Solving for p, Initial residual = 0.354185, Final residual = 5.27566e-07, No Iterations 322
time step continuity errors : sum local = 9.66942e-08, global = 3.78228e-20, cumulative = -2.45822e-20
[OGL LOG] init_preconditioner : 0 ms
[OGL LOG] solve : 828 ms
noneompGKOBiCGStab:  Solving for p, Initial residual = 0.302303, Final residual = 9.79181e-07, No Iterations 325
time step continuity errors : sum local = 2.93862e-08, global = -3.33917e-20, cumulative = -5.79739e-20
ExecutionTime = 148.14 s  ClockTime = 12 s

End

