/*---------------------------------------------------------------------------*\
  =========                 |
  \\      /  F ield         | OpenFOAM: The Open Source CFD Toolbox
   \\    /   O peration     | Website:  https://openfoam.org
    \\  /    A nd           | Version:  8
     \\/     M anipulation  |
\*---------------------------------------------------------------------------*/
Build  : 8-13d66902f78c
Exec   : icoFoam
Date   : Jul 14 2021
Time   : 01:33:17
Host   : "uc2n399.localdomain"
PID    : 4096802
I/O    : uncollated
Case   : /pfs/data5/home/kit/scc/nq7776/code/OGL_DATA/lidDrivenCavity3D/v0.1-136-g40fef35/f584ccac99/IntelXeonGold6230CPU@2.10GHz/Test_2021-07-14-01:16:21/50/p-U-BiCGStab-GKO-none-omp/lidDrivenCavity3D
nProcs : 1
sigFpe : Enabling floating point exception trapping (FOAM_SIGFPE).
fileModificationChecking : Monitoring run-time modified files using timeStampMaster (fileModificationSkew 10)
allowSystemOperations : Allowing user-supplied system call operations

// * * * * * * * * * * * * * * * * * * * * * * * * * * * * * * * * * * * * * //
Create time

Create mesh for time = 0

Reading transportProperties

Reading field p

Reading field U

Reading/calculating face flux field phi


Starting time loop

Time = 0.002

Courant Number mean: 0 max: 0
[OGL LOG] init_host_sparsity_pattern : 35 ms
[OGL LOG] matrix not stored update host matrix
[OGL LOG] update_host_mtx : 18 ms
[OGL LOG] matrix is not yet sorted, compute sorting idxs
[OGL LOG] compute_sort : 907 ms
[OGL LOG] matrix is not yet sorted, sorting host matrix
[OGL LOG] sort_host_mtx_sparsity_pattern : 24 ms
[OGL LOG] sort_host_mtx : 15 ms
[OGL LOG] init_preconditioner : 0 ms
[OGL LOG] solve : 139 ms
noneompGKOBiCGStab:  Solving for Ux, Initial residual = 1, Final residual = 8.43389e-07, No Iterations 41
[OGL LOG] init_host_sparsity_pattern : 35 ms
[OGL LOG] matrix not stored update host matrix
[OGL LOG] update_host_mtx : 18 ms
[OGL LOG] matrix is not yet sorted, sorting host matrix
[OGL LOG] sort_host_mtx_sparsity_pattern : 23 ms
[OGL LOG] sort_host_mtx : 12 ms
[OGL LOG] init_preconditioner : 0 ms
[OGL LOG] solve : 4 ms
noneompGKOBiCGStab:  Solving for Uy, Initial residual = 0, Final residual = 0, No Iterations 0
[OGL LOG] init_host_sparsity_pattern : 33 ms
[OGL LOG] matrix not stored update host matrix
[OGL LOG] update_host_mtx : 15 ms
[OGL LOG] matrix is not yet sorted, sorting host matrix
[OGL LOG] sort_host_mtx_sparsity_pattern : 23 ms
[OGL LOG] sort_host_mtx : 12 ms
[OGL LOG] init_preconditioner : 0 ms
[OGL LOG] solve : 3 ms
noneompGKOBiCGStab:  Solving for Uz, Initial residual = 0, Final residual = 0, No Iterations 0
[OGL LOG] init_host_sparsity_pattern : 32 ms
[OGL LOG] matrix not stored update host matrix
[OGL LOG] update_host_mtx : 18 ms
[OGL LOG] matrix is not yet sorted, sorting host matrix
[OGL LOG] sort_host_mtx_sparsity_pattern : 22 ms
[OGL LOG] sort_host_mtx : 13 ms
[OGL LOG] init_preconditioner : 0 ms
[OGL LOG] solve : 1091 ms
noneompGKOBiCGStab:  Solving for p, Initial residual = 1, Final residual = 9.8767e-07, No Iterations 354
time step continuity errors : sum local = 1.45257e-08, global = 6.75021e-21, cumulative = 6.75021e-21
[OGL LOG] init_preconditioner : 0 ms
[OGL LOG] solve : 920 ms
noneompGKOBiCGStab:  Solving for p, Initial residual = 0.721588, Final residual = 8.60637e-07, No Iterations 352
time step continuity errors : sum local = 3.42446e-08, global = 3.28404e-22, cumulative = 7.07861e-21
ExecutionTime = 36.95 s  ClockTime = 4 s

Time = 0.004

Courant Number mean: 0.0720722 max: 0.726639
[OGL LOG] init_host_sparsity_pattern : 33 ms
[OGL LOG] matrix not stored update host matrix
[OGL LOG] update_host_mtx : 16 ms
[OGL LOG] matrix is not yet sorted, sorting host matrix
[OGL LOG] sort_host_mtx_sparsity_pattern : 24 ms
[OGL LOG] sort_host_mtx : 12 ms
[OGL LOG] init_preconditioner : 0 ms
[OGL LOG] solve : 103 ms
noneompGKOBiCGStab:  Solving for Ux, Initial residual = 0.203469, Final residual = 9.82053e-07, No Iterations 39
[OGL LOG] init_host_sparsity_pattern : 33 ms
[OGL LOG] matrix not stored update host matrix
[OGL LOG] update_host_mtx : 15 ms
[OGL LOG] matrix is not yet sorted, sorting host matrix
[OGL LOG] sort_host_mtx_sparsity_pattern : 21 ms
[OGL LOG] sort_host_mtx : 12 ms
[OGL LOG] init_preconditioner : 0 ms
[OGL LOG] solve : 99 ms
noneompGKOBiCGStab:  Solving for Uy, Initial residual = 0.618427, Final residual = 9.0426e-07, No Iterations 37
[OGL LOG] init_host_sparsity_pattern : 33 ms
[OGL LOG] matrix not stored update host matrix
[OGL LOG] update_host_mtx : 15 ms
[OGL LOG] matrix is not yet sorted, sorting host matrix
[OGL LOG] sort_host_mtx_sparsity_pattern : 21 ms
[OGL LOG] sort_host_mtx : 12 ms
[OGL LOG] init_preconditioner : 0 ms
[OGL LOG] solve : 101 ms
noneompGKOBiCGStab:  Solving for Uz, Initial residual = 0.536423, Final residual = 8.1308e-07, No Iterations 38
[OGL LOG] init_preconditioner : 0 ms
[OGL LOG] solve : 944 ms
noneompGKOBiCGStab:  Solving for p, Initial residual = 0.673314, Final residual = 5.75807e-07, No Iterations 352
time step continuity errors : sum local = 5.46269e-08, global = -2.9863e-21, cumulative = 4.09231e-21
[OGL LOG] init_preconditioner : 0 ms
[OGL LOG] solve : 964 ms
noneompGKOBiCGStab:  Solving for p, Initial residual = 0.598884, Final residual = 7.98176e-07, No Iterations 364
time step continuity errors : sum local = 3.88459e-09, global = -1.61015e-20, cumulative = -1.20092e-20
ExecutionTime = 73.09 s  ClockTime = 7 s

Time = 0.006

Courant Number mean: 0.107408 max: 0.881755
[OGL LOG] init_host_sparsity_pattern : 33 ms
[OGL LOG] matrix not stored update host matrix
[OGL LOG] update_host_mtx : 16 ms
[OGL LOG] matrix is not yet sorted, sorting host matrix
[OGL LOG] sort_host_mtx_sparsity_pattern : 24 ms
[OGL LOG] sort_host_mtx : 13 ms
[OGL LOG] init_preconditioner : 0 ms
[OGL LOG] solve : 94 ms
noneompGKOBiCGStab:  Solving for Ux, Initial residual = 0.0995809, Final residual = 9.70696e-07, No Iterations 35
[OGL LOG] init_host_sparsity_pattern : 33 ms
[OGL LOG] matrix not stored update host matrix
[OGL LOG] update_host_mtx : 15 ms
[OGL LOG] matrix is not yet sorted, sorting host matrix
[OGL LOG] sort_host_mtx_sparsity_pattern : 22 ms
[OGL LOG] sort_host_mtx : 12 ms
[OGL LOG] init_preconditioner : 0 ms
[OGL LOG] solve : 98 ms
noneompGKOBiCGStab:  Solving for Uy, Initial residual = 0.249936, Final residual = 8.32631e-07, No Iterations 36
[OGL LOG] init_host_sparsity_pattern : 33 ms
[OGL LOG] matrix not stored update host matrix
[OGL LOG] update_host_mtx : 15 ms
[OGL LOG] matrix is not yet sorted, sorting host matrix
[OGL LOG] sort_host_mtx_sparsity_pattern : 22 ms
[OGL LOG] sort_host_mtx : 12 ms
[OGL LOG] init_preconditioner : 0 ms
[OGL LOG] solve : 105 ms
noneompGKOBiCGStab:  Solving for Uz, Initial residual = 0.541732, Final residual = 7.7083e-07, No Iterations 39
[OGL LOG] init_preconditioner : 0 ms
[OGL LOG] solve : 942 ms
noneompGKOBiCGStab:  Solving for p, Initial residual = 0.606892, Final residual = 9.34954e-07, No Iterations 357
time step continuity errors : sum local = 1.83196e-08, global = 8.56881e-21, cumulative = -3.44039e-21
[OGL LOG] init_preconditioner : 0 ms
[OGL LOG] solve : 942 ms
noneompGKOBiCGStab:  Solving for p, Initial residual = 0.560823, Final residual = 8.09029e-07, No Iterations 360
time step continuity errors : sum local = 1.6386e-08, global = 3.27952e-20, cumulative = 2.93548e-20
ExecutionTime = 108.76 s  ClockTime = 9 s

Time = 0.008

Courant Number mean: 0.123244 max: 0.890102
[OGL LOG] init_host_sparsity_pattern : 33 ms
[OGL LOG] matrix not stored update host matrix
[OGL LOG] update_host_mtx : 15 ms
[OGL LOG] matrix is not yet sorted, sorting host matrix
[OGL LOG] sort_host_mtx_sparsity_pattern : 21 ms
[OGL LOG] sort_host_mtx : 12 ms
[OGL LOG] init_preconditioner : 0 ms
[OGL LOG] solve : 82 ms
noneompGKOBiCGStab:  Solving for Ux, Initial residual = 0.0341472, Final residual = 8.42125e-07, No Iterations 31
[OGL LOG] init_host_sparsity_pattern : 33 ms
[OGL LOG] matrix not stored update host matrix
[OGL LOG] update_host_mtx : 16 ms
[OGL LOG] matrix is not yet sorted, sorting host matrix
[OGL LOG] sort_host_mtx_sparsity_pattern : 21 ms
[OGL LOG] sort_host_mtx : 12 ms
[OGL LOG] init_preconditioner : 0 ms
[OGL LOG] solve : 90 ms
noneompGKOBiCGStab:  Solving for Uy, Initial residual = 0.132379, Final residual = 5.99979e-07, No Iterations 34
[OGL LOG] init_host_sparsity_pattern : 33 ms
[OGL LOG] matrix not stored update host matrix
[OGL LOG] update_host_mtx : 15 ms
[OGL LOG] matrix is not yet sorted, sorting host matrix
[OGL LOG] sort_host_mtx_sparsity_pattern : 21 ms
[OGL LOG] sort_host_mtx : 12 ms
[OGL LOG] init_preconditioner : 0 ms
[OGL LOG] solve : 105 ms
noneompGKOBiCGStab:  Solving for Uz, Initial residual = 0.472727, Final residual = 9.84258e-07, No Iterations 37
[OGL LOG] init_preconditioner : 0 ms
[OGL LOG] solve : 995 ms
noneompGKOBiCGStab:  Solving for p, Initial residual = 0.423053, Final residual = 8.39576e-07, No Iterations 370
time step continuity errors : sum local = 2.74481e-08, global = 2.72514e-20, cumulative = 5.66062e-20
[OGL LOG] init_preconditioner : 0 ms
[OGL LOG] solve : 982 ms
noneompGKOBiCGStab:  Solving for p, Initial residual = 0.368406, Final residual = 9.35253e-07, No Iterations 365
time step continuity errors : sum local = 6.5412e-08, global = -2.11484e-20, cumulative = 3.54578e-20
ExecutionTime = 145.58 s  ClockTime = 12 s

Time = 0.01

Courant Number mean: 0.136096 max: 0.906943
[OGL LOG] init_host_sparsity_pattern : 33 ms
[OGL LOG] matrix not stored update host matrix
[OGL LOG] update_host_mtx : 16 ms
[OGL LOG] matrix is not yet sorted, sorting host matrix
[OGL LOG] sort_host_mtx_sparsity_pattern : 22 ms
[OGL LOG] sort_host_mtx : 12 ms
[OGL LOG] init_preconditioner : 0 ms
[OGL LOG] solve : 82 ms
noneompGKOBiCGStab:  Solving for Ux, Initial residual = 0.0230689, Final residual = 7.85294e-07, No Iterations 30
[OGL LOG] init_host_sparsity_pattern : 35 ms
[OGL LOG] matrix not stored update host matrix
[OGL LOG] update_host_mtx : 15 ms
[OGL LOG] matrix is not yet sorted, sorting host matrix
[OGL LOG] sort_host_mtx_sparsity_pattern : 21 ms
[OGL LOG] sort_host_mtx : 12 ms
[OGL LOG] init_preconditioner : 0 ms
[OGL LOG] solve : 86 ms
noneompGKOBiCGStab:  Solving for Uy, Initial residual = 0.048437, Final residual = 8.34129e-07, No Iterations 32
[OGL LOG] init_host_sparsity_pattern : 33 ms
[OGL LOG] matrix not stored update host matrix
[OGL LOG] update_host_mtx : 15 ms
[OGL LOG] matrix is not yet sorted, sorting host matrix
[OGL LOG] sort_host_mtx_sparsity_pattern : 21 ms
[OGL LOG] sort_host_mtx : 12 ms
[OGL LOG] init_preconditioner : 0 ms
[OGL LOG] solve : 100 ms
noneompGKOBiCGStab:  Solving for Uz, Initial residual = 0.159186, Final residual = 7.28165e-07, No Iterations 37
[OGL LOG] init_preconditioner : 0 ms
[OGL LOG] solve : 877 ms
noneompGKOBiCGStab:  Solving for p, Initial residual = 0.361669, Final residual = 5.49844e-07, No Iterations 329
time step continuity errors : sum local = 6.70883e-08, global = -2.09119e-20, cumulative = 1.4546e-20
[OGL LOG] init_preconditioner : 0 ms
[OGL LOG] solve : 919 ms
noneompGKOBiCGStab:  Solving for p, Initial residual = 0.333165, Final residual = 9.4898e-07, No Iterations 342
time step continuity errors : sum local = 2.14678e-08, global = 2.12235e-20, cumulative = 3.57694e-20
ExecutionTime = 179.39 s  ClockTime = 14 s

End

