/*---------------------------------------------------------------------------*\
  =========                 |
  \\      /  F ield         | OpenFOAM: The Open Source CFD Toolbox
   \\    /   O peration     | Website:  https://openfoam.org
    \\  /    A nd           | Version:  8
     \\/     M anipulation  |
\*---------------------------------------------------------------------------*/
Build  : 8-13d66902f78c
Exec   : icoFoam
Date   : Jul 14 2021
Time   : 01:53:52
Host   : "uc2n480.localdomain"
PID    : 600072
I/O    : uncollated
Case   : /pfs/data5/home/kit/scc/nq7776/code/OGL_DATA/lidDrivenCavity3D/v0.1-136-g40fef35/f584ccac99/IntelXeonGold6230CPU@2.10GHz/Test_2021-07-14-01:53:11/25/p-BiCGStab-OF-DIC-reference/lidDrivenCavity3D
nProcs : 1
sigFpe : Enabling floating point exception trapping (FOAM_SIGFPE).
fileModificationChecking : Monitoring run-time modified files using timeStampMaster (fileModificationSkew 10)
allowSystemOperations : Allowing user-supplied system call operations

// * * * * * * * * * * * * * * * * * * * * * * * * * * * * * * * * * * * * * //
Create time

Create mesh for time = 0

Reading transportProperties

Reading field p

Reading field U

Reading/calculating face flux field phi


Starting time loop

Time = 0.004

Courant Number mean: 0 max: 0
nonePBiCGStab:  Solving for Ux, Initial residual = 1, Final residual = 0.0337517, No Iterations 5
nonePBiCGStab:  Solving for Uy, Initial residual = 0, Final residual = 0, No Iterations 0
nonePBiCGStab:  Solving for Uz, Initial residual = 0, Final residual = 0, No Iterations 0
DICPBiCGStab:  Solving for p, Initial residual = 1, Final residual = 6.53586e-07, No Iterations 51
time step continuity errors : sum local = 2.97809e-09, global = 9.568e-21, cumulative = 9.568e-21
DICPBiCGStab:  Solving for p, Initial residual = 0.622285, Final residual = 5.65282e-07, No Iterations 52
time step continuity errors : sum local = 3.55327e-09, global = -1.84061e-20, cumulative = -8.83806e-21
ExecutionTime = 0.17 s  ClockTime = 0 s

Time = 0.008

Courant Number mean: 0.084228 max: 0.621061
nonePBiCGStab:  Solving for Ux, Initial residual = 0.149589, Final residual = 0.00942683, No Iterations 5
nonePBiCGStab:  Solving for Uy, Initial residual = 0.281195, Final residual = 0.0142199, No Iterations 5
nonePBiCGStab:  Solving for Uz, Initial residual = 0.933282, Final residual = 0.0511086, No Iterations 5
DICPBiCGStab:  Solving for p, Initial residual = 0.518046, Final residual = 6.95857e-07, No Iterations 53
time step continuity errors : sum local = 8.15586e-09, global = -8.0592e-20, cumulative = -8.94301e-20
DICPBiCGStab:  Solving for p, Initial residual = 0.415897, Final residual = 2.76817e-07, No Iterations 51
time step continuity errors : sum local = 3.3795e-09, global = 1.70031e-19, cumulative = 8.06011e-20
ExecutionTime = 0.23 s  ClockTime = 0 s

Time = 0.012

Courant Number mean: 0.124051 max: 0.792234
nonePBiCGStab:  Solving for Ux, Initial residual = 0.0425013, Final residual = 0.00204644, No Iterations 5
nonePBiCGStab:  Solving for Uy, Initial residual = 0.0761424, Final residual = 0.00263683, No Iterations 5
nonePBiCGStab:  Solving for Uz, Initial residual = 0.142719, Final residual = 0.00668656, No Iterations 5
DICPBiCGStab:  Solving for p, Initial residual = 0.279183, Final residual = 7.22466e-07, No Iterations 49
time step continuity errors : sum local = 3.21901e-09, global = -5.41934e-20, cumulative = 2.64078e-20
DICPBiCGStab:  Solving for p, Initial residual = 0.224049, Final residual = 3.43298e-07, No Iterations 48
time step continuity errors : sum local = 1.78084e-09, global = 7.79811e-20, cumulative = 1.04389e-19
ExecutionTime = 0.29 s  ClockTime = 0 s

Time = 0.016

Courant Number mean: 0.142529 max: 0.824384
nonePBiCGStab:  Solving for Ux, Initial residual = 0.0219031, Final residual = 0.000752454, No Iterations 5
nonePBiCGStab:  Solving for Uy, Initial residual = 0.0474705, Final residual = 0.000975029, No Iterations 5
nonePBiCGStab:  Solving for Uz, Initial residual = 0.092642, Final residual = 0.00322926, No Iterations 5
DICPBiCGStab:  Solving for p, Initial residual = 0.138549, Final residual = 8.16631e-07, No Iterations 52
time step continuity errors : sum local = 3.58443e-09, global = 2.44061e-20, cumulative = 1.28795e-19
DICPBiCGStab:  Solving for p, Initial residual = 0.106558, Final residual = 9.81774e-07, No Iterations 47
time step continuity errors : sum local = 7.87881e-09, global = 3.99321e-20, cumulative = 1.68727e-19
ExecutionTime = 0.35 s  ClockTime = 0 s

Time = 0.02

Courant Number mean: 0.154857 max: 0.843613
nonePBiCGStab:  Solving for Ux, Initial residual = 0.0136629, Final residual = 0.000405674, No Iterations 5
nonePBiCGStab:  Solving for Uy, Initial residual = 0.0288053, Final residual = 0.000728015, No Iterations 5
nonePBiCGStab:  Solving for Uz, Initial residual = 0.0551972, Final residual = 0.00171474, No Iterations 5
DICPBiCGStab:  Solving for p, Initial residual = 0.0654131, Final residual = 5.30093e-07, No Iterations 47
time step continuity errors : sum local = 2.21394e-09, global = 4.47813e-20, cumulative = 2.13508e-19
DICPBiCGStab:  Solving for p, Initial residual = 0.0510721, Final residual = 8.70935e-07, No Iterations 47
time step continuity errors : sum local = 3.69669e-09, global = -3.94532e-20, cumulative = 1.74055e-19
ExecutionTime = 0.41 s  ClockTime = 0 s

End

