/*---------------------------------------------------------------------------*\
  =========                 |
  \\      /  F ield         | OpenFOAM: The Open Source CFD Toolbox
   \\    /   O peration     | Website:  https://openfoam.org
    \\  /    A nd           | Version:  8
     \\/     M anipulation  |
\*---------------------------------------------------------------------------*/
Build  : 8-13d66902f78c
Exec   : icoFoam
Date   : Jul 14 2021
Time   : 00:34:55
Host   : "uc2n394.localdomain"
PID    : 3271527
I/O    : uncollated
Case   : /pfs/data5/home/kit/scc/nq7776/code/OGL_DATA/lidDrivenCavity3D/v0.1-136-g40fef35/f584ccac99/IntelXeonGold6230CPU@2.10GHz/Test_2021-07-14-00:31:10/25/p-BiCGStab-GKO-BJ-omp/lidDrivenCavity3D
nProcs : 1
sigFpe : Enabling floating point exception trapping (FOAM_SIGFPE).
fileModificationChecking : Monitoring run-time modified files using timeStampMaster (fileModificationSkew 10)
allowSystemOperations : Allowing user-supplied system call operations

// * * * * * * * * * * * * * * * * * * * * * * * * * * * * * * * * * * * * * //
Create time

Create mesh for time = 0

Reading transportProperties

Reading field p

Reading field U

Reading/calculating face flux field phi


Starting time loop

Time = 0.004

Courant Number mean: 0 max: 0
nonePBiCGStab:  Solving for Ux, Initial residual = 1, Final residual = 0.0337517, No Iterations 5
nonePBiCGStab:  Solving for Uy, Initial residual = 0, Final residual = 0, No Iterations 0
nonePBiCGStab:  Solving for Uz, Initial residual = 0, Final residual = 0, No Iterations 0
[OGL LOG] init_host_sparsity_pattern : 4 ms
[OGL LOG] matrix not stored update host matrix
[OGL LOG] update_host_mtx : 2 ms
[OGL LOG] matrix is not yet sorted, compute sorting idxs
[OGL LOG] compute_sort : 98 ms
[OGL LOG] matrix is not yet sorted, sorting host matrix
[OGL LOG] sort_host_mtx_sparsity_pattern : 3 ms
[OGL LOG] sort_host_mtx : 1 ms
[OGL LOG] init_preconditioner : 1 ms
[OGL LOG] solve : 120 ms
BJompGKOBiCGStab:  Solving for p, Initial residual = 1, Final residual = 7.57618e-07, No Iterations 157
time step continuity errors : sum local = 4.0657e-08, global = -2.9216e-21, cumulative = -2.9216e-21
[OGL LOG] init_preconditioner : 0 ms
[OGL LOG] solve : 95 ms
BJompGKOBiCGStab:  Solving for p, Initial residual = 0.622283, Final residual = 8.02268e-07, No Iterations 150
time step continuity errors : sum local = 2.10156e-07, global = 4.81626e-20, cumulative = 4.5241e-20
ExecutionTime = 2 s  ClockTime = 0 s

Time = 0.008

Courant Number mean: 0.084228 max: 0.621061
nonePBiCGStab:  Solving for Ux, Initial residual = 0.149588, Final residual = 0.00942674, No Iterations 5
nonePBiCGStab:  Solving for Uy, Initial residual = 0.281193, Final residual = 0.0142195, No Iterations 5
nonePBiCGStab:  Solving for Uz, Initial residual = 0.933117, Final residual = 0.0511076, No Iterations 5
[OGL LOG] init_preconditioner : 0 ms
[OGL LOG] solve : 97 ms
BJompGKOBiCGStab:  Solving for p, Initial residual = 0.518049, Final residual = 6.70001e-07, No Iterations 152
time step continuity errors : sum local = 6.85078e-08, global = -1.11291e-19, cumulative = -6.60502e-20
[OGL LOG] init_preconditioner : 0 ms
[OGL LOG] solve : 102 ms
BJompGKOBiCGStab:  Solving for p, Initial residual = 0.415904, Final residual = 7.94881e-07, No Iterations 149
time step continuity errors : sum local = 8.08831e-07, global = 1.404e-19, cumulative = 7.43501e-20
ExecutionTime = 3.66 s  ClockTime = 1 s

Time = 0.012

Courant Number mean: 0.124051 max: 0.792233
nonePBiCGStab:  Solving for Ux, Initial residual = 0.0424962, Final residual = 0.00204621, No Iterations 5
nonePBiCGStab:  Solving for Uy, Initial residual = 0.0761556, Final residual = 0.00263729, No Iterations 5
nonePBiCGStab:  Solving for Uz, Initial residual = 0.142858, Final residual = 0.00669657, No Iterations 5
[OGL LOG] init_preconditioner : 0 ms
[OGL LOG] solve : 88 ms
BJompGKOBiCGStab:  Solving for p, Initial residual = 0.279305, Final residual = 9.57176e-07, No Iterations 128
time step continuity errors : sum local = 2.33241e-07, global = 5.70548e-20, cumulative = 1.31405e-19
[OGL LOG] init_preconditioner : 0 ms
[OGL LOG] solve : 106 ms
BJompGKOBiCGStab:  Solving for p, Initial residual = 0.224073, Final residual = 3.98007e-07, No Iterations 155
time step continuity errors : sum local = 1.91049e-09, global = 1.07557e-20, cumulative = 1.42161e-19
ExecutionTime = 5.28 s  ClockTime = 1 s

Time = 0.016

Courant Number mean: 0.142529 max: 0.824384
nonePBiCGStab:  Solving for Ux, Initial residual = 0.021902, Final residual = 0.000754656, No Iterations 5
nonePBiCGStab:  Solving for Uy, Initial residual = 0.0474737, Final residual = 0.000979424, No Iterations 5
nonePBiCGStab:  Solving for Uz, Initial residual = 0.0927359, Final residual = 0.00352976, No Iterations 5
[OGL LOG] init_preconditioner : 0 ms
[OGL LOG] solve : 92 ms
BJompGKOBiCGStab:  Solving for p, Initial residual = 0.138555, Final residual = 7.85077e-07, No Iterations 134
time step continuity errors : sum local = 5.68309e-08, global = -3.29036e-20, cumulative = 1.09257e-19
[OGL LOG] init_preconditioner : 0 ms
[OGL LOG] solve : 98 ms
BJompGKOBiCGStab:  Solving for p, Initial residual = 0.106568, Final residual = 7.14214e-07, No Iterations 140
time step continuity errors : sum local = 1.61216e-08, global = -2.52958e-20, cumulative = 8.39611e-20
ExecutionTime = 6.86 s  ClockTime = 1 s

Time = 0.02

Courant Number mean: 0.154856 max: 0.843613
nonePBiCGStab:  Solving for Ux, Initial residual = 0.0136631, Final residual = 0.000403978, No Iterations 5
nonePBiCGStab:  Solving for Uy, Initial residual = 0.028806, Final residual = 0.00072009, No Iterations 5
nonePBiCGStab:  Solving for Uz, Initial residual = 0.0552568, Final residual = 0.00173103, No Iterations 5
[OGL LOG] init_preconditioner : 0 ms
[OGL LOG] solve : 98 ms
BJompGKOBiCGStab:  Solving for p, Initial residual = 0.0654378, Final residual = 8.81816e-07, No Iterations 136
time step continuity errors : sum local = 3.8031e-08, global = -4.23523e-20, cumulative = 4.16089e-20
[OGL LOG] init_preconditioner : 0 ms
[OGL LOG] solve : 105 ms
BJompGKOBiCGStab:  Solving for p, Initial residual = 0.0510988, Final residual = 9.51318e-07, No Iterations 141
time step continuity errors : sum local = 1.90758e-06, global = -3.51668e-20, cumulative = 6.44211e-21
ExecutionTime = 8.58 s  ClockTime = 1 s

End

