/*---------------------------------------------------------------------------*\
  =========                 |
  \\      /  F ield         | OpenFOAM: The Open Source CFD Toolbox
   \\    /   O peration     | Website:  https://openfoam.org
    \\  /    A nd           | Version:  8
     \\/     M anipulation  |
\*---------------------------------------------------------------------------*/
Build  : 8-13d66902f78c
Exec   : icoFoam
Date   : Jul 14 2021
Time   : 00:35:58
Host   : "uc2n394.localdomain"
PID    : 3271972
I/O    : uncollated
Case   : /pfs/data5/home/kit/scc/nq7776/code/OGL_DATA/lidDrivenCavity3D/v0.1-136-g40fef35/f584ccac99/IntelXeonGold6230CPU@2.10GHz/Test_2021-07-14-00:31:10/25/p-BiCGStab-GKO-BJ-omp/lidDrivenCavity3D
nProcs : 1
sigFpe : Enabling floating point exception trapping (FOAM_SIGFPE).
fileModificationChecking : Monitoring run-time modified files using timeStampMaster (fileModificationSkew 10)
allowSystemOperations : Allowing user-supplied system call operations

// * * * * * * * * * * * * * * * * * * * * * * * * * * * * * * * * * * * * * //
Create time

Create mesh for time = 0

Reading transportProperties

Reading field p

Reading field U

Reading/calculating face flux field phi


Starting time loop

Time = 0.004

Courant Number mean: 0 max: 0
nonePBiCGStab:  Solving for Ux, Initial residual = 1, Final residual = 0.0337517, No Iterations 5
nonePBiCGStab:  Solving for Uy, Initial residual = 0, Final residual = 0, No Iterations 0
nonePBiCGStab:  Solving for Uz, Initial residual = 0, Final residual = 0, No Iterations 0
[OGL LOG] init_host_sparsity_pattern : 4 ms
[OGL LOG] matrix not stored update host matrix
[OGL LOG] update_host_mtx : 2 ms
[OGL LOG] matrix is not yet sorted, compute sorting idxs
[OGL LOG] compute_sort : 98 ms
[OGL LOG] matrix is not yet sorted, sorting host matrix
[OGL LOG] sort_host_mtx_sparsity_pattern : 2 ms
[OGL LOG] sort_host_mtx : 1 ms
[OGL LOG] init_preconditioner : 1 ms
[OGL LOG] solve : 108 ms
BJompGKOBiCGStab:  Solving for p, Initial residual = 1, Final residual = 7.57618e-07, No Iterations 157
time step continuity errors : sum local = 3.24277e-08, global = -2.9216e-21, cumulative = -2.9216e-21
[OGL LOG] init_preconditioner : 0 ms
[OGL LOG] solve : 103 ms
BJompGKOBiCGStab:  Solving for p, Initial residual = 0.62228, Final residual = 8.04617e-07, No Iterations 150
time step continuity errors : sum local = 1.59525e-07, global = -8.75051e-20, cumulative = -9.04267e-20
ExecutionTime = 3.71 s  ClockTime = 1 s

Time = 0.008

Courant Number mean: 0.084228 max: 0.621061
nonePBiCGStab:  Solving for Ux, Initial residual = 0.149588, Final residual = 0.00942674, No Iterations 5
nonePBiCGStab:  Solving for Uy, Initial residual = 0.281194, Final residual = 0.0142193, No Iterations 5
nonePBiCGStab:  Solving for Uz, Initial residual = 0.933167, Final residual = 0.0511043, No Iterations 5
[OGL LOG] init_preconditioner : 0 ms
[OGL LOG] solve : 106 ms
BJompGKOBiCGStab:  Solving for p, Initial residual = 0.518042, Final residual = 8.9693e-07, No Iterations 153
time step continuity errors : sum local = 2.52239e-08, global = -2.76969e-20, cumulative = -1.18124e-19
[OGL LOG] init_preconditioner : 0 ms
[OGL LOG] solve : 111 ms
BJompGKOBiCGStab:  Solving for p, Initial residual = 0.415904, Final residual = 8.64719e-07, No Iterations 151
time step continuity errors : sum local = 7.88255e-08, global = 7.45705e-20, cumulative = -4.3553e-20
ExecutionTime = 7.33 s  ClockTime = 1 s

Time = 0.012

Courant Number mean: 0.124051 max: 0.792233
nonePBiCGStab:  Solving for Ux, Initial residual = 0.0424989, Final residual = 0.00204632, No Iterations 5
nonePBiCGStab:  Solving for Uy, Initial residual = 0.0761482, Final residual = 0.00263708, No Iterations 5
nonePBiCGStab:  Solving for Uz, Initial residual = 0.142756, Final residual = 0.00668911, No Iterations 5
[OGL LOG] init_preconditioner : 0 ms
[OGL LOG] solve : 112 ms
BJompGKOBiCGStab:  Solving for p, Initial residual = 0.279192, Final residual = 2.97592e-07, No Iterations 152
time step continuity errors : sum local = 1.65321e-09, global = 1.33761e-19, cumulative = 9.02078e-20
[OGL LOG] init_preconditioner : 0 ms
[OGL LOG] solve : 114 ms
BJompGKOBiCGStab:  Solving for p, Initial residual = 0.224047, Final residual = 6.42409e-07, No Iterations 155
time step continuity errors : sum local = 7.35366e-09, global = -9.29906e-20, cumulative = -2.78276e-21
ExecutionTime = 11.07 s  ClockTime = 1 s

Time = 0.016

Courant Number mean: 0.142529 max: 0.824384
nonePBiCGStab:  Solving for Ux, Initial residual = 0.0219032, Final residual = 0.000752474, No Iterations 5
nonePBiCGStab:  Solving for Uy, Initial residual = 0.0474703, Final residual = 0.000975251, No Iterations 5
nonePBiCGStab:  Solving for Uz, Initial residual = 0.0926718, Final residual = 0.00323984, No Iterations 5
[OGL LOG] init_preconditioner : 0 ms
[OGL LOG] solve : 106 ms
BJompGKOBiCGStab:  Solving for p, Initial residual = 0.13855, Final residual = 8.56939e-07, No Iterations 142
time step continuity errors : sum local = 6.55759e-09, global = -5.70583e-20, cumulative = -5.98411e-20
[OGL LOG] init_preconditioner : 0 ms
[OGL LOG] solve : 103 ms
BJompGKOBiCGStab:  Solving for p, Initial residual = 0.10656, Final residual = 7.09314e-07, No Iterations 137
time step continuity errors : sum local = 2.19968e-08, global = 4.1692e-20, cumulative = -1.81491e-20
ExecutionTime = 14.54 s  ClockTime = 1 s

Time = 0.02

Courant Number mean: 0.154857 max: 0.843613
nonePBiCGStab:  Solving for Ux, Initial residual = 0.0136632, Final residual = 0.000405648, No Iterations 5
nonePBiCGStab:  Solving for Uy, Initial residual = 0.0288048, Final residual = 0.000727815, No Iterations 5
nonePBiCGStab:  Solving for Uz, Initial residual = 0.055195, Final residual = 0.0017197, No Iterations 5
[OGL LOG] init_preconditioner : 0 ms
[OGL LOG] solve : 82 ms
BJompGKOBiCGStab:  Solving for p, Initial residual = 0.0654129, Final residual = 6.91876e-07, No Iterations 136
time step continuity errors : sum local = 1.37015e-07, global = 1.07433e-19, cumulative = 8.92841e-20
[OGL LOG] init_preconditioner : 0 ms
[OGL LOG] solve : 86 ms
BJompGKOBiCGStab:  Solving for p, Initial residual = 0.0510913, Final residual = 7.50866e-07, No Iterations 137
time step continuity errors : sum local = 9.23401e-08, global = -1.57144e-20, cumulative = 7.35697e-20
ExecutionTime = 17.43 s  ClockTime = 2 s

End

