/*---------------------------------------------------------------------------*\
  =========                 |
  \\      /  F ield         | OpenFOAM: The Open Source CFD Toolbox
   \\    /   O peration     | Website:  https://openfoam.org
    \\  /    A nd           | Version:  8
     \\/     M anipulation  |
\*---------------------------------------------------------------------------*/
Build  : 8-13d66902f78c
Exec   : icoFoam
Date   : Jul 12 2021
Time   : 13:00:59
Host   : "uc2n438.localdomain"
PID    : 4128479
I/O    : uncollated
Case   : /pfs/data5/home/kit/scc/nq7776/code/OGL_DATA/lidDrivenCavity3D/v0.1-136-g40fef35/f584ccac99/IntelXeonGold6230CPU@2.10GHz/Test_2021-07-12-12:41:27/50/p-BiCGStab-GKO-BJ-omp/lidDrivenCavity3D
nProcs : 1
sigFpe : Enabling floating point exception trapping (FOAM_SIGFPE).
fileModificationChecking : Monitoring run-time modified files using timeStampMaster (fileModificationSkew 10)
allowSystemOperations : Allowing user-supplied system call operations

// * * * * * * * * * * * * * * * * * * * * * * * * * * * * * * * * * * * * * //
Create time

Create mesh for time = 0

Reading transportProperties

Reading field p

Reading field U

Reading/calculating face flux field phi


Starting time loop

Time = 0.002

Courant Number mean: 0 max: 0
nonePBiCGStab:  Solving for Ux, Initial residual = 1, Final residual = 0.0592055, No Iterations 5
nonePBiCGStab:  Solving for Uy, Initial residual = 0, Final residual = 0, No Iterations 0
nonePBiCGStab:  Solving for Uz, Initial residual = 0, Final residual = 0, No Iterations 0
[OGL LOG] init_host_sparsity_pattern : 35 ms
[OGL LOG] matrix not stored update host matrix
[OGL LOG] update_host_mtx : 18 ms
[OGL LOG] matrix is not yet sorted, compute sorting idxs
[OGL LOG] compute_sort : 993 ms
[OGL LOG] matrix is not yet sorted, sorting host matrix
[OGL LOG] sort_host_mtx_sparsity_pattern : 23 ms
[OGL LOG] sort_host_mtx : 15 ms
[OGL LOG] init_preconditioner : 5 ms
[OGL LOG] solve : 1306 ms
BJompGKOBiCGStab:  Solving for p, Initial residual = 1, Final residual = 9.53558e-07, No Iterations 281
time step continuity errors : sum local = 2.92948e-09, global = -7.52993e-21, cumulative = -7.52993e-21
[OGL LOG] init_preconditioner : 0 ms
[OGL LOG] solve : 991 ms
BJompGKOBiCGStab:  Solving for p, Initial residual = 0.676727, Final residual = 9.28234e-07, No Iterations 269
time step continuity errors : sum local = 1.04892e-08, global = 2.10248e-20, cumulative = 1.34949e-20
ExecutionTime = 38.64 s  ClockTime = 4 s

Time = 0.004

Courant Number mean: 0.0636233 max: 0.723792
nonePBiCGStab:  Solving for Ux, Initial residual = 0.144135, Final residual = 0.02192, No Iterations 5
nonePBiCGStab:  Solving for Uy, Initial residual = 0.363931, Final residual = 0.0522817, No Iterations 5
nonePBiCGStab:  Solving for Uz, Initial residual = 0.973599, Final residual = 0.158928, No Iterations 5
[OGL LOG] init_preconditioner : 0 ms
[OGL LOG] solve : 999 ms
BJompGKOBiCGStab:  Solving for p, Initial residual = 0.668512, Final residual = 7.90775e-07, No Iterations 265
time step continuity errors : sum local = 2.27967e-08, global = 3.89048e-20, cumulative = 5.23997e-20
[OGL LOG] init_preconditioner : 0 ms
[OGL LOG] solve : 950 ms
BJompGKOBiCGStab:  Solving for p, Initial residual = 0.584669, Final residual = 6.10912e-07, No Iterations 255
time step continuity errors : sum local = 2.5087e-08, global = 1.86539e-20, cumulative = 7.10535e-20
ExecutionTime = 69.99 s  ClockTime = 6 s

Time = 0.006

Courant Number mean: 0.0972275 max: 0.862515
nonePBiCGStab:  Solving for Ux, Initial residual = 0.0524147, Final residual = 0.00685468, No Iterations 5
nonePBiCGStab:  Solving for Uy, Initial residual = 0.127059, Final residual = 0.0201204, No Iterations 5
nonePBiCGStab:  Solving for Uz, Initial residual = 0.366469, Final residual = 0.0530202, No Iterations 5
[OGL LOG] init_preconditioner : 0 ms
[OGL LOG] solve : 978 ms
BJompGKOBiCGStab:  Solving for p, Initial residual = 0.59455, Final residual = 5.42169e-07, No Iterations 262
time step continuity errors : sum local = 1.2125e-09, global = 1.52453e-20, cumulative = 8.62988e-20
[OGL LOG] init_preconditioner : 0 ms
[OGL LOG] solve : 965 ms
BJompGKOBiCGStab:  Solving for p, Initial residual = 0.528706, Final residual = 5.58939e-07, No Iterations 260
time step continuity errors : sum local = 1.71716e-09, global = 1.49003e-21, cumulative = 8.77889e-20
ExecutionTime = 101.24 s  ClockTime = 8 s

Time = 0.008

Courant Number mean: 0.113794 max: 0.88248
nonePBiCGStab:  Solving for Ux, Initial residual = 0.0289565, Final residual = 0.00344477, No Iterations 5
nonePBiCGStab:  Solving for Uy, Initial residual = 0.0844261, Final residual = 0.0109195, No Iterations 5
nonePBiCGStab:  Solving for Uz, Initial residual = 0.229206, Final residual = 0.0298016, No Iterations 5
[OGL LOG] init_preconditioner : 0 ms
[OGL LOG] solve : 944 ms
BJompGKOBiCGStab:  Solving for p, Initial residual = 0.411432, Final residual = 9.2959e-07, No Iterations 253
time step continuity errors : sum local = 7.23716e-09, global = 1.79381e-20, cumulative = 1.05727e-19
[OGL LOG] init_preconditioner : 0 ms
[OGL LOG] solve : 1006 ms
BJompGKOBiCGStab:  Solving for p, Initial residual = 0.342685, Final residual = 7.98926e-07, No Iterations 271
time step continuity errors : sum local = 1.82926e-09, global = 2.96189e-20, cumulative = 1.35346e-19
ExecutionTime = 132.62 s  ClockTime = 10 s

Time = 0.01

Courant Number mean: 0.127339 max: 0.898876
nonePBiCGStab:  Solving for Ux, Initial residual = 0.0202774, Final residual = 0.0020849, No Iterations 5
nonePBiCGStab:  Solving for Uy, Initial residual = 0.0505572, Final residual = 0.0062361, No Iterations 5
nonePBiCGStab:  Solving for Uz, Initial residual = 0.112917, Final residual = 0.0180764, No Iterations 5
[OGL LOG] init_preconditioner : 0 ms
[OGL LOG] solve : 908 ms
BJompGKOBiCGStab:  Solving for p, Initial residual = 0.354041, Final residual = 8.75101e-07, No Iterations 249
time step continuity errors : sum local = 1.18274e-07, global = 1.37596e-20, cumulative = 1.49105e-19
[OGL LOG] init_preconditioner : 0 ms
[OGL LOG] solve : 922 ms
BJompGKOBiCGStab:  Solving for p, Initial residual = 0.302275, Final residual = 7.24204e-08, No Iterations 250
time step continuity errors : sum local = 3.86229e-08, global = -6.16657e-20, cumulative = 8.74397e-20
ExecutionTime = 162.07 s  ClockTime = 12 s

End

