/*---------------------------------------------------------------------------*\
  =========                 |
  \\      /  F ield         | OpenFOAM: The Open Source CFD Toolbox
   \\    /   O peration     | Website:  https://openfoam.org
    \\  /    A nd           | Version:  8
     \\/     M anipulation  |
\*---------------------------------------------------------------------------*/
Build  : 8-13d66902f78c
Exec   : icoFoam
Date   : Jul 12 2021
Time   : 14:19:35
Host   : "uc2n402.localdomain"
PID    : 3439796
I/O    : uncollated
Case   : /pfs/data5/home/kit/scc/nq7776/code/OGL_DATA/lidDrivenCavity3D/v0.1-136-g40fef35/f584ccac99/IntelXeonGold6230CPU@2.10GHz/Test_2021-07-12-12:43:44/100/p-U-CG-GKO-none-omp/lidDrivenCavity3D
nProcs : 1
sigFpe : Enabling floating point exception trapping (FOAM_SIGFPE).
fileModificationChecking : Monitoring run-time modified files using timeStampMaster (fileModificationSkew 10)
allowSystemOperations : Allowing user-supplied system call operations

// * * * * * * * * * * * * * * * * * * * * * * * * * * * * * * * * * * * * * //
Create time

Create mesh for time = 0

Reading transportProperties

Reading field p

Reading field U

Reading/calculating face flux field phi


Starting time loop

Time = 0.001

Courant Number mean: 0 max: 0
[OGL LOG] init_host_sparsity_pattern : 292 ms
[OGL LOG] matrix not stored update host matrix
[OGL LOG] update_host_mtx : 145 ms
[OGL LOG] matrix is not yet sorted, compute sorting idxs
[OGL LOG] compute_sort : 9077 ms
[OGL LOG] matrix is not yet sorted, sorting host matrix
[OGL LOG] sort_host_mtx_sparsity_pattern : 184 ms
[OGL LOG] sort_host_mtx : 124 ms
[OGL LOG] init_preconditioner : 0 ms
[OGL LOG] solve : 2562 ms
noneompGKOBiCGStab:  Solving for Ux, Initial residual = 1, Final residual = 9.90061e-07, No Iterations 57
[OGL LOG] init_host_sparsity_pattern : 295 ms
[OGL LOG] matrix not stored update host matrix
[OGL LOG] update_host_mtx : 176 ms
[OGL LOG] matrix is not yet sorted, sorting host matrix
[OGL LOG] sort_host_mtx_sparsity_pattern : 229 ms
[OGL LOG] sort_host_mtx : 135 ms
[OGL LOG] init_preconditioner : 0 ms
[OGL LOG] solve : 68 ms
noneompGKOBiCGStab:  Solving for Uy, Initial residual = 0, Final residual = 0, No Iterations 0
[OGL LOG] init_host_sparsity_pattern : 266 ms
[OGL LOG] matrix not stored update host matrix
[OGL LOG] update_host_mtx : 145 ms
[OGL LOG] matrix is not yet sorted, sorting host matrix
[OGL LOG] sort_host_mtx_sparsity_pattern : 195 ms
[OGL LOG] sort_host_mtx : 124 ms
[OGL LOG] init_preconditioner : 0 ms
[OGL LOG] solve : 62 ms
noneompGKOBiCGStab:  Solving for Uz, Initial residual = 0, Final residual = 0, No Iterations 0
[OGL LOG] init_host_sparsity_pattern : 300 ms
[OGL LOG] matrix not stored update host matrix
[OGL LOG] update_host_mtx : 147 ms
[OGL LOG] matrix is not yet sorted, sorting host matrix
[OGL LOG] sort_host_mtx_sparsity_pattern : 191 ms
[OGL LOG] sort_host_mtx : 125 ms
[OGL LOG] init_preconditioner : 0 ms
[OGL LOG] solve : 20460 ms
noneompGKOCG:  Solving for p, Initial residual = 1, Final residual = 9.83258e-07, No Iterations 900
time step continuity errors : sum local = 5.89513e-10, global = -5.66913e-21, cumulative = -5.66913e-21
[OGL LOG] init_preconditioner : 0 ms
[OGL LOG] solve : 20199 ms
noneompGKOCG:  Solving for p, Initial residual = 0.783585, Final residual = 9.54407e-07, No Iterations 893
time step continuity errors : sum local = 7.15381e-10, global = -8.87891e-22, cumulative = -6.55702e-21
ExecutionTime = 104.05 s  ClockTime = 61 s

Time = 0.002

Courant Number mean: 0.0571435 max: 0.804774
[OGL LOG] init_host_sparsity_pattern : 274 ms
[OGL LOG] matrix not stored update host matrix
[OGL LOG] update_host_mtx : 139 ms
[OGL LOG] matrix is not yet sorted, sorting host matrix
[OGL LOG] sort_host_mtx_sparsity_pattern : 197 ms
[OGL LOG] sort_host_mtx : 124 ms
[OGL LOG] init_preconditioner : 0 ms
[OGL LOG] solve : 2382 ms
noneompGKOBiCGStab:  Solving for Ux, Initial residual = 0.169075, Final residual = 9.5655e-07, No Iterations 54
[OGL LOG] init_host_sparsity_pattern : 266 ms
[OGL LOG] matrix not stored update host matrix
[OGL LOG] update_host_mtx : 126 ms
[OGL LOG] matrix is not yet sorted, sorting host matrix
[OGL LOG] sort_host_mtx_sparsity_pattern : 198 ms
[OGL LOG] sort_host_mtx : 125 ms
[OGL LOG] init_preconditioner : 0 ms
[OGL LOG] solve : 2328 ms
noneompGKOBiCGStab:  Solving for Uy, Initial residual = 0.620181, Final residual = 9.76257e-07, No Iterations 53
[OGL LOG] init_host_sparsity_pattern : 270 ms
[OGL LOG] matrix not stored update host matrix
[OGL LOG] update_host_mtx : 126 ms
[OGL LOG] matrix is not yet sorted, sorting host matrix
[OGL LOG] sort_host_mtx_sparsity_pattern : 192 ms
[OGL LOG] sort_host_mtx : 125 ms
[OGL LOG] init_preconditioner : 0 ms
[OGL LOG] solve : 2497 ms
noneompGKOBiCGStab:  Solving for Uz, Initial residual = 0.646977, Final residual = 8.41616e-07, No Iterations 57
[OGL LOG] init_preconditioner : 0 ms
[OGL LOG] solve : 20112 ms
noneompGKOCG:  Solving for p, Initial residual = 0.798453, Final residual = 9.82481e-07, No Iterations 884
time step continuity errors : sum local = 9.99089e-10, global = 5.07695e-21, cumulative = -1.48007e-21
[OGL LOG] init_preconditioner : 0 ms
[OGL LOG] solve : 19640 ms
noneompGKOCG:  Solving for p, Initial residual = 0.738607, Final residual = 9.63708e-07, No Iterations 872
time step continuity errors : sum local = 1.00109e-09, global = -4.09605e-21, cumulative = -5.57612e-21
ExecutionTime = 201.19 s  ClockTime = 111 s

Time = 0.003

Courant Number mean: 0.0867389 max: 0.944826
[OGL LOG] init_host_sparsity_pattern : 266 ms
[OGL LOG] matrix not stored update host matrix
[OGL LOG] update_host_mtx : 137 ms
[OGL LOG] matrix is not yet sorted, sorting host matrix
[OGL LOG] sort_host_mtx_sparsity_pattern : 198 ms
[OGL LOG] sort_host_mtx : 124 ms
[OGL LOG] init_preconditioner : 0 ms
[OGL LOG] solve : 2022 ms
noneompGKOBiCGStab:  Solving for Ux, Initial residual = 0.102637, Final residual = 9.30605e-07, No Iterations 46
[OGL LOG] init_host_sparsity_pattern : 266 ms
[OGL LOG] matrix not stored update host matrix
[OGL LOG] update_host_mtx : 126 ms
[OGL LOG] matrix is not yet sorted, sorting host matrix
[OGL LOG] sort_host_mtx_sparsity_pattern : 191 ms
[OGL LOG] sort_host_mtx : 125 ms
[OGL LOG] init_preconditioner : 0 ms
[OGL LOG] solve : 2151 ms
noneompGKOBiCGStab:  Solving for Uy, Initial residual = 0.396947, Final residual = 7.55217e-07, No Iterations 49
[OGL LOG] init_host_sparsity_pattern : 266 ms
[OGL LOG] matrix not stored update host matrix
[OGL LOG] update_host_mtx : 132 ms
[OGL LOG] matrix is not yet sorted, sorting host matrix
[OGL LOG] sort_host_mtx_sparsity_pattern : 192 ms
[OGL LOG] sort_host_mtx : 124 ms
[OGL LOG] init_preconditioner : 0 ms
[OGL LOG] solve : 2281 ms
noneompGKOBiCGStab:  Solving for Uz, Initial residual = 1.00088, Final residual = 7.95377e-07, No Iterations 52
[OGL LOG] init_preconditioner : 0 ms
[OGL LOG] solve : 20138 ms
noneompGKOCG:  Solving for p, Initial residual = 0.832648, Final residual = 9.52493e-07, No Iterations 890
time step continuity errors : sum local = 9.17558e-10, global = 7.16561e-21, cumulative = 1.58949e-21
[OGL LOG] init_preconditioner : 0 ms
[OGL LOG] solve : 20060 ms
noneompGKOCG:  Solving for p, Initial residual = 0.802906, Final residual = 9.89567e-07, No Iterations 888
time step continuity errors : sum local = 9.29437e-10, global = 7.93088e-21, cumulative = 9.52038e-21
ExecutionTime = 297.66 s  ClockTime = 161 s

Time = 0.004

Courant Number mean: 0.0995266 max: 0.926352
[OGL LOG] init_host_sparsity_pattern : 266 ms
[OGL LOG] matrix not stored update host matrix
[OGL LOG] update_host_mtx : 133 ms
[OGL LOG] matrix is not yet sorted, sorting host matrix
[OGL LOG] sort_host_mtx_sparsity_pattern : 197 ms
[OGL LOG] sort_host_mtx : 124 ms
[OGL LOG] init_preconditioner : 0 ms
[OGL LOG] solve : 1894 ms
noneompGKOBiCGStab:  Solving for Ux, Initial residual = 0.0541604, Final residual = 8.50601e-07, No Iterations 43
[OGL LOG] init_host_sparsity_pattern : 266 ms
[OGL LOG] matrix not stored update host matrix
[OGL LOG] update_host_mtx : 126 ms
[OGL LOG] matrix is not yet sorted, sorting host matrix
[OGL LOG] sort_host_mtx_sparsity_pattern : 191 ms
[OGL LOG] sort_host_mtx : 124 ms
[OGL LOG] init_preconditioner : 0 ms
[OGL LOG] solve : 2152 ms
noneompGKOBiCGStab:  Solving for Uy, Initial residual = 0.255021, Final residual = 5.18626e-07, No Iterations 49
[OGL LOG] init_host_sparsity_pattern : 266 ms
[OGL LOG] matrix not stored update host matrix
[OGL LOG] update_host_mtx : 126 ms
[OGL LOG] matrix is not yet sorted, sorting host matrix
[OGL LOG] sort_host_mtx_sparsity_pattern : 191 ms
[OGL LOG] sort_host_mtx : 124 ms
[OGL LOG] init_preconditioner : 0 ms
[OGL LOG] solve : 2224 ms
noneompGKOBiCGStab:  Solving for Uz, Initial residual = 0.873032, Final residual = 7.26148e-07, No Iterations 51
[OGL LOG] init_preconditioner : 0 ms
[OGL LOG] solve : 20110 ms
noneompGKOCG:  Solving for p, Initial residual = 0.750171, Final residual = 9.60458e-07, No Iterations 889
time step continuity errors : sum local = 8.54675e-10, global = 8.18602e-21, cumulative = 1.77064e-20
[OGL LOG] init_preconditioner : 0 ms
[OGL LOG] solve : 19909 ms
noneompGKOCG:  Solving for p, Initial residual = 0.685317, Final residual = 9.91872e-07, No Iterations 886
time step continuity errors : sum local = 8.99332e-10, global = 2.87485e-21, cumulative = 2.05812e-20
ExecutionTime = 393.35 s  ClockTime = 211 s

Time = 0.005

Courant Number mean: 0.112163 max: 0.946348
[OGL LOG] init_host_sparsity_pattern : 266 ms
[OGL LOG] matrix not stored update host matrix
[OGL LOG] update_host_mtx : 134 ms
[OGL LOG] matrix is not yet sorted, sorting host matrix
[OGL LOG] sort_host_mtx_sparsity_pattern : 198 ms
[OGL LOG] sort_host_mtx : 124 ms
[OGL LOG] init_preconditioner : 0 ms
[OGL LOG] solve : 1916 ms
noneompGKOBiCGStab:  Solving for Ux, Initial residual = 0.0411815, Final residual = 6.96695e-07, No Iterations 44
[OGL LOG] init_host_sparsity_pattern : 266 ms
[OGL LOG] matrix not stored update host matrix
[OGL LOG] update_host_mtx : 126 ms
[OGL LOG] matrix is not yet sorted, sorting host matrix
[OGL LOG] sort_host_mtx_sparsity_pattern : 192 ms
[OGL LOG] sort_host_mtx : 124 ms
[OGL LOG] init_preconditioner : 0 ms
[OGL LOG] solve : 2047 ms
noneompGKOBiCGStab:  Solving for Uy, Initial residual = 0.13186, Final residual = 9.50446e-07, No Iterations 47
[OGL LOG] init_host_sparsity_pattern : 266 ms
[OGL LOG] matrix not stored update host matrix
[OGL LOG] update_host_mtx : 126 ms
[OGL LOG] matrix is not yet sorted, sorting host matrix
[OGL LOG] sort_host_mtx_sparsity_pattern : 192 ms
[OGL LOG] sort_host_mtx : 124 ms
[OGL LOG] init_preconditioner : 0 ms
[OGL LOG] solve : 2321 ms
noneompGKOBiCGStab:  Solving for Uz, Initial residual = 0.871824, Final residual = 9.26367e-07, No Iterations 53
[OGL LOG] init_preconditioner : 0 ms
[OGL LOG] solve : 20216 ms
noneompGKOCG:  Solving for p, Initial residual = 0.760003, Final residual = 9.99988e-07, No Iterations 895
time step continuity errors : sum local = 7.56108e-10, global = 4.36849e-21, cumulative = 2.49497e-20
[OGL LOG] init_preconditioner : 0 ms
[OGL LOG] solve : 20113 ms
noneompGKOCG:  Solving for p, Initial residual = 0.713347, Final residual = 9.75696e-07, No Iterations 894
time step continuity errors : sum local = 7.25965e-10, global = -4.83089e-21, cumulative = 2.01188e-20
ExecutionTime = 489.71 s  ClockTime = 261 s

End

