/*---------------------------------------------------------------------------*\
  =========                 |
  \\      /  F ield         | OpenFOAM: The Open Source CFD Toolbox
   \\    /   O peration     | Website:  https://openfoam.org
    \\  /    A nd           | Version:  8
     \\/     M anipulation  |
\*---------------------------------------------------------------------------*/
Build  : 8-13d66902f78c
Exec   : icoFoam
Date   : Jul 14 2021
Time   : 01:24:56
Host   : "uc2n399.localdomain"
PID    : 4096158
I/O    : uncollated
Case   : /pfs/data5/home/kit/scc/nq7776/code/OGL_DATA/lidDrivenCavity3D/v0.1-136-g40fef35/f584ccac99/IntelXeonGold6230CPU@2.10GHz/Test_2021-07-14-01:16:21/50/p-U-BiCGStab-GKO-none-omp/lidDrivenCavity3D
nProcs : 1
sigFpe : Enabling floating point exception trapping (FOAM_SIGFPE).
fileModificationChecking : Monitoring run-time modified files using timeStampMaster (fileModificationSkew 10)
allowSystemOperations : Allowing user-supplied system call operations

// * * * * * * * * * * * * * * * * * * * * * * * * * * * * * * * * * * * * * //
Create time

Create mesh for time = 0

Reading transportProperties

Reading field p

Reading field U

Reading/calculating face flux field phi


Starting time loop

Time = 0.002

Courant Number mean: 0 max: 0
[OGL LOG] init_host_sparsity_pattern : 36 ms
[OGL LOG] matrix not stored update host matrix
[OGL LOG] update_host_mtx : 18 ms
[OGL LOG] matrix is not yet sorted, compute sorting idxs
[OGL LOG] compute_sort : 906 ms
[OGL LOG] matrix is not yet sorted, sorting host matrix
[OGL LOG] sort_host_mtx_sparsity_pattern : 23 ms
[OGL LOG] sort_host_mtx : 15 ms
[OGL LOG] init_preconditioner : 0 ms
[OGL LOG] solve : 325 ms
noneompGKOBiCGStab:  Solving for Ux, Initial residual = 1, Final residual = 8.43389e-07, No Iterations 41
[OGL LOG] init_host_sparsity_pattern : 34 ms
[OGL LOG] matrix not stored update host matrix
[OGL LOG] update_host_mtx : 17 ms
[OGL LOG] matrix is not yet sorted, sorting host matrix
[OGL LOG] sort_host_mtx_sparsity_pattern : 23 ms
[OGL LOG] sort_host_mtx : 12 ms
[OGL LOG] init_preconditioner : 0 ms
[OGL LOG] solve : 10 ms
noneompGKOBiCGStab:  Solving for Uy, Initial residual = 0, Final residual = 0, No Iterations 0
[OGL LOG] init_host_sparsity_pattern : 33 ms
[OGL LOG] matrix not stored update host matrix
[OGL LOG] update_host_mtx : 15 ms
[OGL LOG] matrix is not yet sorted, sorting host matrix
[OGL LOG] sort_host_mtx_sparsity_pattern : 23 ms
[OGL LOG] sort_host_mtx : 12 ms
[OGL LOG] init_preconditioner : 0 ms
[OGL LOG] solve : 8 ms
noneompGKOBiCGStab:  Solving for Uz, Initial residual = 0, Final residual = 0, No Iterations 0
[OGL LOG] init_host_sparsity_pattern : 32 ms
[OGL LOG] matrix not stored update host matrix
[OGL LOG] update_host_mtx : 18 ms
[OGL LOG] matrix is not yet sorted, sorting host matrix
[OGL LOG] sort_host_mtx_sparsity_pattern : 22 ms
[OGL LOG] sort_host_mtx : 14 ms
[OGL LOG] init_preconditioner : 0 ms
[OGL LOG] solve : 2713 ms
noneompGKOBiCGStab:  Solving for p, Initial residual = 1, Final residual = 9.59251e-07, No Iterations 350
time step continuity errors : sum local = 3.55352e-09, global = -7.3496e-21, cumulative = -7.3496e-21
[OGL LOG] init_preconditioner : 0 ms
[OGL LOG] solve : 2688 ms
noneompGKOBiCGStab:  Solving for p, Initial residual = 0.721586, Final residual = 9.67359e-07, No Iterations 349
time step continuity errors : sum local = 5.57384e-09, global = -2.35871e-20, cumulative = -3.09367e-20
ExecutionTime = 7.61 s  ClockTime = 8 s

Time = 0.004

Courant Number mean: 0.0720722 max: 0.726639
[OGL LOG] init_host_sparsity_pattern : 33 ms
[OGL LOG] matrix not stored update host matrix
[OGL LOG] update_host_mtx : 15 ms
[OGL LOG] matrix is not yet sorted, sorting host matrix
[OGL LOG] sort_host_mtx_sparsity_pattern : 21 ms
[OGL LOG] sort_host_mtx : 12 ms
[OGL LOG] init_preconditioner : 0 ms
[OGL LOG] solve : 292 ms
noneompGKOBiCGStab:  Solving for Ux, Initial residual = 0.203468, Final residual = 8.76412e-07, No Iterations 37
[OGL LOG] init_host_sparsity_pattern : 33 ms
[OGL LOG] matrix not stored update host matrix
[OGL LOG] update_host_mtx : 15 ms
[OGL LOG] matrix is not yet sorted, sorting host matrix
[OGL LOG] sort_host_mtx_sparsity_pattern : 21 ms
[OGL LOG] sort_host_mtx : 12 ms
[OGL LOG] init_preconditioner : 0 ms
[OGL LOG] solve : 292 ms
noneompGKOBiCGStab:  Solving for Uy, Initial residual = 0.618428, Final residual = 9.08573e-07, No Iterations 37
[OGL LOG] init_host_sparsity_pattern : 33 ms
[OGL LOG] matrix not stored update host matrix
[OGL LOG] update_host_mtx : 15 ms
[OGL LOG] matrix is not yet sorted, sorting host matrix
[OGL LOG] sort_host_mtx_sparsity_pattern : 21 ms
[OGL LOG] sort_host_mtx : 12 ms
[OGL LOG] init_preconditioner : 0 ms
[OGL LOG] solve : 300 ms
noneompGKOBiCGStab:  Solving for Uz, Initial residual = 0.536425, Final residual = 8.68281e-07, No Iterations 38
[OGL LOG] init_preconditioner : 0 ms
[OGL LOG] solve : 2692 ms
noneompGKOBiCGStab:  Solving for p, Initial residual = 0.673317, Final residual = 7.89309e-07, No Iterations 349
time step continuity errors : sum local = 4.83969e-07, global = -9.93858e-21, cumulative = -4.08753e-20
[OGL LOG] init_preconditioner : 0 ms
[OGL LOG] solve : 2589 ms
noneompGKOBiCGStab:  Solving for p, Initial residual = 0.59875, Final residual = 7.09986e-07, No Iterations 336
time step continuity errors : sum local = 1.97557e-08, global = -2.68366e-20, cumulative = -6.77119e-20
ExecutionTime = 14.12 s  ClockTime = 14 s

Time = 0.006

Courant Number mean: 0.107408 max: 0.881755
[OGL LOG] init_host_sparsity_pattern : 33 ms
[OGL LOG] matrix not stored update host matrix
[OGL LOG] update_host_mtx : 15 ms
[OGL LOG] matrix is not yet sorted, sorting host matrix
[OGL LOG] sort_host_mtx_sparsity_pattern : 22 ms
[OGL LOG] sort_host_mtx : 12 ms
[OGL LOG] init_preconditioner : 0 ms
[OGL LOG] solve : 275 ms
noneompGKOBiCGStab:  Solving for Ux, Initial residual = 0.0994614, Final residual = 9.59209e-07, No Iterations 35
[OGL LOG] init_host_sparsity_pattern : 33 ms
[OGL LOG] matrix not stored update host matrix
[OGL LOG] update_host_mtx : 15 ms
[OGL LOG] matrix is not yet sorted, sorting host matrix
[OGL LOG] sort_host_mtx_sparsity_pattern : 22 ms
[OGL LOG] sort_host_mtx : 12 ms
[OGL LOG] init_preconditioner : 0 ms
[OGL LOG] solve : 286 ms
noneompGKOBiCGStab:  Solving for Uy, Initial residual = 0.250364, Final residual = 7.32064e-07, No Iterations 36
[OGL LOG] init_host_sparsity_pattern : 33 ms
[OGL LOG] matrix not stored update host matrix
[OGL LOG] update_host_mtx : 15 ms
[OGL LOG] matrix is not yet sorted, sorting host matrix
[OGL LOG] sort_host_mtx_sparsity_pattern : 22 ms
[OGL LOG] sort_host_mtx : 12 ms
[OGL LOG] init_preconditioner : 0 ms
[OGL LOG] solve : 316 ms
noneompGKOBiCGStab:  Solving for Uz, Initial residual = 0.544227, Final residual = 9.49532e-07, No Iterations 40
[OGL LOG] init_preconditioner : 0 ms
[OGL LOG] solve : 2533 ms
noneompGKOBiCGStab:  Solving for p, Initial residual = 0.607072, Final residual = 6.66043e-07, No Iterations 329
time step continuity errors : sum local = 2.83397e-08, global = -1.94709e-20, cumulative = -8.71827e-20
[OGL LOG] init_preconditioner : 0 ms
[OGL LOG] solve : 2730 ms
noneompGKOBiCGStab:  Solving for p, Initial residual = 0.561056, Final residual = 7.87421e-07, No Iterations 353
time step continuity errors : sum local = 5.53107e-09, global = 2.17518e-20, cumulative = -6.5431e-20
ExecutionTime = 20.62 s  ClockTime = 21 s

Time = 0.008

Courant Number mean: 0.123249 max: 0.890125
[OGL LOG] init_host_sparsity_pattern : 33 ms
[OGL LOG] matrix not stored update host matrix
[OGL LOG] update_host_mtx : 15 ms
[OGL LOG] matrix is not yet sorted, sorting host matrix
[OGL LOG] sort_host_mtx_sparsity_pattern : 21 ms
[OGL LOG] sort_host_mtx : 12 ms
[OGL LOG] init_preconditioner : 0 ms
[OGL LOG] solve : 246 ms
noneompGKOBiCGStab:  Solving for Ux, Initial residual = 0.0340962, Final residual = 8.38899e-07, No Iterations 31
[OGL LOG] init_host_sparsity_pattern : 33 ms
[OGL LOG] matrix not stored update host matrix
[OGL LOG] update_host_mtx : 15 ms
[OGL LOG] matrix is not yet sorted, sorting host matrix
[OGL LOG] sort_host_mtx_sparsity_pattern : 21 ms
[OGL LOG] sort_host_mtx : 12 ms
[OGL LOG] init_preconditioner : 0 ms
[OGL LOG] solve : 257 ms
noneompGKOBiCGStab:  Solving for Uy, Initial residual = 0.132605, Final residual = 9.55787e-07, No Iterations 33
[OGL LOG] init_host_sparsity_pattern : 33 ms
[OGL LOG] matrix not stored update host matrix
[OGL LOG] update_host_mtx : 15 ms
[OGL LOG] matrix is not yet sorted, sorting host matrix
[OGL LOG] sort_host_mtx_sparsity_pattern : 21 ms
[OGL LOG] sort_host_mtx : 12 ms
[OGL LOG] init_preconditioner : 0 ms
[OGL LOG] solve : 298 ms
noneompGKOBiCGStab:  Solving for Uz, Initial residual = 0.482172, Final residual = 9.94186e-07, No Iterations 38
[OGL LOG] init_preconditioner : 0 ms
[OGL LOG] solve : 2661 ms
noneompGKOBiCGStab:  Solving for p, Initial residual = 0.423139, Final residual = 9.14095e-07, No Iterations 344
time step continuity errors : sum local = 5.03373e-09, global = -1.05336e-20, cumulative = -7.59645e-20
[OGL LOG] init_preconditioner : 0 ms
[OGL LOG] solve : 2688 ms
noneompGKOBiCGStab:  Solving for p, Initial residual = 0.368342, Final residual = 3.27229e-07, No Iterations 346
time step continuity errors : sum local = 2.16684e-08, global = 7.44636e-21, cumulative = -6.85182e-20
ExecutionTime = 27.11 s  ClockTime = 27 s

Time = 0.01

Courant Number mean: 0.136096 max: 0.906941
[OGL LOG] init_host_sparsity_pattern : 33 ms
[OGL LOG] matrix not stored update host matrix
[OGL LOG] update_host_mtx : 15 ms
[OGL LOG] matrix is not yet sorted, sorting host matrix
[OGL LOG] sort_host_mtx_sparsity_pattern : 21 ms
[OGL LOG] sort_host_mtx : 12 ms
[OGL LOG] init_preconditioner : 0 ms
[OGL LOG] solve : 241 ms
noneompGKOBiCGStab:  Solving for Ux, Initial residual = 0.0231119, Final residual = 7.76315e-07, No Iterations 30
[OGL LOG] init_host_sparsity_pattern : 33 ms
[OGL LOG] matrix not stored update host matrix
[OGL LOG] update_host_mtx : 15 ms
[OGL LOG] matrix is not yet sorted, sorting host matrix
[OGL LOG] sort_host_mtx_sparsity_pattern : 21 ms
[OGL LOG] sort_host_mtx : 12 ms
[OGL LOG] init_preconditioner : 0 ms
[OGL LOG] solve : 257 ms
noneompGKOBiCGStab:  Solving for Uy, Initial residual = 0.0484039, Final residual = 8.19053e-07, No Iterations 32
[OGL LOG] init_host_sparsity_pattern : 33 ms
[OGL LOG] matrix not stored update host matrix
[OGL LOG] update_host_mtx : 15 ms
[OGL LOG] matrix is not yet sorted, sorting host matrix
[OGL LOG] sort_host_mtx_sparsity_pattern : 21 ms
[OGL LOG] sort_host_mtx : 12 ms
[OGL LOG] init_preconditioner : 0 ms
[OGL LOG] solve : 276 ms
noneompGKOBiCGStab:  Solving for Uz, Initial residual = 0.165649, Final residual = 6.34021e-07, No Iterations 35
[OGL LOG] init_preconditioner : 0 ms
[OGL LOG] solve : 3098 ms
noneompGKOBiCGStab:  Solving for p, Initial residual = 0.36182, Final residual = 8.04801e-07, No Iterations 398
time step continuity errors : sum local = 1.69494e-08, global = 1.12658e-20, cumulative = -5.72524e-20
[OGL LOG] init_preconditioner : 0 ms
[OGL LOG] solve : 3179 ms
noneompGKOBiCGStab:  Solving for p, Initial residual = 0.333396, Final residual = 9.2036e-07, No Iterations 408
time step continuity errors : sum local = 4.55609e-08, global = -1.96161e-20, cumulative = -7.68685e-20
ExecutionTime = 34.5 s  ClockTime = 35 s

End

