/*---------------------------------------------------------------------------*\
  =========                 |
  \\      /  F ield         | OpenFOAM: The Open Source CFD Toolbox
   \\    /   O peration     | Website:  https://openfoam.org
    \\  /    A nd           | Version:  8
     \\/     M anipulation  |
\*---------------------------------------------------------------------------*/
Build  : 8-13d66902f78c
Exec   : icoFoam
Date   : Jul 14 2021
Time   : 02:47:49
Host   : "uc2n553.localdomain"
PID    : 761821
I/O    : uncollated
Case   : /pfs/data5/home/kit/scc/nq7776/code/OGL_DATA/lidDrivenCavity3D/v0.1-136-g40fef35/f584ccac99/IntelXeonGold6230CPU@2.10GHz/Test_2021-07-14-00:17:39/100/p-U-CG-GKO-none-omp/lidDrivenCavity3D
nProcs : 1
sigFpe : Enabling floating point exception trapping (FOAM_SIGFPE).
fileModificationChecking : Monitoring run-time modified files using timeStampMaster (fileModificationSkew 10)
allowSystemOperations : Allowing user-supplied system call operations

// * * * * * * * * * * * * * * * * * * * * * * * * * * * * * * * * * * * * * //
Create time

Create mesh for time = 0

Reading transportProperties

Reading field p

Reading field U

Reading/calculating face flux field phi


Starting time loop

Time = 0.001

Courant Number mean: 0 max: 0
[OGL LOG] init_host_sparsity_pattern : 290 ms
[OGL LOG] matrix not stored update host matrix
[OGL LOG] update_host_mtx : 146 ms
[OGL LOG] matrix is not yet sorted, compute sorting idxs
[OGL LOG] compute_sort : 8327 ms
[OGL LOG] matrix is not yet sorted, sorting host matrix
[OGL LOG] sort_host_mtx_sparsity_pattern : 184 ms
[OGL LOG] sort_host_mtx : 123 ms
[OGL LOG] init_preconditioner : 0 ms
[OGL LOG] solve : 1401 ms
noneompGKOBiCGStab:  Solving for Ux, Initial residual = 1, Final residual = 8.92714e-07, No Iterations 56
[OGL LOG] init_host_sparsity_pattern : 287 ms
[OGL LOG] matrix not stored update host matrix
[OGL LOG] update_host_mtx : 153 ms
[OGL LOG] matrix is not yet sorted, sorting host matrix
[OGL LOG] sort_host_mtx_sparsity_pattern : 202 ms
[OGL LOG] sort_host_mtx : 124 ms
[OGL LOG] init_preconditioner : 0 ms
[OGL LOG] solve : 36 ms
noneompGKOBiCGStab:  Solving for Uy, Initial residual = 0, Final residual = 0, No Iterations 0
[OGL LOG] init_host_sparsity_pattern : 266 ms
[OGL LOG] matrix not stored update host matrix
[OGL LOG] update_host_mtx : 152 ms
[OGL LOG] matrix is not yet sorted, sorting host matrix
[OGL LOG] sort_host_mtx_sparsity_pattern : 193 ms
[OGL LOG] sort_host_mtx : 124 ms
[OGL LOG] init_preconditioner : 0 ms
[OGL LOG] solve : 34 ms
noneompGKOBiCGStab:  Solving for Uz, Initial residual = 0, Final residual = 0, No Iterations 0
[OGL LOG] init_host_sparsity_pattern : 289 ms
[OGL LOG] matrix not stored update host matrix
[OGL LOG] update_host_mtx : 152 ms
[OGL LOG] matrix is not yet sorted, sorting host matrix
[OGL LOG] sort_host_mtx_sparsity_pattern : 207 ms
[OGL LOG] sort_host_mtx : 125 ms
[OGL LOG] init_preconditioner : 0 ms
[OGL LOG] solve : 9996 ms
noneompGKOCG:  Solving for p, Initial residual = 1, Final residual = 9.84208e-07, No Iterations 900
time step continuity errors : sum local = 5.90082e-10, global = -8.95303e-21, cumulative = -8.95303e-21
[OGL LOG] init_preconditioner : 0 ms
[OGL LOG] solve : 10195 ms
noneompGKOCG:  Solving for p, Initial residual = 0.783585, Final residual = 9.5502e-07, No Iterations 893
time step continuity errors : sum local = 7.1584e-10, global = 7.31783e-21, cumulative = -1.6352e-21
ExecutionTime = 361.77 s  ClockTime = 38 s

Time = 0.002

Courant Number mean: 0.0571435 max: 0.804774
[OGL LOG] init_host_sparsity_pattern : 266 ms
[OGL LOG] matrix not stored update host matrix
[OGL LOG] update_host_mtx : 136 ms
[OGL LOG] matrix is not yet sorted, sorting host matrix
[OGL LOG] sort_host_mtx_sparsity_pattern : 199 ms
[OGL LOG] sort_host_mtx : 126 ms
[OGL LOG] init_preconditioner : 0 ms
[OGL LOG] solve : 1282 ms
noneompGKOBiCGStab:  Solving for Ux, Initial residual = 0.169075, Final residual = 5.6465e-07, No Iterations 54
[OGL LOG] init_host_sparsity_pattern : 277 ms
[OGL LOG] matrix not stored update host matrix
[OGL LOG] update_host_mtx : 158 ms
[OGL LOG] matrix is not yet sorted, sorting host matrix
[OGL LOG] sort_host_mtx_sparsity_pattern : 192 ms
[OGL LOG] sort_host_mtx : 124 ms
[OGL LOG] init_preconditioner : 0 ms
[OGL LOG] solve : 1241 ms
noneompGKOBiCGStab:  Solving for Uy, Initial residual = 0.620181, Final residual = 9.74724e-07, No Iterations 54
[OGL LOG] init_host_sparsity_pattern : 271 ms
[OGL LOG] matrix not stored update host matrix
[OGL LOG] update_host_mtx : 131 ms
[OGL LOG] matrix is not yet sorted, sorting host matrix
[OGL LOG] sort_host_mtx_sparsity_pattern : 199 ms
[OGL LOG] sort_host_mtx : 124 ms
[OGL LOG] init_preconditioner : 0 ms
[OGL LOG] solve : 1382 ms
noneompGKOBiCGStab:  Solving for Uz, Initial residual = 0.646977, Final residual = 9.30435e-07, No Iterations 59
[OGL LOG] init_preconditioner : 0 ms
[OGL LOG] solve : 10260 ms
noneompGKOCG:  Solving for p, Initial residual = 0.798451, Final residual = 9.80503e-07, No Iterations 884
time step continuity errors : sum local = 9.9707e-10, global = 6.4803e-22, cumulative = -9.8717e-22
[OGL LOG] init_preconditioner : 0 ms
[OGL LOG] solve : 10080 ms
noneompGKOCG:  Solving for p, Initial residual = 0.738605, Final residual = 9.64518e-07, No Iterations 872
time step continuity errors : sum local = 1.00192e-09, global = 6.64157e-22, cumulative = -3.23013e-22
ExecutionTime = 752.12 s  ClockTime = 66 s

Time = 0.003

Courant Number mean: 0.0867391 max: 0.944826
[OGL LOG] init_host_sparsity_pattern : 266 ms
[OGL LOG] matrix not stored update host matrix
[OGL LOG] update_host_mtx : 126 ms
[OGL LOG] matrix is not yet sorted, sorting host matrix
[OGL LOG] sort_host_mtx_sparsity_pattern : 198 ms
[OGL LOG] sort_host_mtx : 124 ms
[OGL LOG] init_preconditioner : 0 ms
[OGL LOG] solve : 1096 ms
noneompGKOBiCGStab:  Solving for Ux, Initial residual = 0.102638, Final residual = 6.13329e-07, No Iterations 46
[OGL LOG] init_host_sparsity_pattern : 276 ms
[OGL LOG] matrix not stored update host matrix
[OGL LOG] update_host_mtx : 148 ms
[OGL LOG] matrix is not yet sorted, sorting host matrix
[OGL LOG] sort_host_mtx_sparsity_pattern : 200 ms
[OGL LOG] sort_host_mtx : 124 ms
[OGL LOG] init_preconditioner : 0 ms
[OGL LOG] solve : 1315 ms
noneompGKOBiCGStab:  Solving for Uy, Initial residual = 0.396946, Final residual = 9.53622e-07, No Iterations 52
[OGL LOG] init_host_sparsity_pattern : 266 ms
[OGL LOG] matrix not stored update host matrix
[OGL LOG] update_host_mtx : 126 ms
[OGL LOG] matrix is not yet sorted, sorting host matrix
[OGL LOG] sort_host_mtx_sparsity_pattern : 193 ms
[OGL LOG] sort_host_mtx : 124 ms
[OGL LOG] init_preconditioner : 0 ms
[OGL LOG] solve : 1275 ms
noneompGKOBiCGStab:  Solving for Uz, Initial residual = 1.00087, Final residual = 6.93608e-07, No Iterations 55
[OGL LOG] init_preconditioner : 0 ms
[OGL LOG] solve : 10316 ms
noneompGKOCG:  Solving for p, Initial residual = 0.832647, Final residual = 9.52631e-07, No Iterations 890
time step continuity errors : sum local = 9.17688e-10, global = 1.40537e-20, cumulative = 1.37307e-20
[OGL LOG] init_preconditioner : 0 ms
[OGL LOG] solve : 9802 ms
noneompGKOCG:  Solving for p, Initial residual = 0.802906, Final residual = 9.96416e-07, No Iterations 888
time step continuity errors : sum local = 9.35867e-10, global = 5.11494e-21, cumulative = 1.88456e-20
ExecutionTime = 1135.15 s  ClockTime = 93 s

Time = 0.004

Courant Number mean: 0.0995268 max: 0.926351
[OGL LOG] init_host_sparsity_pattern : 278 ms
[OGL LOG] matrix not stored update host matrix
[OGL LOG] update_host_mtx : 146 ms
[OGL LOG] matrix is not yet sorted, sorting host matrix
[OGL LOG] sort_host_mtx_sparsity_pattern : 201 ms
[OGL LOG] sort_host_mtx : 124 ms
[OGL LOG] init_preconditioner : 0 ms
[OGL LOG] solve : 1162 ms
noneompGKOBiCGStab:  Solving for Ux, Initial residual = 0.0541607, Final residual = 9.41855e-07, No Iterations 44
[OGL LOG] init_host_sparsity_pattern : 300 ms
[OGL LOG] matrix not stored update host matrix
[OGL LOG] update_host_mtx : 173 ms
[OGL LOG] matrix is not yet sorted, sorting host matrix
[OGL LOG] sort_host_mtx_sparsity_pattern : 215 ms
[OGL LOG] sort_host_mtx : 125 ms
[OGL LOG] init_preconditioner : 0 ms
[OGL LOG] solve : 1361 ms
noneompGKOBiCGStab:  Solving for Uy, Initial residual = 0.25502, Final residual = 9.57041e-07, No Iterations 51
[OGL LOG] init_host_sparsity_pattern : 289 ms
[OGL LOG] matrix not stored update host matrix
[OGL LOG] update_host_mtx : 149 ms
[OGL LOG] matrix is not yet sorted, sorting host matrix
[OGL LOG] sort_host_mtx_sparsity_pattern : 226 ms
[OGL LOG] sort_host_mtx : 128 ms
[OGL LOG] init_preconditioner : 0 ms
[OGL LOG] solve : 1303 ms
noneompGKOBiCGStab:  Solving for Uz, Initial residual = 0.87302, Final residual = 5.88723e-07, No Iterations 51
[OGL LOG] init_preconditioner : 0 ms
[OGL LOG] solve : 10082 ms
noneompGKOCG:  Solving for p, Initial residual = 0.75017, Final residual = 9.60825e-07, No Iterations 889
time step continuity errors : sum local = 8.54999e-10, global = 1.01102e-20, cumulative = 2.89558e-20
[OGL LOG] init_preconditioner : 0 ms
[OGL LOG] solve : 9413 ms
noneompGKOCG:  Solving for p, Initial residual = 0.685316, Final residual = 9.93591e-07, No Iterations 886
time step continuity errors : sum local = 9.00888e-10, global = 2.47839e-20, cumulative = 5.37397e-20
ExecutionTime = 1510.04 s  ClockTime = 121 s

Time = 0.005

Courant Number mean: 0.112163 max: 0.946348
[OGL LOG] init_host_sparsity_pattern : 266 ms
[OGL LOG] matrix not stored update host matrix
[OGL LOG] update_host_mtx : 134 ms
[OGL LOG] matrix is not yet sorted, sorting host matrix
[OGL LOG] sort_host_mtx_sparsity_pattern : 199 ms
[OGL LOG] sort_host_mtx : 124 ms
[OGL LOG] init_preconditioner : 0 ms
[OGL LOG] solve : 1056 ms
noneompGKOBiCGStab:  Solving for Ux, Initial residual = 0.0411812, Final residual = 8.55161e-07, No Iterations 45
[OGL LOG] init_host_sparsity_pattern : 267 ms
[OGL LOG] matrix not stored update host matrix
[OGL LOG] update_host_mtx : 131 ms
[OGL LOG] matrix is not yet sorted, sorting host matrix
[OGL LOG] sort_host_mtx_sparsity_pattern : 193 ms
[OGL LOG] sort_host_mtx : 124 ms
[OGL LOG] init_preconditioner : 0 ms
[OGL LOG] solve : 1134 ms
noneompGKOBiCGStab:  Solving for Uy, Initial residual = 0.131858, Final residual = 8.87736e-07, No Iterations 46
[OGL LOG] init_host_sparsity_pattern : 277 ms
[OGL LOG] matrix not stored update host matrix
[OGL LOG] update_host_mtx : 158 ms
[OGL LOG] matrix is not yet sorted, sorting host matrix
[OGL LOG] sort_host_mtx_sparsity_pattern : 212 ms
[OGL LOG] sort_host_mtx : 124 ms
[OGL LOG] init_preconditioner : 0 ms
[OGL LOG] solve : 1236 ms
noneompGKOBiCGStab:  Solving for Uz, Initial residual = 0.871797, Final residual = 5.66762e-07, No Iterations 53
[OGL LOG] init_preconditioner : 0 ms
[OGL LOG] solve : 10055 ms
noneompGKOCG:  Solving for p, Initial residual = 0.760002, Final residual = 9.48848e-07, No Iterations 896
time step continuity errors : sum local = 7.17436e-10, global = 9.18966e-21, cumulative = 6.29294e-20
[OGL LOG] init_preconditioner : 0 ms
[OGL LOG] solve : 9440 ms
noneompGKOCG:  Solving for p, Initial residual = 0.713347, Final residual = 9.79376e-07, No Iterations 894
time step continuity errors : sum local = 7.287e-10, global = -4.30029e-21, cumulative = 5.86291e-20
ExecutionTime = 1879.37 s  ClockTime = 147 s

End

