/*---------------------------------------------------------------------------*\
  =========                 |
  \\      /  F ield         | OpenFOAM: The Open Source CFD Toolbox
   \\    /   O peration     | Website:  https://openfoam.org
    \\  /    A nd           | Version:  8
     \\/     M anipulation  |
\*---------------------------------------------------------------------------*/
Build  : 8-13d66902f78c
Exec   : icoFoam
Date   : Jul 14 2021
Time   : 00:30:37
Host   : "uc2n553.localdomain"
PID    : 751702
I/O    : uncollated
Case   : /pfs/data5/home/kit/scc/nq7776/code/OGL_DATA/lidDrivenCavity3D/v0.1-136-g40fef35/f584ccac99/IntelXeonGold6230CPU@2.10GHz/Test_2021-07-14-00:17:39/50/p-U-CG-GKO-none-omp/lidDrivenCavity3D
nProcs : 1
sigFpe : Enabling floating point exception trapping (FOAM_SIGFPE).
fileModificationChecking : Monitoring run-time modified files using timeStampMaster (fileModificationSkew 10)
allowSystemOperations : Allowing user-supplied system call operations

// * * * * * * * * * * * * * * * * * * * * * * * * * * * * * * * * * * * * * //
Create time

Create mesh for time = 0

Reading transportProperties

Reading field p

Reading field U

Reading/calculating face flux field phi


Starting time loop

Time = 0.002

Courant Number mean: 0 max: 0
[OGL LOG] init_host_sparsity_pattern : 35 ms
[OGL LOG] matrix not stored update host matrix
[OGL LOG] update_host_mtx : 18 ms
[OGL LOG] matrix is not yet sorted, compute sorting idxs
[OGL LOG] compute_sort : 909 ms
[OGL LOG] matrix is not yet sorted, sorting host matrix
[OGL LOG] sort_host_mtx_sparsity_pattern : 23 ms
[OGL LOG] sort_host_mtx : 14 ms
[OGL LOG] init_preconditioner : 0 ms
[OGL LOG] solve : 117 ms
noneompGKOBiCGStab:  Solving for Ux, Initial residual = 1, Final residual = 8.43389e-07, No Iterations 41
[OGL LOG] init_host_sparsity_pattern : 34 ms
[OGL LOG] matrix not stored update host matrix
[OGL LOG] update_host_mtx : 18 ms
[OGL LOG] matrix is not yet sorted, sorting host matrix
[OGL LOG] sort_host_mtx_sparsity_pattern : 23 ms
[OGL LOG] sort_host_mtx : 12 ms
[OGL LOG] init_preconditioner : 0 ms
[OGL LOG] solve : 3 ms
noneompGKOBiCGStab:  Solving for Uy, Initial residual = 0, Final residual = 0, No Iterations 0
[OGL LOG] init_host_sparsity_pattern : 33 ms
[OGL LOG] matrix not stored update host matrix
[OGL LOG] update_host_mtx : 15 ms
[OGL LOG] matrix is not yet sorted, sorting host matrix
[OGL LOG] sort_host_mtx_sparsity_pattern : 23 ms
[OGL LOG] sort_host_mtx : 12 ms
[OGL LOG] init_preconditioner : 0 ms
[OGL LOG] solve : 3 ms
noneompGKOBiCGStab:  Solving for Uz, Initial residual = 0, Final residual = 0, No Iterations 0
[OGL LOG] init_host_sparsity_pattern : 33 ms
[OGL LOG] matrix not stored update host matrix
[OGL LOG] update_host_mtx : 18 ms
[OGL LOG] matrix is not yet sorted, sorting host matrix
[OGL LOG] sort_host_mtx_sparsity_pattern : 22 ms
[OGL LOG] sort_host_mtx : 13 ms
[OGL LOG] init_preconditioner : 0 ms
[OGL LOG] solve : 679 ms
noneompGKOCG:  Solving for p, Initial residual = 1, Final residual = 9.02143e-07, No Iterations 444
time step continuity errors : sum local = 1.48545e-09, global = 2.32509e-21, cumulative = 2.32509e-21
[OGL LOG] init_preconditioner : 0 ms
[OGL LOG] solve : 686 ms
noneompGKOCG:  Solving for p, Initial residual = 0.721583, Final residual = 9.39974e-07, No Iterations 440
time step continuity errors : sum local = 2.0521e-09, global = 1.79942e-20, cumulative = 2.03192e-20
ExecutionTime = 14.04 s  ClockTime = 3 s

Time = 0.004

Courant Number mean: 0.0720722 max: 0.726639
[OGL LOG] init_host_sparsity_pattern : 33 ms
[OGL LOG] matrix not stored update host matrix
[OGL LOG] update_host_mtx : 20 ms
[OGL LOG] matrix is not yet sorted, sorting host matrix
[OGL LOG] sort_host_mtx_sparsity_pattern : 27 ms
[OGL LOG] sort_host_mtx : 15 ms
[OGL LOG] init_preconditioner : 0 ms
[OGL LOG] solve : 110 ms
noneompGKOBiCGStab:  Solving for Ux, Initial residual = 0.203465, Final residual = 7.60924e-07, No Iterations 35
[OGL LOG] init_host_sparsity_pattern : 33 ms
[OGL LOG] matrix not stored update host matrix
[OGL LOG] update_host_mtx : 15 ms
[OGL LOG] matrix is not yet sorted, sorting host matrix
[OGL LOG] sort_host_mtx_sparsity_pattern : 22 ms
[OGL LOG] sort_host_mtx : 12 ms
[OGL LOG] init_preconditioner : 0 ms
[OGL LOG] solve : 121 ms
noneompGKOBiCGStab:  Solving for Uy, Initial residual = 0.618431, Final residual = 7.81818e-07, No Iterations 39
[OGL LOG] init_host_sparsity_pattern : 33 ms
[OGL LOG] matrix not stored update host matrix
[OGL LOG] update_host_mtx : 15 ms
[OGL LOG] matrix is not yet sorted, sorting host matrix
[OGL LOG] sort_host_mtx_sparsity_pattern : 22 ms
[OGL LOG] sort_host_mtx : 12 ms
[OGL LOG] init_preconditioner : 0 ms
[OGL LOG] solve : 113 ms
noneompGKOBiCGStab:  Solving for Uz, Initial residual = 0.536266, Final residual = 9.5065e-07, No Iterations 37
[OGL LOG] init_preconditioner : 0 ms
[OGL LOG] solve : 710 ms
noneompGKOCG:  Solving for p, Initial residual = 0.673326, Final residual = 9.95848e-07, No Iterations 433
time step continuity errors : sum local = 2.36207e-09, global = -2.5888e-20, cumulative = -5.56877e-21
[OGL LOG] init_preconditioner : 0 ms
[OGL LOG] solve : 714 ms
noneompGKOCG:  Solving for p, Initial residual = 0.598897, Final residual = 9.85897e-07, No Iterations 433
time step continuity errors : sum local = 2.40009e-09, global = 3.90718e-21, cumulative = -1.6616e-21
ExecutionTime = 28.8 s  ClockTime = 5 s

Time = 0.006

Courant Number mean: 0.107408 max: 0.881754
[OGL LOG] init_host_sparsity_pattern : 33 ms
[OGL LOG] matrix not stored update host matrix
[OGL LOG] update_host_mtx : 17 ms
[OGL LOG] matrix is not yet sorted, sorting host matrix
[OGL LOG] sort_host_mtx_sparsity_pattern : 24 ms
[OGL LOG] sort_host_mtx : 13 ms
[OGL LOG] init_preconditioner : 0 ms
[OGL LOG] solve : 109 ms
noneompGKOBiCGStab:  Solving for Ux, Initial residual = 0.0995685, Final residual = 8.90076e-07, No Iterations 35
[OGL LOG] init_host_sparsity_pattern : 33 ms
[OGL LOG] matrix not stored update host matrix
[OGL LOG] update_host_mtx : 15 ms
[OGL LOG] matrix is not yet sorted, sorting host matrix
[OGL LOG] sort_host_mtx_sparsity_pattern : 22 ms
[OGL LOG] sort_host_mtx : 12 ms
[OGL LOG] init_preconditioner : 0 ms
[OGL LOG] solve : 118 ms
noneompGKOBiCGStab:  Solving for Uy, Initial residual = 0.24997, Final residual = 7.58616e-07, No Iterations 38
[OGL LOG] init_host_sparsity_pattern : 33 ms
[OGL LOG] matrix not stored update host matrix
[OGL LOG] update_host_mtx : 15 ms
[OGL LOG] matrix is not yet sorted, sorting host matrix
[OGL LOG] sort_host_mtx_sparsity_pattern : 22 ms
[OGL LOG] sort_host_mtx : 13 ms
[OGL LOG] init_preconditioner : 0 ms
[OGL LOG] solve : 122 ms
noneompGKOBiCGStab:  Solving for Uz, Initial residual = 0.540976, Final residual = 8.33197e-07, No Iterations 40
[OGL LOG] init_preconditioner : 0 ms
[OGL LOG] solve : 717 ms
noneompGKOCG:  Solving for p, Initial residual = 0.606888, Final residual = 9.16257e-07, No Iterations 437
time step continuity errors : sum local = 1.56023e-09, global = -1.58549e-20, cumulative = -1.75165e-20
[OGL LOG] init_preconditioner : 0 ms
[OGL LOG] solve : 719 ms
noneompGKOCG:  Solving for p, Initial residual = 0.560845, Final residual = 9.47226e-07, No Iterations 436
time step continuity errors : sum local = 1.55916e-09, global = 2.94449e-20, cumulative = 1.19284e-20
ExecutionTime = 43.65 s  ClockTime = 7 s

Time = 0.008

Courant Number mean: 0.123244 max: 0.890102
[OGL LOG] init_host_sparsity_pattern : 33 ms
[OGL LOG] matrix not stored update host matrix
[OGL LOG] update_host_mtx : 15 ms
[OGL LOG] matrix is not yet sorted, sorting host matrix
[OGL LOG] sort_host_mtx_sparsity_pattern : 22 ms
[OGL LOG] sort_host_mtx : 13 ms
[OGL LOG] init_preconditioner : 0 ms
[OGL LOG] solve : 96 ms
noneompGKOBiCGStab:  Solving for Ux, Initial residual = 0.0341423, Final residual = 8.31814e-07, No Iterations 31
[OGL LOG] init_host_sparsity_pattern : 33 ms
[OGL LOG] matrix not stored update host matrix
[OGL LOG] update_host_mtx : 15 ms
[OGL LOG] matrix is not yet sorted, sorting host matrix
[OGL LOG] sort_host_mtx_sparsity_pattern : 22 ms
[OGL LOG] sort_host_mtx : 12 ms
[OGL LOG] init_preconditioner : 0 ms
[OGL LOG] solve : 102 ms
noneompGKOBiCGStab:  Solving for Uy, Initial residual = 0.132381, Final residual = 9.98907e-07, No Iterations 33
[OGL LOG] init_host_sparsity_pattern : 33 ms
[OGL LOG] matrix not stored update host matrix
[OGL LOG] update_host_mtx : 15 ms
[OGL LOG] matrix is not yet sorted, sorting host matrix
[OGL LOG] sort_host_mtx_sparsity_pattern : 22 ms
[OGL LOG] sort_host_mtx : 12 ms
[OGL LOG] init_preconditioner : 0 ms
[OGL LOG] solve : 116 ms
noneompGKOBiCGStab:  Solving for Uz, Initial residual = 0.471959, Final residual = 9.42458e-07, No Iterations 38
[OGL LOG] init_preconditioner : 0 ms
[OGL LOG] solve : 713 ms
noneompGKOCG:  Solving for p, Initial residual = 0.423037, Final residual = 9.15513e-07, No Iterations 435
time step continuity errors : sum local = 1.44551e-09, global = -9.62344e-21, cumulative = 2.30499e-21
[OGL LOG] init_preconditioner : 0 ms
[OGL LOG] solve : 710 ms
noneompGKOCG:  Solving for p, Initial residual = 0.368377, Final residual = 9.73851e-07, No Iterations 433
time step continuity errors : sum local = 1.55984e-09, global = -3.38636e-20, cumulative = -3.15586e-20
ExecutionTime = 58.1 s  ClockTime = 9 s

Time = 0.01

Courant Number mean: 0.136096 max: 0.906942
[OGL LOG] init_host_sparsity_pattern : 33 ms
[OGL LOG] matrix not stored update host matrix
[OGL LOG] update_host_mtx : 15 ms
[OGL LOG] matrix is not yet sorted, sorting host matrix
[OGL LOG] sort_host_mtx_sparsity_pattern : 22 ms
[OGL LOG] sort_host_mtx : 12 ms
[OGL LOG] init_preconditioner : 0 ms
[OGL LOG] solve : 90 ms
noneompGKOBiCGStab:  Solving for Ux, Initial residual = 0.0230738, Final residual = 9.79153e-07, No Iterations 29
[OGL LOG] init_host_sparsity_pattern : 33 ms
[OGL LOG] matrix not stored update host matrix
[OGL LOG] update_host_mtx : 16 ms
[OGL LOG] matrix is not yet sorted, sorting host matrix
[OGL LOG] sort_host_mtx_sparsity_pattern : 22 ms
[OGL LOG] sort_host_mtx : 12 ms
[OGL LOG] init_preconditioner : 0 ms
[OGL LOG] solve : 110 ms
noneompGKOBiCGStab:  Solving for Uy, Initial residual = 0.048412, Final residual = 8.1038e-07, No Iterations 32
[OGL LOG] init_host_sparsity_pattern : 35 ms
[OGL LOG] matrix not stored update host matrix
[OGL LOG] update_host_mtx : 18 ms
[OGL LOG] matrix is not yet sorted, sorting host matrix
[OGL LOG] sort_host_mtx_sparsity_pattern : 23 ms
[OGL LOG] sort_host_mtx : 13 ms
[OGL LOG] init_preconditioner : 0 ms
[OGL LOG] solve : 103 ms
noneompGKOBiCGStab:  Solving for Uz, Initial residual = 0.159038, Final residual = 8.36051e-07, No Iterations 33
[OGL LOG] init_preconditioner : 0 ms
[OGL LOG] solve : 739 ms
noneompGKOCG:  Solving for p, Initial residual = 0.361667, Final residual = 9.96244e-07, No Iterations 433
time step continuity errors : sum local = 1.36119e-09, global = 2.7337e-21, cumulative = -2.88249e-20
[OGL LOG] init_preconditioner : 0 ms
[OGL LOG] solve : 712 ms
noneompGKOCG:  Solving for p, Initial residual = 0.333161, Final residual = 9.44202e-07, No Iterations 433
time step continuity errors : sum local = 1.27855e-09, global = -1.81773e-20, cumulative = -4.70023e-20
ExecutionTime = 72.73 s  ClockTime = 12 s

End

