/*---------------------------------------------------------------------------*\
  =========                 |
  \\      /  F ield         | OpenFOAM: The Open Source CFD Toolbox
   \\    /   O peration     | Website:  https://openfoam.org
    \\  /    A nd           | Version:  8
     \\/     M anipulation  |
\*---------------------------------------------------------------------------*/
Build  : 8-13d66902f78c
Exec   : icoFoam
Date   : Jul 04 2021
Time   : 09:21:44
Host   : "uc2n423.localdomain"
PID    : 2483305
I/O    : uncollated
Case   : /pfs/data5/home/kit/scc/nq7776/code/OGL_DATA/lidDrivenCavity3D/v0.1-136-g40fef35/f584ccac99/IntelXeonGold6230CPU@2.10GHz/Test_2021-07-04-08:58:23/50/p-U-BiCGStab-GKO-BJ-omp/lidDrivenCavity3D
nProcs : 1
sigFpe : Enabling floating point exception trapping (FOAM_SIGFPE).
fileModificationChecking : Monitoring run-time modified files using timeStampMaster (fileModificationSkew 10)
allowSystemOperations : Allowing user-supplied system call operations

// * * * * * * * * * * * * * * * * * * * * * * * * * * * * * * * * * * * * * //
Create time

Create mesh for time = 0

Reading transportProperties

Reading field p

Reading field U

Reading/calculating face flux field phi


Starting time loop

Time = 0.002

Courant Number mean: 0 max: 0
[OGL LOG] init_host_sparsity_pattern : 35 ms
[OGL LOG] matrix not stored update host matrix
[OGL LOG] update_host_mtx : 18 ms
[OGL LOG] matrix is not yet sorted, compute sorting idxs
[OGL LOG] compute_sort : 989 ms
[OGL LOG] matrix is not yet sorted, sorting host matrix
[OGL LOG] sort_host_mtx_sparsity_pattern : 23 ms
[OGL LOG] sort_host_mtx : 15 ms
[OGL LOG] init_preconditioner : 3 ms
[OGL LOG] solve : 139 ms
BJompGKOBiCGStab:  Solving for Ux, Initial residual = 1, Final residual = 8.40984e-07, No Iterations 31
[OGL LOG] init_host_sparsity_pattern : 35 ms
[OGL LOG] matrix not stored update host matrix
[OGL LOG] update_host_mtx : 18 ms
[OGL LOG] matrix is not yet sorted, sorting host matrix
[OGL LOG] sort_host_mtx_sparsity_pattern : 23 ms
[OGL LOG] sort_host_mtx : 12 ms
[OGL LOG] init_preconditioner : 3 ms
[OGL LOG] solve : 4 ms
BJompGKOBiCGStab:  Solving for Uy, Initial residual = 0, Final residual = 0, No Iterations 0
[OGL LOG] init_host_sparsity_pattern : 35 ms
[OGL LOG] matrix not stored update host matrix
[OGL LOG] update_host_mtx : 16 ms
[OGL LOG] matrix is not yet sorted, sorting host matrix
[OGL LOG] sort_host_mtx_sparsity_pattern : 23 ms
[OGL LOG] sort_host_mtx : 12 ms
[OGL LOG] init_preconditioner : 3 ms
[OGL LOG] solve : 4 ms
BJompGKOBiCGStab:  Solving for Uz, Initial residual = 0, Final residual = 0, No Iterations 0
[OGL LOG] init_host_sparsity_pattern : 33 ms
[OGL LOG] matrix not stored update host matrix
[OGL LOG] update_host_mtx : 18 ms
[OGL LOG] matrix is not yet sorted, sorting host matrix
[OGL LOG] sort_host_mtx_sparsity_pattern : 22 ms
[OGL LOG] sort_host_mtx : 13 ms
[OGL LOG] init_preconditioner : 3 ms
[OGL LOG] solve : 1165 ms
BJompGKOBiCGStab:  Solving for p, Initial residual = 1, Final residual = 1.23681e-07, No Iterations 292
time step continuity errors : sum local = 2.32835e-07, global = 9.16661e-21, cumulative = 9.16661e-21
[OGL LOG] init_preconditioner : 0 ms
[OGL LOG] solve : 1117 ms
BJompGKOBiCGStab:  Solving for p, Initial residual = 0.721588, Final residual = 7.8777e-07, No Iterations 278
time step continuity errors : sum local = 1.11956e-07, global = -1.26572e-20, cumulative = -3.49055e-21
ExecutionTime = 81.4 s  ClockTime = 4 s

Time = 0.004

Courant Number mean: 0.0720722 max: 0.726639
[OGL LOG] init_host_sparsity_pattern : 33 ms
[OGL LOG] matrix not stored update host matrix
[OGL LOG] update_host_mtx : 16 ms
[OGL LOG] matrix is not yet sorted, sorting host matrix
[OGL LOG] sort_host_mtx_sparsity_pattern : 25 ms
[OGL LOG] sort_host_mtx : 13 ms
[OGL LOG] init_preconditioner : 0 ms
[OGL LOG] solve : 102 ms
BJompGKOBiCGStab:  Solving for Ux, Initial residual = 0.203457, Final residual = 6.5992e-07, No Iterations 23
[OGL LOG] init_host_sparsity_pattern : 34 ms
[OGL LOG] matrix not stored update host matrix
[OGL LOG] update_host_mtx : 16 ms
[OGL LOG] matrix is not yet sorted, sorting host matrix
[OGL LOG] sort_host_mtx_sparsity_pattern : 22 ms
[OGL LOG] sort_host_mtx : 12 ms
[OGL LOG] init_preconditioner : 0 ms
[OGL LOG] solve : 142 ms
BJompGKOBiCGStab:  Solving for Uy, Initial residual = 0.618438, Final residual = 9.28931e-07, No Iterations 32
[OGL LOG] init_host_sparsity_pattern : 33 ms
[OGL LOG] matrix not stored update host matrix
[OGL LOG] update_host_mtx : 16 ms
[OGL LOG] matrix is not yet sorted, sorting host matrix
[OGL LOG] sort_host_mtx_sparsity_pattern : 22 ms
[OGL LOG] sort_host_mtx : 12 ms
[OGL LOG] init_preconditioner : 0 ms
[OGL LOG] solve : 139 ms
BJompGKOBiCGStab:  Solving for Uz, Initial residual = 0.536082, Final residual = 9.38399e-07, No Iterations 32
[OGL LOG] init_preconditioner : 0 ms
[OGL LOG] solve : 1050 ms
BJompGKOBiCGStab:  Solving for p, Initial residual = 0.673332, Final residual = 8.85225e-07, No Iterations 275
time step continuity errors : sum local = 6.9521e-08, global = 8.69475e-21, cumulative = 5.2042e-21
[OGL LOG] init_preconditioner : 0 ms
[OGL LOG] solve : 911 ms
BJompGKOBiCGStab:  Solving for p, Initial residual = 0.598904, Final residual = 8.4432e-07, No Iterations 258
time step continuity errors : sum local = 6.6624e-08, global = -4.66154e-21, cumulative = 5.42656e-22
ExecutionTime = 157.68 s  ClockTime = 7 s

Time = 0.006

Courant Number mean: 0.107408 max: 0.881754
[OGL LOG] init_host_sparsity_pattern : 33 ms
[OGL LOG] matrix not stored update host matrix
[OGL LOG] update_host_mtx : 17 ms
[OGL LOG] matrix is not yet sorted, sorting host matrix
[OGL LOG] sort_host_mtx_sparsity_pattern : 24 ms
[OGL LOG] sort_host_mtx : 13 ms
[OGL LOG] init_preconditioner : 0 ms
[OGL LOG] solve : 80 ms
BJompGKOBiCGStab:  Solving for Ux, Initial residual = 0.0995505, Final residual = 9.15857e-07, No Iterations 21
[OGL LOG] init_host_sparsity_pattern : 34 ms
[OGL LOG] matrix not stored update host matrix
[OGL LOG] update_host_mtx : 16 ms
[OGL LOG] matrix is not yet sorted, sorting host matrix
[OGL LOG] sort_host_mtx_sparsity_pattern : 22 ms
[OGL LOG] sort_host_mtx : 12 ms
[OGL LOG] init_preconditioner : 0 ms
[OGL LOG] solve : 108 ms
BJompGKOBiCGStab:  Solving for Uy, Initial residual = 0.250023, Final residual = 8.25437e-07, No Iterations 29
[OGL LOG] init_host_sparsity_pattern : 34 ms
[OGL LOG] matrix not stored update host matrix
[OGL LOG] update_host_mtx : 16 ms
[OGL LOG] matrix is not yet sorted, sorting host matrix
[OGL LOG] sort_host_mtx_sparsity_pattern : 22 ms
[OGL LOG] sort_host_mtx : 12 ms
[OGL LOG] init_preconditioner : 0 ms
[OGL LOG] solve : 117 ms
BJompGKOBiCGStab:  Solving for Uz, Initial residual = 0.541274, Final residual = 8.64073e-07, No Iterations 32
[OGL LOG] init_preconditioner : 0 ms
[OGL LOG] solve : 937 ms
BJompGKOBiCGStab:  Solving for p, Initial residual = 0.606881, Final residual = 8.37708e-07, No Iterations 282
time step continuity errors : sum local = 1.37857e-08, global = 2.00947e-20, cumulative = 2.06373e-20
[OGL LOG] init_preconditioner : 0 ms
[OGL LOG] solve : 926 ms
BJompGKOBiCGStab:  Solving for p, Initial residual = 0.560889, Final residual = 8.05298e-07, No Iterations 272
time step continuity errors : sum local = 3.53829e-08, global = 5.91201e-21, cumulative = 2.65493e-20
ExecutionTime = 228.34 s  ClockTime = 10 s

Time = 0.008

Courant Number mean: 0.123244 max: 0.890103
[OGL LOG] init_host_sparsity_pattern : 33 ms
[OGL LOG] matrix not stored update host matrix
[OGL LOG] update_host_mtx : 18 ms
[OGL LOG] matrix is not yet sorted, sorting host matrix
[OGL LOG] sort_host_mtx_sparsity_pattern : 25 ms
[OGL LOG] sort_host_mtx : 13 ms
[OGL LOG] init_preconditioner : 0 ms
[OGL LOG] solve : 94 ms
BJompGKOBiCGStab:  Solving for Ux, Initial residual = 0.0341365, Final residual = 7.83594e-07, No Iterations 25
[OGL LOG] init_host_sparsity_pattern : 34 ms
[OGL LOG] matrix not stored update host matrix
[OGL LOG] update_host_mtx : 16 ms
[OGL LOG] matrix is not yet sorted, sorting host matrix
[OGL LOG] sort_host_mtx_sparsity_pattern : 22 ms
[OGL LOG] sort_host_mtx : 12 ms
[OGL LOG] init_preconditioner : 0 ms
[OGL LOG] solve : 105 ms
BJompGKOBiCGStab:  Solving for Uy, Initial residual = 0.132382, Final residual = 8.1631e-07, No Iterations 28
[OGL LOG] init_host_sparsity_pattern : 34 ms
[OGL LOG] matrix not stored update host matrix
[OGL LOG] update_host_mtx : 16 ms
[OGL LOG] matrix is not yet sorted, sorting host matrix
[OGL LOG] sort_host_mtx_sparsity_pattern : 22 ms
[OGL LOG] sort_host_mtx : 12 ms
[OGL LOG] init_preconditioner : 0 ms
[OGL LOG] solve : 114 ms
BJompGKOBiCGStab:  Solving for Uz, Initial residual = 0.472125, Final residual = 9.39596e-07, No Iterations 31
[OGL LOG] init_preconditioner : 0 ms
[OGL LOG] solve : 938 ms
BJompGKOBiCGStab:  Solving for p, Initial residual = 0.423006, Final residual = 9.1277e-07, No Iterations 281
time step continuity errors : sum local = 3.23325e-09, global = 6.70653e-21, cumulative = 3.32559e-20
[OGL LOG] init_preconditioner : 0 ms
[OGL LOG] solve : 921 ms
BJompGKOBiCGStab:  Solving for p, Initial residual = 0.368343, Final residual = 4.38328e-07, No Iterations 278
time step continuity errors : sum local = 2.53569e-09, global = -3.13789e-20, cumulative = 1.87694e-21
ExecutionTime = 299.17 s  ClockTime = 12 s

Time = 0.01

Courant Number mean: 0.136096 max: 0.906942
[OGL LOG] init_host_sparsity_pattern : 33 ms
[OGL LOG] matrix not stored update host matrix
[OGL LOG] update_host_mtx : 16 ms
[OGL LOG] matrix is not yet sorted, sorting host matrix
[OGL LOG] sort_host_mtx_sparsity_pattern : 22 ms
[OGL LOG] sort_host_mtx : 12 ms
[OGL LOG] init_preconditioner : 0 ms
[OGL LOG] solve : 86 ms
BJompGKOBiCGStab:  Solving for Ux, Initial residual = 0.023075, Final residual = 7.32699e-07, No Iterations 24
[OGL LOG] init_host_sparsity_pattern : 34 ms
[OGL LOG] matrix not stored update host matrix
[OGL LOG] update_host_mtx : 16 ms
[OGL LOG] matrix is not yet sorted, sorting host matrix
[OGL LOG] sort_host_mtx_sparsity_pattern : 22 ms
[OGL LOG] sort_host_mtx : 12 ms
[OGL LOG] init_preconditioner : 0 ms
[OGL LOG] solve : 89 ms
BJompGKOBiCGStab:  Solving for Uy, Initial residual = 0.0484019, Final residual = 9.76539e-07, No Iterations 25
[OGL LOG] init_host_sparsity_pattern : 33 ms
[OGL LOG] matrix not stored update host matrix
[OGL LOG] update_host_mtx : 16 ms
[OGL LOG] matrix is not yet sorted, sorting host matrix
[OGL LOG] sort_host_mtx_sparsity_pattern : 22 ms
[OGL LOG] sort_host_mtx : 12 ms
[OGL LOG] init_preconditioner : 0 ms
[OGL LOG] solve : 100 ms
BJompGKOBiCGStab:  Solving for Uz, Initial residual = 0.159283, Final residual = 8.90369e-07, No Iterations 28
[OGL LOG] init_preconditioner : 0 ms
[OGL LOG] solve : 890 ms
BJompGKOBiCGStab:  Solving for p, Initial residual = 0.361665, Final residual = 9.94966e-07, No Iterations 267
time step continuity errors : sum local = 1.38926e-09, global = -3.82197e-21, cumulative = -1.94503e-21
[OGL LOG] init_preconditioner : 0 ms
[OGL LOG] solve : 814 ms
BJompGKOBiCGStab:  Solving for p, Initial residual = 0.333165, Final residual = 8.97014e-07, No Iterations 246
time step continuity errors : sum local = 1.82235e-09, global = -6.48173e-20, cumulative = -6.67624e-20
ExecutionTime = 363.76 s  ClockTime = 15 s

End

