/*---------------------------------------------------------------------------*\
  =========                 |
  \\      /  F ield         | OpenFOAM: The Open Source CFD Toolbox
   \\    /   O peration     | Website:  https://openfoam.org
    \\  /    A nd           | Version:  8
     \\/     M anipulation  |
\*---------------------------------------------------------------------------*/
Build  : 8-13d66902f78c
Exec   : icoFoam
Date   : Jul 04 2021
Time   : 08:53:54
Host   : "uc2n415.localdomain"
PID    : 2607173
I/O    : uncollated
Case   : /pfs/data5/home/kit/scc/nq7776/code/OGL_DATA/lidDrivenCavity3D/v0.1-136-g40fef35/f584ccac99/IntelXeonGold6230CPU@2.10GHz/Test_2021-07-04-08:36:30/50/p-U-BiCGStab-GKO-none-omp/lidDrivenCavity3D
nProcs : 1
sigFpe : Enabling floating point exception trapping (FOAM_SIGFPE).
fileModificationChecking : Monitoring run-time modified files using timeStampMaster (fileModificationSkew 10)
allowSystemOperations : Allowing user-supplied system call operations

// * * * * * * * * * * * * * * * * * * * * * * * * * * * * * * * * * * * * * //
Create time

Create mesh for time = 0

Reading transportProperties

Reading field p

Reading field U

Reading/calculating face flux field phi


Starting time loop

Time = 0.002

Courant Number mean: 0 max: 0
[OGL LOG] init_host_sparsity_pattern : 35 ms
[OGL LOG] matrix not stored update host matrix
[OGL LOG] update_host_mtx : 18 ms
[OGL LOG] matrix is not yet sorted, compute sorting idxs
[OGL LOG] compute_sort : 984 ms
[OGL LOG] matrix is not yet sorted, sorting host matrix
[OGL LOG] sort_host_mtx_sparsity_pattern : 24 ms
[OGL LOG] sort_host_mtx : 15 ms
[OGL LOG] init_preconditioner : 0 ms
[OGL LOG] solve : 197 ms
noneompGKOBiCGStab:  Solving for Ux, Initial residual = 1, Final residual = 8.72813e-07, No Iterations 41
[OGL LOG] init_host_sparsity_pattern : 35 ms
[OGL LOG] matrix not stored update host matrix
[OGL LOG] update_host_mtx : 18 ms
[OGL LOG] matrix is not yet sorted, sorting host matrix
[OGL LOG] sort_host_mtx_sparsity_pattern : 24 ms
[OGL LOG] sort_host_mtx : 12 ms
[OGL LOG] init_preconditioner : 0 ms
[OGL LOG] solve : 4 ms
noneompGKOBiCGStab:  Solving for Uy, Initial residual = 0, Final residual = 0, No Iterations 0
[OGL LOG] init_host_sparsity_pattern : 33 ms
[OGL LOG] matrix not stored update host matrix
[OGL LOG] update_host_mtx : 15 ms
[OGL LOG] matrix is not yet sorted, sorting host matrix
[OGL LOG] sort_host_mtx_sparsity_pattern : 23 ms
[OGL LOG] sort_host_mtx : 12 ms
[OGL LOG] init_preconditioner : 0 ms
[OGL LOG] solve : 3 ms
noneompGKOBiCGStab:  Solving for Uz, Initial residual = 0, Final residual = 0, No Iterations 0
[OGL LOG] init_host_sparsity_pattern : 33 ms
[OGL LOG] matrix not stored update host matrix
[OGL LOG] update_host_mtx : 18 ms
[OGL LOG] matrix is not yet sorted, sorting host matrix
[OGL LOG] sort_host_mtx_sparsity_pattern : 22 ms
[OGL LOG] sort_host_mtx : 14 ms
[OGL LOG] init_preconditioner : 0 ms
[OGL LOG] solve : 1023 ms
noneompGKOBiCGStab:  Solving for p, Initial residual = 1, Final residual = 8.71948e-07, No Iterations 357
time step continuity errors : sum local = 4.04566e-07, global = -1.22894e-20, cumulative = -1.22894e-20
[OGL LOG] init_preconditioner : 0 ms
[OGL LOG] solve : 1041 ms
noneompGKOBiCGStab:  Solving for p, Initial residual = 0.721609, Final residual = 9.96784e-07, No Iterations 351
time step continuity errors : sum local = 6.39503e-09, global = 3.4669e-20, cumulative = 2.23796e-20
ExecutionTime = 75.03 s  ClockTime = 5 s

Time = 0.004

Courant Number mean: 0.0720722 max: 0.726639
[OGL LOG] init_host_sparsity_pattern : 33 ms
[OGL LOG] matrix not stored update host matrix
[OGL LOG] update_host_mtx : 16 ms
[OGL LOG] matrix is not yet sorted, sorting host matrix
[OGL LOG] sort_host_mtx_sparsity_pattern : 24 ms
[OGL LOG] sort_host_mtx : 12 ms
[OGL LOG] init_preconditioner : 0 ms
[OGL LOG] solve : 106 ms
noneompGKOBiCGStab:  Solving for Ux, Initial residual = 0.203472, Final residual = 8.85189e-07, No Iterations 37
[OGL LOG] init_host_sparsity_pattern : 33 ms
[OGL LOG] matrix not stored update host matrix
[OGL LOG] update_host_mtx : 15 ms
[OGL LOG] matrix is not yet sorted, sorting host matrix
[OGL LOG] sort_host_mtx_sparsity_pattern : 21 ms
[OGL LOG] sort_host_mtx : 12 ms
[OGL LOG] init_preconditioner : 0 ms
[OGL LOG] solve : 110 ms
noneompGKOBiCGStab:  Solving for Uy, Initial residual = 0.618423, Final residual = 2.16084e-07, No Iterations 39
[OGL LOG] init_host_sparsity_pattern : 33 ms
[OGL LOG] matrix not stored update host matrix
[OGL LOG] update_host_mtx : 15 ms
[OGL LOG] matrix is not yet sorted, sorting host matrix
[OGL LOG] sort_host_mtx_sparsity_pattern : 21 ms
[OGL LOG] sort_host_mtx : 12 ms
[OGL LOG] init_preconditioner : 0 ms
[OGL LOG] solve : 116 ms
noneompGKOBiCGStab:  Solving for Uz, Initial residual = 0.536484, Final residual = 7.75171e-07, No Iterations 38
[OGL LOG] init_preconditioner : 0 ms
[OGL LOG] solve : 1041 ms
noneompGKOBiCGStab:  Solving for p, Initial residual = 0.673324, Final residual = 4.34256e-07, No Iterations 349
time step continuity errors : sum local = 2.42932e-07, global = 3.00248e-21, cumulative = 2.53821e-20
[OGL LOG] init_preconditioner : 0 ms
[OGL LOG] solve : 966 ms
noneompGKOBiCGStab:  Solving for p, Initial residual = 0.598908, Final residual = 6.75133e-07, No Iterations 337
time step continuity errors : sum local = 4.44128e-08, global = 8.87929e-21, cumulative = 3.42614e-20
ExecutionTime = 151.16 s  ClockTime = 7 s

Time = 0.006

Courant Number mean: 0.107409 max: 0.881756
[OGL LOG] init_host_sparsity_pattern : 33 ms
[OGL LOG] matrix not stored update host matrix
[OGL LOG] update_host_mtx : 17 ms
[OGL LOG] matrix is not yet sorted, sorting host matrix
[OGL LOG] sort_host_mtx_sparsity_pattern : 23 ms
[OGL LOG] sort_host_mtx : 13 ms
[OGL LOG] init_preconditioner : 0 ms
[OGL LOG] solve : 100 ms
noneompGKOBiCGStab:  Solving for Ux, Initial residual = 0.0995885, Final residual = 9.63841e-07, No Iterations 35
[OGL LOG] init_host_sparsity_pattern : 33 ms
[OGL LOG] matrix not stored update host matrix
[OGL LOG] update_host_mtx : 15 ms
[OGL LOG] matrix is not yet sorted, sorting host matrix
[OGL LOG] sort_host_mtx_sparsity_pattern : 22 ms
[OGL LOG] sort_host_mtx : 12 ms
[OGL LOG] init_preconditioner : 0 ms
[OGL LOG] solve : 111 ms
noneompGKOBiCGStab:  Solving for Uy, Initial residual = 0.249917, Final residual = 8.36887e-07, No Iterations 39
[OGL LOG] init_host_sparsity_pattern : 33 ms
[OGL LOG] matrix not stored update host matrix
[OGL LOG] update_host_mtx : 15 ms
[OGL LOG] matrix is not yet sorted, sorting host matrix
[OGL LOG] sort_host_mtx_sparsity_pattern : 22 ms
[OGL LOG] sort_host_mtx : 12 ms
[OGL LOG] init_preconditioner : 0 ms
[OGL LOG] solve : 114 ms
noneompGKOBiCGStab:  Solving for Uz, Initial residual = 0.542262, Final residual = 6.45672e-07, No Iterations 40
[OGL LOG] init_preconditioner : 0 ms
[OGL LOG] solve : 1005 ms
noneompGKOBiCGStab:  Solving for p, Initial residual = 0.606889, Final residual = 9.33135e-07, No Iterations 362
time step continuity errors : sum local = 3.89566e-06, global = 2.54104e-20, cumulative = 5.96717e-20
[OGL LOG] init_preconditioner : 0 ms
[OGL LOG] solve : 1011 ms
noneompGKOBiCGStab:  Solving for p, Initial residual = 0.561514, Final residual = 9.26637e-07, No Iterations 364
time step continuity errors : sum local = 9.08739e-08, global = 8.64613e-21, cumulative = 6.83179e-20
ExecutionTime = 227.4 s  ClockTime = 10 s

Time = 0.008

Courant Number mean: 0.123244 max: 0.890102
[OGL LOG] init_host_sparsity_pattern : 32 ms
[OGL LOG] matrix not stored update host matrix
[OGL LOG] update_host_mtx : 15 ms
[OGL LOG] matrix is not yet sorted, sorting host matrix
[OGL LOG] sort_host_mtx_sparsity_pattern : 21 ms
[OGL LOG] sort_host_mtx : 12 ms
[OGL LOG] init_preconditioner : 0 ms
[OGL LOG] solve : 88 ms
noneompGKOBiCGStab:  Solving for Ux, Initial residual = 0.0341544, Final residual = 8.54901e-07, No Iterations 31
[OGL LOG] init_host_sparsity_pattern : 33 ms
[OGL LOG] matrix not stored update host matrix
[OGL LOG] update_host_mtx : 15 ms
[OGL LOG] matrix is not yet sorted, sorting host matrix
[OGL LOG] sort_host_mtx_sparsity_pattern : 21 ms
[OGL LOG] sort_host_mtx : 12 ms
[OGL LOG] init_preconditioner : 0 ms
[OGL LOG] solve : 97 ms
noneompGKOBiCGStab:  Solving for Uy, Initial residual = 0.132384, Final residual = 5.7326e-07, No Iterations 35
[OGL LOG] init_host_sparsity_pattern : 33 ms
[OGL LOG] matrix not stored update host matrix
[OGL LOG] update_host_mtx : 15 ms
[OGL LOG] matrix is not yet sorted, sorting host matrix
[OGL LOG] sort_host_mtx_sparsity_pattern : 21 ms
[OGL LOG] sort_host_mtx : 12 ms
[OGL LOG] init_preconditioner : 0 ms
[OGL LOG] solve : 101 ms
noneompGKOBiCGStab:  Solving for Uz, Initial residual = 0.473175, Final residual = 8.28809e-07, No Iterations 36
[OGL LOG] init_preconditioner : 0 ms
[OGL LOG] solve : 1020 ms
noneompGKOBiCGStab:  Solving for p, Initial residual = 0.423455, Final residual = 8.35453e-07, No Iterations 352
time step continuity errors : sum local = 1.24089e-08, global = -5.1581e-20, cumulative = 1.67369e-20
[OGL LOG] init_preconditioner : 0 ms
[OGL LOG] solve : 1051 ms
noneompGKOBiCGStab:  Solving for p, Initial residual = 0.368646, Final residual = 9.09084e-07, No Iterations 366
time step continuity errors : sum local = 1.19219e-08, global = -8.21863e-21, cumulative = 8.51828e-21
ExecutionTime = 304.08 s  ClockTime = 13 s

Time = 0.01

Courant Number mean: 0.136096 max: 0.906944
[OGL LOG] init_host_sparsity_pattern : 33 ms
[OGL LOG] matrix not stored update host matrix
[OGL LOG] update_host_mtx : 16 ms
[OGL LOG] matrix is not yet sorted, sorting host matrix
[OGL LOG] sort_host_mtx_sparsity_pattern : 24 ms
[OGL LOG] sort_host_mtx : 14 ms
[OGL LOG] init_preconditioner : 0 ms
[OGL LOG] solve : 90 ms
noneompGKOBiCGStab:  Solving for Ux, Initial residual = 0.0230665, Final residual = 7.93031e-07, No Iterations 30
[OGL LOG] init_host_sparsity_pattern : 34 ms
[OGL LOG] matrix not stored update host matrix
[OGL LOG] update_host_mtx : 15 ms
[OGL LOG] matrix is not yet sorted, sorting host matrix
[OGL LOG] sort_host_mtx_sparsity_pattern : 21 ms
[OGL LOG] sort_host_mtx : 12 ms
[OGL LOG] init_preconditioner : 0 ms
[OGL LOG] solve : 95 ms
noneompGKOBiCGStab:  Solving for Uy, Initial residual = 0.0484811, Final residual = 8.95057e-07, No Iterations 32
[OGL LOG] init_host_sparsity_pattern : 34 ms
[OGL LOG] matrix not stored update host matrix
[OGL LOG] update_host_mtx : 15 ms
[OGL LOG] matrix is not yet sorted, sorting host matrix
[OGL LOG] sort_host_mtx_sparsity_pattern : 21 ms
[OGL LOG] sort_host_mtx : 12 ms
[OGL LOG] init_preconditioner : 0 ms
[OGL LOG] solve : 102 ms
noneompGKOBiCGStab:  Solving for Uz, Initial residual = 0.161215, Final residual = 8.25807e-07, No Iterations 35
[OGL LOG] init_preconditioner : 0 ms
[OGL LOG] solve : 934 ms
noneompGKOBiCGStab:  Solving for p, Initial residual = 0.36169, Final residual = 1.19914e-07, No Iterations 325
time step continuity errors : sum local = 1.86619e-07, global = -2.12791e-20, cumulative = -1.27608e-20
[OGL LOG] init_preconditioner : 0 ms
[OGL LOG] solve : 908 ms
noneompGKOBiCGStab:  Solving for p, Initial residual = 0.333182, Final residual = 8.52472e-07, No Iterations 331
time step continuity errors : sum local = 2.41035e-08, global = -1.43309e-20, cumulative = -2.70917e-20
ExecutionTime = 373.51 s  ClockTime = 15 s

End

