/*---------------------------------------------------------------------------*\
  =========                 |
  \\      /  F ield         | OpenFOAM: The Open Source CFD Toolbox
   \\    /   O peration     | Website:  https://openfoam.org
    \\  /    A nd           | Version:  8
     \\/     M anipulation  |
\*---------------------------------------------------------------------------*/
Build  : 8-13d66902f78c
Exec   : icoFoam
Date   : Jul 04 2021
Time   : 07:32:16
Host   : "uc2n420.localdomain"
PID    : 1119608
I/O    : uncollated
Case   : /pfs/data5/home/kit/scc/nq7776/code/OGL_DATA/lidDrivenCavity3D/v0.1-136-g40fef35/f584ccac99/IntelXeonGold6230CPU@2.10GHz/Test_2021-07-04-07:18:41/50/p-BiCGStab-GKO-none-omp/lidDrivenCavity3D
nProcs : 1
sigFpe : Enabling floating point exception trapping (FOAM_SIGFPE).
fileModificationChecking : Monitoring run-time modified files using timeStampMaster (fileModificationSkew 10)
allowSystemOperations : Allowing user-supplied system call operations

// * * * * * * * * * * * * * * * * * * * * * * * * * * * * * * * * * * * * * //
Create time

Create mesh for time = 0

Reading transportProperties

Reading field p

Reading field U

Reading/calculating face flux field phi


Starting time loop

Time = 0.002

Courant Number mean: 0 max: 0
nonePBiCGStab:  Solving for Ux, Initial residual = 1, Final residual = 0.0592055, No Iterations 5
nonePBiCGStab:  Solving for Uy, Initial residual = 0, Final residual = 0, No Iterations 0
nonePBiCGStab:  Solving for Uz, Initial residual = 0, Final residual = 0, No Iterations 0
[OGL LOG] init_host_sparsity_pattern : 35 ms
[OGL LOG] matrix not stored update host matrix
[OGL LOG] update_host_mtx : 18 ms
[OGL LOG] matrix is not yet sorted, compute sorting idxs
[OGL LOG] compute_sort : 985 ms
[OGL LOG] matrix is not yet sorted, sorting host matrix
[OGL LOG] sort_host_mtx_sparsity_pattern : 23 ms
[OGL LOG] sort_host_mtx : 14 ms
[OGL LOG] init_preconditioner : 0 ms
[OGL LOG] solve : 1049 ms
noneompGKOBiCGStab:  Solving for p, Initial residual = 1, Final residual = 5.67034e-07, No Iterations 354
time step continuity errors : sum local = 2.45712e-07, global = -1.86521e-20, cumulative = -1.86521e-20
[OGL LOG] init_preconditioner : 0 ms
[OGL LOG] solve : 992 ms
noneompGKOBiCGStab:  Solving for p, Initial residual = 0.676723, Final residual = 5.12414e-07, No Iterations 335
time step continuity errors : sum local = 1.40535e-07, global = -4.9818e-21, cumulative = -2.36339e-20
ExecutionTime = 18.09 s  ClockTime = 4 s

Time = 0.004

Courant Number mean: 0.0636234 max: 0.723792
nonePBiCGStab:  Solving for Ux, Initial residual = 0.144132, Final residual = 0.0219192, No Iterations 5
nonePBiCGStab:  Solving for Uy, Initial residual = 0.363934, Final residual = 0.0524595, No Iterations 5
nonePBiCGStab:  Solving for Uz, Initial residual = 0.973213, Final residual = 0.160046, No Iterations 5
[OGL LOG] init_preconditioner : 0 ms
[OGL LOG] solve : 1041 ms
noneompGKOBiCGStab:  Solving for p, Initial residual = 0.668468, Final residual = 6.75025e-07, No Iterations 351
time step continuity errors : sum local = 1.12878e-07, global = 3.85367e-20, cumulative = 1.49028e-20
[OGL LOG] init_preconditioner : 0 ms
[OGL LOG] solve : 1027 ms
noneompGKOBiCGStab:  Solving for p, Initial residual = 0.584606, Final residual = 8.35225e-07, No Iterations 353
time step continuity errors : sum local = 1.19637e-08, global = 1.50623e-21, cumulative = 1.64091e-20
ExecutionTime = 34.8 s  ClockTime = 6 s

Time = 0.006

Courant Number mean: 0.0972237 max: 0.862508
nonePBiCGStab:  Solving for Ux, Initial residual = 0.0524115, Final residual = 0.00685437, No Iterations 5
nonePBiCGStab:  Solving for Uy, Initial residual = 0.127162, Final residual = 0.0201836, No Iterations 5
nonePBiCGStab:  Solving for Uz, Initial residual = 0.36669, Final residual = 0.0536433, No Iterations 5
[OGL LOG] init_preconditioner : 0 ms
[OGL LOG] solve : 1035 ms
noneompGKOBiCGStab:  Solving for p, Initial residual = 0.594525, Final residual = 9.8261e-07, No Iterations 356
time step continuity errors : sum local = 4.73029e-09, global = 1.51749e-20, cumulative = 3.15839e-20
[OGL LOG] init_preconditioner : 0 ms
[OGL LOG] solve : 1001 ms
noneompGKOBiCGStab:  Solving for p, Initial residual = 0.528697, Final residual = 9.7831e-07, No Iterations 344
time step continuity errors : sum local = 4.6704e-08, global = 4.20793e-20, cumulative = 7.36632e-20
ExecutionTime = 51.23 s  ClockTime = 9 s

Time = 0.008

Courant Number mean: 0.11379 max: 0.882477
nonePBiCGStab:  Solving for Ux, Initial residual = 0.0289553, Final residual = 0.00344442, No Iterations 5
nonePBiCGStab:  Solving for Uy, Initial residual = 0.0844485, Final residual = 0.0108965, No Iterations 5
nonePBiCGStab:  Solving for Uz, Initial residual = 0.229806, Final residual = 0.0304521, No Iterations 5
[OGL LOG] init_preconditioner : 0 ms
[OGL LOG] solve : 1040 ms
noneompGKOBiCGStab:  Solving for p, Initial residual = 0.411324, Final residual = 9.92203e-07, No Iterations 355
time step continuity errors : sum local = 6.3037e-09, global = -2.01404e-20, cumulative = 5.35228e-20
[OGL LOG] init_preconditioner : 0 ms
[OGL LOG] solve : 1014 ms
noneompGKOBiCGStab:  Solving for p, Initial residual = 0.342567, Final residual = 9.58355e-07, No Iterations 352
time step continuity errors : sum local = 7.90213e-09, global = -4.44092e-20, cumulative = 9.11368e-21
ExecutionTime = 67.83 s  ClockTime = 11 s

Time = 0.01

Courant Number mean: 0.127337 max: 0.898878
nonePBiCGStab:  Solving for Ux, Initial residual = 0.0202766, Final residual = 0.00208456, No Iterations 5
nonePBiCGStab:  Solving for Uy, Initial residual = 0.050556, Final residual = 0.00623813, No Iterations 5
nonePBiCGStab:  Solving for Uz, Initial residual = 0.113167, Final residual = 0.0182015, No Iterations 5
[OGL LOG] init_preconditioner : 0 ms
[OGL LOG] solve : 958 ms
noneompGKOBiCGStab:  Solving for p, Initial residual = 0.353995, Final residual = 6.29211e-07, No Iterations 333
time step continuity errors : sum local = 2.09526e-08, global = -2.68604e-20, cumulative = -1.77468e-20
[OGL LOG] init_preconditioner : 0 ms
[OGL LOG] solve : 996 ms
noneompGKOBiCGStab:  Solving for p, Initial residual = 0.302187, Final residual = 9.61547e-07, No Iterations 346
time step continuity errors : sum local = 2.76327e-07, global = -2.95374e-20, cumulative = -4.72842e-20
ExecutionTime = 83.61 s  ClockTime = 13 s

End

