/*---------------------------------------------------------------------------*\
  =========                 |
  \\      /  F ield         | OpenFOAM: The Open Source CFD Toolbox
   \\    /   O peration     | Website:  https://openfoam.org
    \\  /    A nd           | Version:  8
     \\/     M anipulation  |
\*---------------------------------------------------------------------------*/
Build  : 8-13d66902f78c
Exec   : icoFoam
Date   : Jul 04 2021
Time   : 08:36:03
Host   : "uc2n445.localdomain"
PID    : 2192217
I/O    : uncollated
Case   : /pfs/data5/home/kit/scc/nq7776/code/OGL_DATA/lidDrivenCavity3D/v0.1-136-g40fef35/f584ccac99/IntelXeonGold6230CPU@2.10GHz/Test_2021-07-04-08:13:47/50/p-BiCGStab-GKO-BJ-omp/lidDrivenCavity3D
nProcs : 1
sigFpe : Enabling floating point exception trapping (FOAM_SIGFPE).
fileModificationChecking : Monitoring run-time modified files using timeStampMaster (fileModificationSkew 10)
allowSystemOperations : Allowing user-supplied system call operations

// * * * * * * * * * * * * * * * * * * * * * * * * * * * * * * * * * * * * * //
Create time

Create mesh for time = 0

Reading transportProperties

Reading field p

Reading field U

Reading/calculating face flux field phi


Starting time loop

Time = 0.002

Courant Number mean: 0 max: 0
nonePBiCGStab:  Solving for Ux, Initial residual = 1, Final residual = 0.0592055, No Iterations 5
nonePBiCGStab:  Solving for Uy, Initial residual = 0, Final residual = 0, No Iterations 0
nonePBiCGStab:  Solving for Uz, Initial residual = 0, Final residual = 0, No Iterations 0
[OGL LOG] init_host_sparsity_pattern : 35 ms
[OGL LOG] matrix not stored update host matrix
[OGL LOG] update_host_mtx : 18 ms
[OGL LOG] matrix is not yet sorted, compute sorting idxs
[OGL LOG] compute_sort : 984 ms
[OGL LOG] matrix is not yet sorted, sorting host matrix
[OGL LOG] sort_host_mtx_sparsity_pattern : 23 ms
[OGL LOG] sort_host_mtx : 15 ms
[OGL LOG] init_preconditioner : 13 ms
[OGL LOG] solve : 1086 ms
BJompGKOBiCGStab:  Solving for p, Initial residual = 1, Final residual = 9.53558e-07, No Iterations 281
time step continuity errors : sum local = 6.63688e-09, global = -7.52951e-21, cumulative = -7.52951e-21
[OGL LOG] init_preconditioner : 0 ms
[OGL LOG] solve : 1019 ms
BJompGKOBiCGStab:  Solving for p, Initial residual = 0.676727, Final residual = 9.83031e-07, No Iterations 270
time step continuity errors : sum local = 3.75221e-08, global = 2.5302e-20, cumulative = 1.77725e-20
ExecutionTime = 137.79 s  ClockTime = 4 s

Time = 0.004

Courant Number mean: 0.0636233 max: 0.723792
nonePBiCGStab:  Solving for Ux, Initial residual = 0.144135, Final residual = 0.02192, No Iterations 5
nonePBiCGStab:  Solving for Uy, Initial residual = 0.363931, Final residual = 0.0522818, No Iterations 5
nonePBiCGStab:  Solving for Uz, Initial residual = 0.973546, Final residual = 0.15891, No Iterations 5
[OGL LOG] init_preconditioner : 0 ms
[OGL LOG] solve : 1112 ms
BJompGKOBiCGStab:  Solving for p, Initial residual = 0.668513, Final residual = 8.18594e-07, No Iterations 268
time step continuity errors : sum local = 1.34075e-07, global = 1.18742e-20, cumulative = 2.96467e-20
[OGL LOG] init_preconditioner : 0 ms
[OGL LOG] solve : 1101 ms
BJompGKOBiCGStab:  Solving for p, Initial residual = 0.584674, Final residual = 8.13403e-07, No Iterations 260
time step continuity errors : sum local = 4.35369e-07, global = 4.1551e-20, cumulative = 7.11977e-20
ExecutionTime = 279.69 s  ClockTime = 7 s

Time = 0.006

Courant Number mean: 0.0972276 max: 0.862515
nonePBiCGStab:  Solving for Ux, Initial residual = 0.0524209, Final residual = 0.00685661, No Iterations 5
nonePBiCGStab:  Solving for Uy, Initial residual = 0.127041, Final residual = 0.0201247, No Iterations 5
nonePBiCGStab:  Solving for Uz, Initial residual = 0.366895, Final residual = 0.0532984, No Iterations 5
[OGL LOG] init_preconditioner : 0 ms
[OGL LOG] solve : 1103 ms
BJompGKOBiCGStab:  Solving for p, Initial residual = 0.594588, Final residual = 9.42371e-07, No Iterations 266
time step continuity errors : sum local = 5.49385e-09, global = 1.54417e-20, cumulative = 8.66394e-20
[OGL LOG] init_preconditioner : 0 ms
[OGL LOG] solve : 1110 ms
BJompGKOBiCGStab:  Solving for p, Initial residual = 0.528695, Final residual = 8.66805e-07, No Iterations 267
time step continuity errors : sum local = 7.65307e-08, global = -1.54471e-20, cumulative = 7.11923e-20
ExecutionTime = 421.65 s  ClockTime = 9 s

Time = 0.008

Courant Number mean: 0.113794 max: 0.88248
nonePBiCGStab:  Solving for Ux, Initial residual = 0.0289597, Final residual = 0.00344561, No Iterations 5
nonePBiCGStab:  Solving for Uy, Initial residual = 0.0844238, Final residual = 0.0109322, No Iterations 5
nonePBiCGStab:  Solving for Uz, Initial residual = 0.229302, Final residual = 0.0306563, No Iterations 5
[OGL LOG] init_preconditioner : 0 ms
[OGL LOG] solve : 1042 ms
BJompGKOBiCGStab:  Solving for p, Initial residual = 0.41147, Final residual = 9.83026e-07, No Iterations 253
time step continuity errors : sum local = 1.80813e-09, global = -4.12776e-20, cumulative = 2.99147e-20
[OGL LOG] init_preconditioner : 0 ms
[OGL LOG] solve : 1074 ms
BJompGKOBiCGStab:  Solving for p, Initial residual = 0.342712, Final residual = 8.2675e-07, No Iterations 259
time step continuity errors : sum local = 9.0772e-09, global = -5.94705e-21, cumulative = 2.39676e-20
ExecutionTime = 557.38 s  ClockTime = 11 s

Time = 0.01

Courant Number mean: 0.127339 max: 0.898876
nonePBiCGStab:  Solving for Ux, Initial residual = 0.0202772, Final residual = 0.00208591, No Iterations 5
nonePBiCGStab:  Solving for Uy, Initial residual = 0.0505604, Final residual = 0.00624011, No Iterations 5
nonePBiCGStab:  Solving for Uz, Initial residual = 0.11307, Final residual = 0.018177, No Iterations 5
[OGL LOG] init_preconditioner : 0 ms
[OGL LOG] solve : 1057 ms
BJompGKOBiCGStab:  Solving for p, Initial residual = 0.354069, Final residual = 3.01804e-07, No Iterations 256
time step continuity errors : sum local = 1.54833e-08, global = 8.60906e-21, cumulative = 3.25767e-20
[OGL LOG] init_preconditioner : 0 ms
[OGL LOG] solve : 1070 ms
BJompGKOBiCGStab:  Solving for p, Initial residual = 0.30223, Final residual = 2.73001e-07, No Iterations 252
time step continuity errors : sum local = 9.46975e-08, global = 3.99729e-20, cumulative = 7.25495e-20
ExecutionTime = 693.8 s  ClockTime = 14 s

End

