/*---------------------------------------------------------------------------*\
  =========                 |
  \\      /  F ield         | OpenFOAM: The Open Source CFD Toolbox
   \\    /   O peration     | Website:  https://openfoam.org
    \\  /    A nd           | Version:  8
     \\/     M anipulation  |
\*---------------------------------------------------------------------------*/
Build  : 8-13d66902f78c
Exec   : icoFoam
Date   : Jul 04 2021
Time   : 09:12:47
Host   : "uc2n423.localdomain"
PID    : 2482482
I/O    : uncollated
Case   : /pfs/data5/home/kit/scc/nq7776/code/OGL_DATA/lidDrivenCavity3D/v0.1-136-g40fef35/f584ccac99/IntelXeonGold6230CPU@2.10GHz/Test_2021-07-04-08:58:23/50/p-U-BiCGStab-GKO-BJ-omp/lidDrivenCavity3D
nProcs : 1
sigFpe : Enabling floating point exception trapping (FOAM_SIGFPE).
fileModificationChecking : Monitoring run-time modified files using timeStampMaster (fileModificationSkew 10)
allowSystemOperations : Allowing user-supplied system call operations

// * * * * * * * * * * * * * * * * * * * * * * * * * * * * * * * * * * * * * //
Create time

Create mesh for time = 0

Reading transportProperties

Reading field p

Reading field U

Reading/calculating face flux field phi


Starting time loop

Time = 0.002

Courant Number mean: 0 max: 0
[OGL LOG] init_host_sparsity_pattern : 36 ms
[OGL LOG] matrix not stored update host matrix
[OGL LOG] update_host_mtx : 18 ms
[OGL LOG] matrix is not yet sorted, compute sorting idxs
[OGL LOG] compute_sort : 989 ms
[OGL LOG] matrix is not yet sorted, sorting host matrix
[OGL LOG] sort_host_mtx_sparsity_pattern : 24 ms
[OGL LOG] sort_host_mtx : 15 ms
[OGL LOG] init_preconditioner : 18 ms
[OGL LOG] solve : 390 ms
BJompGKOBiCGStab:  Solving for Ux, Initial residual = 1, Final residual = 8.40984e-07, No Iterations 31
[OGL LOG] init_host_sparsity_pattern : 34 ms
[OGL LOG] matrix not stored update host matrix
[OGL LOG] update_host_mtx : 18 ms
[OGL LOG] matrix is not yet sorted, sorting host matrix
[OGL LOG] sort_host_mtx_sparsity_pattern : 23 ms
[OGL LOG] sort_host_mtx : 12 ms
[OGL LOG] init_preconditioner : 20 ms
[OGL LOG] solve : 10 ms
BJompGKOBiCGStab:  Solving for Uy, Initial residual = 0, Final residual = 0, No Iterations 0
[OGL LOG] init_host_sparsity_pattern : 33 ms
[OGL LOG] matrix not stored update host matrix
[OGL LOG] update_host_mtx : 15 ms
[OGL LOG] matrix is not yet sorted, sorting host matrix
[OGL LOG] sort_host_mtx_sparsity_pattern : 23 ms
[OGL LOG] sort_host_mtx : 12 ms
[OGL LOG] init_preconditioner : 19 ms
[OGL LOG] solve : 9 ms
BJompGKOBiCGStab:  Solving for Uz, Initial residual = 0, Final residual = 0, No Iterations 0
[OGL LOG] init_host_sparsity_pattern : 33 ms
[OGL LOG] matrix not stored update host matrix
[OGL LOG] update_host_mtx : 18 ms
[OGL LOG] matrix is not yet sorted, sorting host matrix
[OGL LOG] sort_host_mtx_sparsity_pattern : 22 ms
[OGL LOG] sort_host_mtx : 14 ms
[OGL LOG] init_preconditioner : 20 ms
[OGL LOG] solve : 3761 ms
BJompGKOBiCGStab:  Solving for p, Initial residual = 1, Final residual = 6.75597e-07, No Iterations 308
time step continuity errors : sum local = 8.1573e-09, global = 8.00845e-21, cumulative = 8.00845e-21
[OGL LOG] init_preconditioner : 0 ms
[OGL LOG] solve : 3406 ms
BJompGKOBiCGStab:  Solving for p, Initial residual = 0.72159, Final residual = 5.85107e-07, No Iterations 280
time step continuity errors : sum local = 1.0532e-07, global = -2.21886e-21, cumulative = 5.78959e-21
ExecutionTime = 17.29 s  ClockTime = 10 s

Time = 0.004

Courant Number mean: 0.0720723 max: 0.72664
[OGL LOG] init_host_sparsity_pattern : 33 ms
[OGL LOG] matrix not stored update host matrix
[OGL LOG] update_host_mtx : 16 ms
[OGL LOG] matrix is not yet sorted, sorting host matrix
[OGL LOG] sort_host_mtx_sparsity_pattern : 24 ms
[OGL LOG] sort_host_mtx : 13 ms
[OGL LOG] init_preconditioner : 0 ms
[OGL LOG] solve : 296 ms
BJompGKOBiCGStab:  Solving for Ux, Initial residual = 0.203459, Final residual = 5.5437e-07, No Iterations 23
[OGL LOG] init_host_sparsity_pattern : 33 ms
[OGL LOG] matrix not stored update host matrix
[OGL LOG] update_host_mtx : 15 ms
[OGL LOG] matrix is not yet sorted, sorting host matrix
[OGL LOG] sort_host_mtx_sparsity_pattern : 22 ms
[OGL LOG] sort_host_mtx : 13 ms
[OGL LOG] init_preconditioner : 0 ms
[OGL LOG] solve : 403 ms
BJompGKOBiCGStab:  Solving for Uy, Initial residual = 0.618436, Final residual = 9.27934e-07, No Iterations 32
[OGL LOG] init_host_sparsity_pattern : 33 ms
[OGL LOG] matrix not stored update host matrix
[OGL LOG] update_host_mtx : 15 ms
[OGL LOG] matrix is not yet sorted, sorting host matrix
[OGL LOG] sort_host_mtx_sparsity_pattern : 22 ms
[OGL LOG] sort_host_mtx : 12 ms
[OGL LOG] init_preconditioner : 0 ms
[OGL LOG] solve : 391 ms
BJompGKOBiCGStab:  Solving for Uz, Initial residual = 0.536111, Final residual = 9.99301e-07, No Iterations 31
[OGL LOG] init_preconditioner : 0 ms
[OGL LOG] solve : 3285 ms
BJompGKOBiCGStab:  Solving for p, Initial residual = 0.673342, Final residual = 9.99737e-07, No Iterations 268
time step continuity errors : sum local = 1.04379e-07, global = 5.04536e-21, cumulative = 1.0835e-20
[OGL LOG] init_preconditioner : 0 ms
[OGL LOG] solve : 3141 ms
BJompGKOBiCGStab:  Solving for p, Initial residual = 0.598903, Final residual = 9.60483e-07, No Iterations 258
time step continuity errors : sum local = 1.54351e-08, global = -9.05543e-21, cumulative = 1.77952e-21
ExecutionTime = 32.71 s  ClockTime = 18 s

Time = 0.006

Courant Number mean: 0.107408 max: 0.881754
[OGL LOG] init_host_sparsity_pattern : 33 ms
[OGL LOG] matrix not stored update host matrix
[OGL LOG] update_host_mtx : 17 ms
[OGL LOG] matrix is not yet sorted, sorting host matrix
[OGL LOG] sort_host_mtx_sparsity_pattern : 24 ms
[OGL LOG] sort_host_mtx : 13 ms
[OGL LOG] init_preconditioner : 0 ms
[OGL LOG] solve : 268 ms
BJompGKOBiCGStab:  Solving for Ux, Initial residual = 0.0995459, Final residual = 7.4856e-07, No Iterations 21
[OGL LOG] init_host_sparsity_pattern : 33 ms
[OGL LOG] matrix not stored update host matrix
[OGL LOG] update_host_mtx : 15 ms
[OGL LOG] matrix is not yet sorted, sorting host matrix
[OGL LOG] sort_host_mtx_sparsity_pattern : 22 ms
[OGL LOG] sort_host_mtx : 12 ms
[OGL LOG] init_preconditioner : 0 ms
[OGL LOG] solve : 367 ms
BJompGKOBiCGStab:  Solving for Uy, Initial residual = 0.250048, Final residual = 8.2432e-07, No Iterations 29
[OGL LOG] init_host_sparsity_pattern : 33 ms
[OGL LOG] matrix not stored update host matrix
[OGL LOG] update_host_mtx : 15 ms
[OGL LOG] matrix is not yet sorted, sorting host matrix
[OGL LOG] sort_host_mtx_sparsity_pattern : 22 ms
[OGL LOG] sort_host_mtx : 12 ms
[OGL LOG] init_preconditioner : 0 ms
[OGL LOG] solve : 403 ms
BJompGKOBiCGStab:  Solving for Uz, Initial residual = 0.541588, Final residual = 8.65694e-07, No Iterations 32
[OGL LOG] init_preconditioner : 0 ms
[OGL LOG] solve : 3264 ms
BJompGKOBiCGStab:  Solving for p, Initial residual = 0.606901, Final residual = 9.70949e-07, No Iterations 268
time step continuity errors : sum local = 3.23774e-09, global = 5.66902e-21, cumulative = 7.44854e-21
[OGL LOG] init_preconditioner : 0 ms
[OGL LOG] solve : 3081 ms
BJompGKOBiCGStab:  Solving for p, Initial residual = 0.560925, Final residual = 9.08041e-07, No Iterations 253
time step continuity errors : sum local = 2.43182e-09, global = -2.23635e-20, cumulative = -1.4915e-20
ExecutionTime = 47.86 s  ClockTime = 26 s

Time = 0.008

Courant Number mean: 0.123244 max: 0.890104
[OGL LOG] init_host_sparsity_pattern : 33 ms
[OGL LOG] matrix not stored update host matrix
[OGL LOG] update_host_mtx : 16 ms
[OGL LOG] matrix is not yet sorted, sorting host matrix
[OGL LOG] sort_host_mtx_sparsity_pattern : 23 ms
[OGL LOG] sort_host_mtx : 12 ms
[OGL LOG] init_preconditioner : 0 ms
[OGL LOG] solve : 319 ms
BJompGKOBiCGStab:  Solving for Ux, Initial residual = 0.0341354, Final residual = 7.90107e-07, No Iterations 25
[OGL LOG] init_host_sparsity_pattern : 33 ms
[OGL LOG] matrix not stored update host matrix
[OGL LOG] update_host_mtx : 15 ms
[OGL LOG] matrix is not yet sorted, sorting host matrix
[OGL LOG] sort_host_mtx_sparsity_pattern : 21 ms
[OGL LOG] sort_host_mtx : 12 ms
[OGL LOG] init_preconditioner : 0 ms
[OGL LOG] solve : 354 ms
BJompGKOBiCGStab:  Solving for Uy, Initial residual = 0.132383, Final residual = 8.14529e-07, No Iterations 28
[OGL LOG] init_host_sparsity_pattern : 33 ms
[OGL LOG] matrix not stored update host matrix
[OGL LOG] update_host_mtx : 15 ms
[OGL LOG] matrix is not yet sorted, sorting host matrix
[OGL LOG] sort_host_mtx_sparsity_pattern : 21 ms
[OGL LOG] sort_host_mtx : 12 ms
[OGL LOG] init_preconditioner : 0 ms
[OGL LOG] solve : 391 ms
BJompGKOBiCGStab:  Solving for Uz, Initial residual = 0.472605, Final residual = 9.26848e-07, No Iterations 31
[OGL LOG] init_preconditioner : 0 ms
[OGL LOG] solve : 3387 ms
BJompGKOBiCGStab:  Solving for p, Initial residual = 0.42303, Final residual = 7.0608e-07, No Iterations 279
time step continuity errors : sum local = 2.49282e-09, global = -3.36739e-20, cumulative = -4.85889e-20
[OGL LOG] init_preconditioner : 0 ms
[OGL LOG] solve : 3172 ms
BJompGKOBiCGStab:  Solving for p, Initial residual = 0.368358, Final residual = 7.44023e-07, No Iterations 261
time step continuity errors : sum local = 6.38157e-09, global = 1.78236e-20, cumulative = -3.07652e-20
ExecutionTime = 63.48 s  ClockTime = 34 s

Time = 0.01

Courant Number mean: 0.136096 max: 0.906942
[OGL LOG] init_host_sparsity_pattern : 33 ms
[OGL LOG] matrix not stored update host matrix
[OGL LOG] update_host_mtx : 15 ms
[OGL LOG] matrix is not yet sorted, sorting host matrix
[OGL LOG] sort_host_mtx_sparsity_pattern : 21 ms
[OGL LOG] sort_host_mtx : 12 ms
[OGL LOG] init_preconditioner : 0 ms
[OGL LOG] solve : 303 ms
BJompGKOBiCGStab:  Solving for Ux, Initial residual = 0.0230758, Final residual = 7.33201e-07, No Iterations 24
[OGL LOG] init_host_sparsity_pattern : 33 ms
[OGL LOG] matrix not stored update host matrix
[OGL LOG] update_host_mtx : 15 ms
[OGL LOG] matrix is not yet sorted, sorting host matrix
[OGL LOG] sort_host_mtx_sparsity_pattern : 21 ms
[OGL LOG] sort_host_mtx : 12 ms
[OGL LOG] init_preconditioner : 0 ms
[OGL LOG] solve : 315 ms
BJompGKOBiCGStab:  Solving for Uy, Initial residual = 0.048398, Final residual = 9.76552e-07, No Iterations 25
[OGL LOG] init_host_sparsity_pattern : 33 ms
[OGL LOG] matrix not stored update host matrix
[OGL LOG] update_host_mtx : 15 ms
[OGL LOG] matrix is not yet sorted, sorting host matrix
[OGL LOG] sort_host_mtx_sparsity_pattern : 21 ms
[OGL LOG] sort_host_mtx : 12 ms
[OGL LOG] init_preconditioner : 0 ms
[OGL LOG] solve : 354 ms
BJompGKOBiCGStab:  Solving for Uz, Initial residual = 0.159431, Final residual = 8.61766e-07, No Iterations 28
[OGL LOG] init_preconditioner : 0 ms
[OGL LOG] solve : 3074 ms
BJompGKOBiCGStab:  Solving for p, Initial residual = 0.361672, Final residual = 9.74791e-07, No Iterations 253
time step continuity errors : sum local = 1.65119e-09, global = 2.24968e-20, cumulative = -8.26842e-21
[OGL LOG] init_preconditioner : 0 ms
[OGL LOG] solve : 2971 ms
BJompGKOBiCGStab:  Solving for p, Initial residual = 0.333174, Final residual = 9.92093e-07, No Iterations 244
time step continuity errors : sum local = 1.39844e-09, global = -6.23638e-20, cumulative = -7.06322e-20
ExecutionTime = 77.89 s  ClockTime = 41 s

End

