/*---------------------------------------------------------------------------*\
  =========                 |
  \\      /  F ield         | OpenFOAM: The Open Source CFD Toolbox
   \\    /   O peration     | Website:  https://openfoam.org
    \\  /    A nd           | Version:  8
     \\/     M anipulation  |
\*---------------------------------------------------------------------------*/
Build  : 8-13d66902f78c
Exec   : icoFoam
Date   : Jul 04 2021
Time   : 08:52:34
Host   : "uc2n415.localdomain"
PID    : 2606947
I/O    : uncollated
Case   : /pfs/data5/home/kit/scc/nq7776/code/OGL_DATA/lidDrivenCavity3D/v0.1-136-g40fef35/f584ccac99/IntelXeonGold6230CPU@2.10GHz/Test_2021-07-04-08:36:30/50/p-U-BiCGStab-GKO-none-omp/lidDrivenCavity3D
nProcs : 1
sigFpe : Enabling floating point exception trapping (FOAM_SIGFPE).
fileModificationChecking : Monitoring run-time modified files using timeStampMaster (fileModificationSkew 10)
allowSystemOperations : Allowing user-supplied system call operations

// * * * * * * * * * * * * * * * * * * * * * * * * * * * * * * * * * * * * * //
Create time

Create mesh for time = 0

Reading transportProperties

Reading field p

Reading field U

Reading/calculating face flux field phi


Starting time loop

Time = 0.002

Courant Number mean: 0 max: 0
[OGL LOG] init_host_sparsity_pattern : 35 ms
[OGL LOG] matrix not stored update host matrix
[OGL LOG] update_host_mtx : 18 ms
[OGL LOG] matrix is not yet sorted, compute sorting idxs
[OGL LOG] compute_sort : 989 ms
[OGL LOG] matrix is not yet sorted, sorting host matrix
[OGL LOG] sort_host_mtx_sparsity_pattern : 24 ms
[OGL LOG] sort_host_mtx : 15 ms
[OGL LOG] init_preconditioner : 0 ms
[OGL LOG] solve : 140 ms
noneompGKOBiCGStab:  Solving for Ux, Initial residual = 1, Final residual = 8.72813e-07, No Iterations 41
[OGL LOG] init_host_sparsity_pattern : 35 ms
[OGL LOG] matrix not stored update host matrix
[OGL LOG] update_host_mtx : 18 ms
[OGL LOG] matrix is not yet sorted, sorting host matrix
[OGL LOG] sort_host_mtx_sparsity_pattern : 23 ms
[OGL LOG] sort_host_mtx : 12 ms
[OGL LOG] init_preconditioner : 0 ms
[OGL LOG] solve : 4 ms
noneompGKOBiCGStab:  Solving for Uy, Initial residual = 0, Final residual = 0, No Iterations 0
[OGL LOG] init_host_sparsity_pattern : 34 ms
[OGL LOG] matrix not stored update host matrix
[OGL LOG] update_host_mtx : 15 ms
[OGL LOG] matrix is not yet sorted, sorting host matrix
[OGL LOG] sort_host_mtx_sparsity_pattern : 23 ms
[OGL LOG] sort_host_mtx : 12 ms
[OGL LOG] init_preconditioner : 0 ms
[OGL LOG] solve : 3 ms
noneompGKOBiCGStab:  Solving for Uz, Initial residual = 0, Final residual = 0, No Iterations 0
[OGL LOG] init_host_sparsity_pattern : 33 ms
[OGL LOG] matrix not stored update host matrix
[OGL LOG] update_host_mtx : 18 ms
[OGL LOG] matrix is not yet sorted, sorting host matrix
[OGL LOG] sort_host_mtx_sparsity_pattern : 22 ms
[OGL LOG] sort_host_mtx : 14 ms
[OGL LOG] init_preconditioner : 0 ms
[OGL LOG] solve : 1020 ms
noneompGKOBiCGStab:  Solving for p, Initial residual = 1, Final residual = 4.87268e-07, No Iterations 345
time step continuity errors : sum local = 4.25469e-08, global = -9.08968e-21, cumulative = -9.08968e-21
[OGL LOG] init_preconditioner : 0 ms
[OGL LOG] solve : 920 ms
noneompGKOBiCGStab:  Solving for p, Initial residual = 0.721591, Final residual = 7.51613e-07, No Iterations 348
time step continuity errors : sum local = 7.71137e-08, global = -1.22882e-20, cumulative = -2.13778e-20
ExecutionTime = 35.96 s  ClockTime = 4 s

Time = 0.004

Courant Number mean: 0.0720722 max: 0.726639
[OGL LOG] init_host_sparsity_pattern : 33 ms
[OGL LOG] matrix not stored update host matrix
[OGL LOG] update_host_mtx : 16 ms
[OGL LOG] matrix is not yet sorted, sorting host matrix
[OGL LOG] sort_host_mtx_sparsity_pattern : 24 ms
[OGL LOG] sort_host_mtx : 12 ms
[OGL LOG] init_preconditioner : 0 ms
[OGL LOG] solve : 103 ms
noneompGKOBiCGStab:  Solving for Ux, Initial residual = 0.203471, Final residual = 6.79069e-07, No Iterations 38
[OGL LOG] init_host_sparsity_pattern : 33 ms
[OGL LOG] matrix not stored update host matrix
[OGL LOG] update_host_mtx : 15 ms
[OGL LOG] matrix is not yet sorted, sorting host matrix
[OGL LOG] sort_host_mtx_sparsity_pattern : 21 ms
[OGL LOG] sort_host_mtx : 12 ms
[OGL LOG] init_preconditioner : 0 ms
[OGL LOG] solve : 106 ms
noneompGKOBiCGStab:  Solving for Uy, Initial residual = 0.618425, Final residual = 6.03314e-07, No Iterations 39
[OGL LOG] init_host_sparsity_pattern : 33 ms
[OGL LOG] matrix not stored update host matrix
[OGL LOG] update_host_mtx : 15 ms
[OGL LOG] matrix is not yet sorted, sorting host matrix
[OGL LOG] sort_host_mtx_sparsity_pattern : 21 ms
[OGL LOG] sort_host_mtx : 12 ms
[OGL LOG] init_preconditioner : 0 ms
[OGL LOG] solve : 104 ms
noneompGKOBiCGStab:  Solving for Uz, Initial residual = 0.536508, Final residual = 8.66101e-07, No Iterations 38
[OGL LOG] init_preconditioner : 0 ms
[OGL LOG] solve : 964 ms
noneompGKOBiCGStab:  Solving for p, Initial residual = 0.673323, Final residual = 9.91427e-07, No Iterations 354
time step continuity errors : sum local = 2.12623e-08, global = -1.80659e-20, cumulative = -3.94437e-20
[OGL LOG] init_preconditioner : 0 ms
[OGL LOG] solve : 1042 ms
noneompGKOBiCGStab:  Solving for p, Initial residual = 0.598879, Final residual = 1.0928e-07, No Iterations 387
time step continuity errors : sum local = 4.73019e-07, global = 6.75199e-22, cumulative = -3.87685e-20
ExecutionTime = 73.83 s  ClockTime = 6 s

Time = 0.006

Courant Number mean: 0.107409 max: 0.881756
[OGL LOG] init_host_sparsity_pattern : 32 ms
[OGL LOG] matrix not stored update host matrix
[OGL LOG] update_host_mtx : 16 ms
[OGL LOG] matrix is not yet sorted, sorting host matrix
[OGL LOG] sort_host_mtx_sparsity_pattern : 23 ms
[OGL LOG] sort_host_mtx : 12 ms
[OGL LOG] init_preconditioner : 0 ms
[OGL LOG] solve : 95 ms
noneompGKOBiCGStab:  Solving for Ux, Initial residual = 0.0995893, Final residual = 6.54495e-07, No Iterations 35
[OGL LOG] init_host_sparsity_pattern : 33 ms
[OGL LOG] matrix not stored update host matrix
[OGL LOG] update_host_mtx : 15 ms
[OGL LOG] matrix is not yet sorted, sorting host matrix
[OGL LOG] sort_host_mtx_sparsity_pattern : 21 ms
[OGL LOG] sort_host_mtx : 12 ms
[OGL LOG] init_preconditioner : 0 ms
[OGL LOG] solve : 95 ms
noneompGKOBiCGStab:  Solving for Uy, Initial residual = 0.249921, Final residual = 6.88062e-07, No Iterations 35
[OGL LOG] init_host_sparsity_pattern : 33 ms
[OGL LOG] matrix not stored update host matrix
[OGL LOG] update_host_mtx : 15 ms
[OGL LOG] matrix is not yet sorted, sorting host matrix
[OGL LOG] sort_host_mtx_sparsity_pattern : 21 ms
[OGL LOG] sort_host_mtx : 12 ms
[OGL LOG] init_preconditioner : 0 ms
[OGL LOG] solve : 110 ms
noneompGKOBiCGStab:  Solving for Uz, Initial residual = 0.542136, Final residual = 2.02302e-07, No Iterations 41
[OGL LOG] init_preconditioner : 0 ms
[OGL LOG] solve : 980 ms
noneompGKOBiCGStab:  Solving for p, Initial residual = 0.606968, Final residual = 8.29031e-07, No Iterations 362
time step continuity errors : sum local = 2.01705e-08, global = 3.03807e-20, cumulative = -8.38777e-21
[OGL LOG] init_preconditioner : 0 ms
[OGL LOG] solve : 952 ms
noneompGKOBiCGStab:  Solving for p, Initial residual = 0.56081, Final residual = 9.21835e-07, No Iterations 351
time step continuity errors : sum local = 7.49588e-07, global = 9.51547e-21, cumulative = 1.12771e-21
ExecutionTime = 110.31 s  ClockTime = 9 s

Time = 0.008

Courant Number mean: 0.123244 max: 0.890102
[OGL LOG] init_host_sparsity_pattern : 32 ms
[OGL LOG] matrix not stored update host matrix
[OGL LOG] update_host_mtx : 15 ms
[OGL LOG] matrix is not yet sorted, sorting host matrix
[OGL LOG] sort_host_mtx_sparsity_pattern : 21 ms
[OGL LOG] sort_host_mtx : 12 ms
[OGL LOG] init_preconditioner : 0 ms
[OGL LOG] solve : 84 ms
noneompGKOBiCGStab:  Solving for Ux, Initial residual = 0.0341562, Final residual = 7.98095e-07, No Iterations 31
[OGL LOG] init_host_sparsity_pattern : 33 ms
[OGL LOG] matrix not stored update host matrix
[OGL LOG] update_host_mtx : 15 ms
[OGL LOG] matrix is not yet sorted, sorting host matrix
[OGL LOG] sort_host_mtx_sparsity_pattern : 21 ms
[OGL LOG] sort_host_mtx : 12 ms
[OGL LOG] init_preconditioner : 0 ms
[OGL LOG] solve : 105 ms
noneompGKOBiCGStab:  Solving for Uy, Initial residual = 0.132392, Final residual = 9.79749e-07, No Iterations 36
[OGL LOG] init_host_sparsity_pattern : 34 ms
[OGL LOG] matrix not stored update host matrix
[OGL LOG] update_host_mtx : 19 ms
[OGL LOG] matrix is not yet sorted, sorting host matrix
[OGL LOG] sort_host_mtx_sparsity_pattern : 22 ms
[OGL LOG] sort_host_mtx : 12 ms
[OGL LOG] init_preconditioner : 0 ms
[OGL LOG] solve : 106 ms
noneompGKOBiCGStab:  Solving for Uz, Initial residual = 0.47371, Final residual = 8.13505e-07, No Iterations 39
[OGL LOG] init_preconditioner : 0 ms
[OGL LOG] solve : 1078 ms
noneompGKOBiCGStab:  Solving for p, Initial residual = 0.423188, Final residual = 8.23836e-07, No Iterations 391
time step continuity errors : sum local = 2.06954e-08, global = -1.58146e-20, cumulative = -1.46869e-20
[OGL LOG] init_preconditioner : 0 ms
[OGL LOG] solve : 986 ms
noneompGKOBiCGStab:  Solving for p, Initial residual = 0.368497, Final residual = 5.2704e-07, No Iterations 364
time step continuity errors : sum local = 6.48028e-08, global = -4.53182e-20, cumulative = -6.00051e-20
ExecutionTime = 148.82 s  ClockTime = 12 s

Time = 0.01

Courant Number mean: 0.136096 max: 0.906944
[OGL LOG] init_host_sparsity_pattern : 32 ms
[OGL LOG] matrix not stored update host matrix
[OGL LOG] update_host_mtx : 15 ms
[OGL LOG] matrix is not yet sorted, sorting host matrix
[OGL LOG] sort_host_mtx_sparsity_pattern : 21 ms
[OGL LOG] sort_host_mtx : 12 ms
[OGL LOG] init_preconditioner : 0 ms
[OGL LOG] solve : 80 ms
noneompGKOBiCGStab:  Solving for Ux, Initial residual = 0.0230696, Final residual = 9.87264e-07, No Iterations 30
[OGL LOG] init_host_sparsity_pattern : 33 ms
[OGL LOG] matrix not stored update host matrix
[OGL LOG] update_host_mtx : 15 ms
[OGL LOG] matrix is not yet sorted, sorting host matrix
[OGL LOG] sort_host_mtx_sparsity_pattern : 21 ms
[OGL LOG] sort_host_mtx : 12 ms
[OGL LOG] init_preconditioner : 0 ms
[OGL LOG] solve : 87 ms
noneompGKOBiCGStab:  Solving for Uy, Initial residual = 0.0484759, Final residual = 8.05044e-07, No Iterations 32
[OGL LOG] init_host_sparsity_pattern : 33 ms
[OGL LOG] matrix not stored update host matrix
[OGL LOG] update_host_mtx : 16 ms
[OGL LOG] matrix is not yet sorted, sorting host matrix
[OGL LOG] sort_host_mtx_sparsity_pattern : 21 ms
[OGL LOG] sort_host_mtx : 12 ms
[OGL LOG] init_preconditioner : 0 ms
[OGL LOG] solve : 97 ms
noneompGKOBiCGStab:  Solving for Uz, Initial residual = 0.160237, Final residual = 8.68928e-07, No Iterations 33
[OGL LOG] init_preconditioner : 0 ms
[OGL LOG] solve : 887 ms
noneompGKOBiCGStab:  Solving for p, Initial residual = 0.36171, Final residual = 6.62328e-07, No Iterations 331
time step continuity errors : sum local = 6.57933e-08, global = 2.56017e-20, cumulative = -3.44033e-20
[OGL LOG] init_preconditioner : 0 ms
[OGL LOG] solve : 879 ms
noneompGKOBiCGStab:  Solving for p, Initial residual = 0.333163, Final residual = 8.10958e-07, No Iterations 326
time step continuity errors : sum local = 1.73733e-08, global = 3.20848e-20, cumulative = -2.3185e-21
ExecutionTime = 182.06 s  ClockTime = 14 s

End

