/*---------------------------------------------------------------------------*\
  =========                 |
  \\      /  F ield         | OpenFOAM: The Open Source CFD Toolbox
   \\    /   O peration     | Website:  https://openfoam.org
    \\  /    A nd           | Version:  8
     \\/     M anipulation  |
\*---------------------------------------------------------------------------*/
Build  : 8-13d66902f78c
Exec   : icoFoam
Date   : Jul 04 2021
Time   : 08:49:30
Host   : "uc2n415.localdomain"
PID    : 2606618
I/O    : uncollated
Case   : /pfs/data5/home/kit/scc/nq7776/code/OGL_DATA/lidDrivenCavity3D/v0.1-136-g40fef35/f584ccac99/IntelXeonGold6230CPU@2.10GHz/Test_2021-07-04-08:36:30/50/p-U-BiCGStab-GKO-none-omp/lidDrivenCavity3D
nProcs : 1
sigFpe : Enabling floating point exception trapping (FOAM_SIGFPE).
fileModificationChecking : Monitoring run-time modified files using timeStampMaster (fileModificationSkew 10)
allowSystemOperations : Allowing user-supplied system call operations

// * * * * * * * * * * * * * * * * * * * * * * * * * * * * * * * * * * * * * //
Create time

Create mesh for time = 0

Reading transportProperties

Reading field p

Reading field U

Reading/calculating face flux field phi


Starting time loop

Time = 0.002

Courant Number mean: 0 max: 0
[OGL LOG] init_host_sparsity_pattern : 36 ms
[OGL LOG] matrix not stored update host matrix
[OGL LOG] update_host_mtx : 18 ms
[OGL LOG] matrix is not yet sorted, compute sorting idxs
[OGL LOG] compute_sort : 997 ms
[OGL LOG] matrix is not yet sorted, sorting host matrix
[OGL LOG] sort_host_mtx_sparsity_pattern : 24 ms
[OGL LOG] sort_host_mtx : 15 ms
[OGL LOG] init_preconditioner : 0 ms
[OGL LOG] solve : 149 ms
noneompGKOBiCGStab:  Solving for Ux, Initial residual = 1, Final residual = 8.72813e-07, No Iterations 41
[OGL LOG] init_host_sparsity_pattern : 35 ms
[OGL LOG] matrix not stored update host matrix
[OGL LOG] update_host_mtx : 18 ms
[OGL LOG] matrix is not yet sorted, sorting host matrix
[OGL LOG] sort_host_mtx_sparsity_pattern : 23 ms
[OGL LOG] sort_host_mtx : 12 ms
[OGL LOG] init_preconditioner : 0 ms
[OGL LOG] solve : 4 ms
noneompGKOBiCGStab:  Solving for Uy, Initial residual = 0, Final residual = 0, No Iterations 0
[OGL LOG] init_host_sparsity_pattern : 33 ms
[OGL LOG] matrix not stored update host matrix
[OGL LOG] update_host_mtx : 16 ms
[OGL LOG] matrix is not yet sorted, sorting host matrix
[OGL LOG] sort_host_mtx_sparsity_pattern : 24 ms
[OGL LOG] sort_host_mtx : 13 ms
[OGL LOG] init_preconditioner : 0 ms
[OGL LOG] solve : 3 ms
noneompGKOBiCGStab:  Solving for Uz, Initial residual = 0, Final residual = 0, No Iterations 0
[OGL LOG] init_host_sparsity_pattern : 33 ms
[OGL LOG] matrix not stored update host matrix
[OGL LOG] update_host_mtx : 18 ms
[OGL LOG] matrix is not yet sorted, sorting host matrix
[OGL LOG] sort_host_mtx_sparsity_pattern : 22 ms
[OGL LOG] sort_host_mtx : 14 ms
[OGL LOG] init_preconditioner : 0 ms
[OGL LOG] solve : 1284 ms
noneompGKOBiCGStab:  Solving for p, Initial residual = 1, Final residual = 8.43708e-07, No Iterations 349
time step continuity errors : sum local = 8.10902e-09, global = -3.70931e-21, cumulative = -3.70931e-21
[OGL LOG] init_preconditioner : 0 ms
[OGL LOG] solve : 1231 ms
noneompGKOBiCGStab:  Solving for p, Initial residual = 0.721584, Final residual = 8.85703e-07, No Iterations 346
time step continuity errors : sum local = 9.30226e-09, global = 1.07441e-20, cumulative = 7.03476e-21
ExecutionTime = 12.75 s  ClockTime = 5 s

Time = 0.004

Courant Number mean: 0.0720722 max: 0.726639
[OGL LOG] init_host_sparsity_pattern : 33 ms
[OGL LOG] matrix not stored update host matrix
[OGL LOG] update_host_mtx : 16 ms
[OGL LOG] matrix is not yet sorted, sorting host matrix
[OGL LOG] sort_host_mtx_sparsity_pattern : 22 ms
[OGL LOG] sort_host_mtx : 12 ms
[OGL LOG] init_preconditioner : 0 ms
[OGL LOG] solve : 127 ms
noneompGKOBiCGStab:  Solving for Ux, Initial residual = 0.203468, Final residual = 9.59895e-07, No Iterations 35
[OGL LOG] init_host_sparsity_pattern : 33 ms
[OGL LOG] matrix not stored update host matrix
[OGL LOG] update_host_mtx : 16 ms
[OGL LOG] matrix is not yet sorted, sorting host matrix
[OGL LOG] sort_host_mtx_sparsity_pattern : 21 ms
[OGL LOG] sort_host_mtx : 12 ms
[OGL LOG] init_preconditioner : 0 ms
[OGL LOG] solve : 139 ms
noneompGKOBiCGStab:  Solving for Uy, Initial residual = 0.618428, Final residual = 8.33655e-07, No Iterations 38
[OGL LOG] init_host_sparsity_pattern : 33 ms
[OGL LOG] matrix not stored update host matrix
[OGL LOG] update_host_mtx : 16 ms
[OGL LOG] matrix is not yet sorted, sorting host matrix
[OGL LOG] sort_host_mtx_sparsity_pattern : 21 ms
[OGL LOG] sort_host_mtx : 12 ms
[OGL LOG] init_preconditioner : 0 ms
[OGL LOG] solve : 145 ms
noneompGKOBiCGStab:  Solving for Uz, Initial residual = 0.536425, Final residual = 6.31175e-07, No Iterations 37
[OGL LOG] init_preconditioner : 0 ms
[OGL LOG] solve : 1316 ms
noneompGKOBiCGStab:  Solving for p, Initial residual = 0.673318, Final residual = 8.47406e-07, No Iterations 364
time step continuity errors : sum local = 9.02602e-09, global = -1.41297e-20, cumulative = -7.09498e-21
[OGL LOG] init_preconditioner : 0 ms
[OGL LOG] solve : 1222 ms
noneompGKOBiCGStab:  Solving for p, Initial residual = 0.598886, Final residual = 7.86373e-07, No Iterations 338
time step continuity errors : sum local = 2.33919e-08, global = 1.23307e-21, cumulative = -5.86191e-21
ExecutionTime = 24.99 s  ClockTime = 8 s

Time = 0.006

Courant Number mean: 0.107408 max: 0.881755
[OGL LOG] init_host_sparsity_pattern : 33 ms
[OGL LOG] matrix not stored update host matrix
[OGL LOG] update_host_mtx : 16 ms
[OGL LOG] matrix is not yet sorted, sorting host matrix
[OGL LOG] sort_host_mtx_sparsity_pattern : 22 ms
[OGL LOG] sort_host_mtx : 12 ms
[OGL LOG] init_preconditioner : 0 ms
[OGL LOG] solve : 126 ms
noneompGKOBiCGStab:  Solving for Ux, Initial residual = 0.0995809, Final residual = 9.64902e-07, No Iterations 35
[OGL LOG] init_host_sparsity_pattern : 33 ms
[OGL LOG] matrix not stored update host matrix
[OGL LOG] update_host_mtx : 16 ms
[OGL LOG] matrix is not yet sorted, sorting host matrix
[OGL LOG] sort_host_mtx_sparsity_pattern : 21 ms
[OGL LOG] sort_host_mtx : 12 ms
[OGL LOG] init_preconditioner : 0 ms
[OGL LOG] solve : 135 ms
noneompGKOBiCGStab:  Solving for Uy, Initial residual = 0.249936, Final residual = 9.33478e-07, No Iterations 37
[OGL LOG] init_host_sparsity_pattern : 33 ms
[OGL LOG] matrix not stored update host matrix
[OGL LOG] update_host_mtx : 16 ms
[OGL LOG] matrix is not yet sorted, sorting host matrix
[OGL LOG] sort_host_mtx_sparsity_pattern : 21 ms
[OGL LOG] sort_host_mtx : 12 ms
[OGL LOG] init_preconditioner : 0 ms
[OGL LOG] solve : 148 ms
noneompGKOBiCGStab:  Solving for Uz, Initial residual = 0.541748, Final residual = 7.37558e-07, No Iterations 41
[OGL LOG] init_preconditioner : 0 ms
[OGL LOG] solve : 1321 ms
noneompGKOBiCGStab:  Solving for p, Initial residual = 0.606901, Final residual = 9.04979e-07, No Iterations 364
time step continuity errors : sum local = 1.56681e-08, global = 3.34769e-20, cumulative = 2.7615e-20
[OGL LOG] init_preconditioner : 0 ms
[OGL LOG] solve : 1301 ms
noneompGKOBiCGStab:  Solving for p, Initial residual = 0.560823, Final residual = 7.84153e-07, No Iterations 360
time step continuity errors : sum local = 1.68003e-08, global = -1.61841e-20, cumulative = 1.14308e-20
ExecutionTime = 37.56 s  ClockTime = 12 s

Time = 0.008

Courant Number mean: 0.123244 max: 0.890102
[OGL LOG] init_host_sparsity_pattern : 33 ms
[OGL LOG] matrix not stored update host matrix
[OGL LOG] update_host_mtx : 16 ms
[OGL LOG] matrix is not yet sorted, sorting host matrix
[OGL LOG] sort_host_mtx_sparsity_pattern : 24 ms
[OGL LOG] sort_host_mtx : 12 ms
[OGL LOG] init_preconditioner : 0 ms
[OGL LOG] solve : 116 ms
noneompGKOBiCGStab:  Solving for Ux, Initial residual = 0.0341472, Final residual = 8.39159e-07, No Iterations 31
[OGL LOG] init_host_sparsity_pattern : 33 ms
[OGL LOG] matrix not stored update host matrix
[OGL LOG] update_host_mtx : 16 ms
[OGL LOG] matrix is not yet sorted, sorting host matrix
[OGL LOG] sort_host_mtx_sparsity_pattern : 21 ms
[OGL LOG] sort_host_mtx : 12 ms
[OGL LOG] init_preconditioner : 0 ms
[OGL LOG] solve : 133 ms
noneompGKOBiCGStab:  Solving for Uy, Initial residual = 0.132381, Final residual = 8.36139e-07, No Iterations 36
[OGL LOG] init_host_sparsity_pattern : 33 ms
[OGL LOG] matrix not stored update host matrix
[OGL LOG] update_host_mtx : 16 ms
[OGL LOG] matrix is not yet sorted, sorting host matrix
[OGL LOG] sort_host_mtx_sparsity_pattern : 21 ms
[OGL LOG] sort_host_mtx : 12 ms
[OGL LOG] init_preconditioner : 0 ms
[OGL LOG] solve : 154 ms
noneompGKOBiCGStab:  Solving for Uz, Initial residual = 0.472784, Final residual = 8.48446e-07, No Iterations 41
[OGL LOG] init_preconditioner : 0 ms
[OGL LOG] solve : 1312 ms
noneompGKOBiCGStab:  Solving for p, Initial residual = 0.423053, Final residual = 5.87907e-07, No Iterations 363
time step continuity errors : sum local = 5.89505e-08, global = -1.76861e-20, cumulative = -6.25525e-21
[OGL LOG] init_preconditioner : 0 ms
[OGL LOG] solve : 1344 ms
noneompGKOBiCGStab:  Solving for p, Initial residual = 0.368406, Final residual = 9.07378e-07, No Iterations 372
time step continuity errors : sum local = 3.47107e-08, global = -1.44865e-20, cumulative = -2.07418e-20
ExecutionTime = 50.23 s  ClockTime = 15 s

Time = 0.01

Courant Number mean: 0.136096 max: 0.906943
[OGL LOG] init_host_sparsity_pattern : 33 ms
[OGL LOG] matrix not stored update host matrix
[OGL LOG] update_host_mtx : 16 ms
[OGL LOG] matrix is not yet sorted, sorting host matrix
[OGL LOG] sort_host_mtx_sparsity_pattern : 21 ms
[OGL LOG] sort_host_mtx : 12 ms
[OGL LOG] init_preconditioner : 0 ms
[OGL LOG] solve : 113 ms
noneompGKOBiCGStab:  Solving for Ux, Initial residual = 0.0230678, Final residual = 7.71322e-07, No Iterations 30
[OGL LOG] init_host_sparsity_pattern : 33 ms
[OGL LOG] matrix not stored update host matrix
[OGL LOG] update_host_mtx : 16 ms
[OGL LOG] matrix is not yet sorted, sorting host matrix
[OGL LOG] sort_host_mtx_sparsity_pattern : 21 ms
[OGL LOG] sort_host_mtx : 12 ms
[OGL LOG] init_preconditioner : 0 ms
[OGL LOG] solve : 121 ms
noneompGKOBiCGStab:  Solving for Uy, Initial residual = 0.0484399, Final residual = 8.26185e-07, No Iterations 32
[OGL LOG] init_host_sparsity_pattern : 33 ms
[OGL LOG] matrix not stored update host matrix
[OGL LOG] update_host_mtx : 16 ms
[OGL LOG] matrix is not yet sorted, sorting host matrix
[OGL LOG] sort_host_mtx_sparsity_pattern : 21 ms
[OGL LOG] sort_host_mtx : 12 ms
[OGL LOG] init_preconditioner : 0 ms
[OGL LOG] solve : 133 ms
noneompGKOBiCGStab:  Solving for Uz, Initial residual = 0.15925, Final residual = 5.89688e-07, No Iterations 36
[OGL LOG] init_preconditioner : 0 ms
[OGL LOG] solve : 1195 ms
noneompGKOBiCGStab:  Solving for p, Initial residual = 0.361656, Final residual = 4.30428e-07, No Iterations 331
time step continuity errors : sum local = 6.45179e-08, global = -2.18996e-21, cumulative = -2.29317e-20
[OGL LOG] init_preconditioner : 0 ms
[OGL LOG] solve : 1224 ms
noneompGKOBiCGStab:  Solving for p, Initial residual = 0.333133, Final residual = 8.53765e-07, No Iterations 339
time step continuity errors : sum local = 1.55588e-08, global = -5.27108e-22, cumulative = -2.34588e-20
ExecutionTime = 61.81 s  ClockTime = 18 s

End

