/*---------------------------------------------------------------------------*\
  =========                 |
  \\      /  F ield         | OpenFOAM: The Open Source CFD Toolbox
   \\    /   O peration     | Website:  https://openfoam.org
    \\  /    A nd           | Version:  8
     \\/     M anipulation  |
\*---------------------------------------------------------------------------*/
Build  : 8-13d66902f78c
Exec   : icoFoam
Date   : Jul 04 2021
Time   : 09:03:42
Host   : "uc2n446.localdomain"
PID    : 630365
I/O    : uncollated
Case   : /pfs/data5/home/kit/scc/nq7776/code/OGL_DATA/lidDrivenCavity3D/v0.1-136-g40fef35/f584ccac99/IntelXeonGold6230CPU@2.10GHz/Test_2021-07-04-09:02:32/50/p-BiCGStab-OF-none-reference/lidDrivenCavity3D
nProcs : 1
sigFpe : Enabling floating point exception trapping (FOAM_SIGFPE).
fileModificationChecking : Monitoring run-time modified files using timeStampMaster (fileModificationSkew 10)
allowSystemOperations : Allowing user-supplied system call operations

// * * * * * * * * * * * * * * * * * * * * * * * * * * * * * * * * * * * * * //
Create time

Create mesh for time = 0

Reading transportProperties

Reading field p

Reading field U

Reading/calculating face flux field phi


Starting time loop

Time = 0.002

Courant Number mean: 0 max: 0
nonePBiCGStab:  Solving for Ux, Initial residual = 1, Final residual = 0.0592055, No Iterations 5
nonePBiCGStab:  Solving for Uy, Initial residual = 0, Final residual = 0, No Iterations 0
nonePBiCGStab:  Solving for Uz, Initial residual = 0, Final residual = 0, No Iterations 0
nonePBiCGStab:  Solving for p, Initial residual = 1, Final residual = 8.99631e-07, No Iterations 356
time step continuity errors : sum local = 2.30784e-09, global = -8.89133e-21, cumulative = -8.89133e-21
nonePBiCGStab:  Solving for p, Initial residual = 0.676733, Final residual = 6.46138e-07, No Iterations 336
time step continuity errors : sum local = 2.32515e-09, global = -3.34192e-20, cumulative = -4.23105e-20
ExecutionTime = 2.53 s  ClockTime = 2 s

Time = 0.004

Courant Number mean: 0.0636233 max: 0.723792
nonePBiCGStab:  Solving for Ux, Initial residual = 0.144137, Final residual = 0.0219213, No Iterations 5
nonePBiCGStab:  Solving for Uy, Initial residual = 0.363931, Final residual = 0.0522824, No Iterations 5
nonePBiCGStab:  Solving for Uz, Initial residual = 0.973673, Final residual = 0.158951, No Iterations 5
nonePBiCGStab:  Solving for p, Initial residual = 0.668505, Final residual = 9.044e-07, No Iterations 350
time step continuity errors : sum local = 4.14129e-09, global = 1.18106e-20, cumulative = -3.04999e-20
nonePBiCGStab:  Solving for p, Initial residual = 0.584653, Final residual = 8.5303e-07, No Iterations 354
time step continuity errors : sum local = 4.00297e-09, global = -3.49615e-20, cumulative = -6.54614e-20
ExecutionTime = 4.62 s  ClockTime = 4 s

Time = 0.006

Courant Number mean: 0.0972275 max: 0.862515
nonePBiCGStab:  Solving for Ux, Initial residual = 0.052416, Final residual = 0.00685457, No Iterations 5
nonePBiCGStab:  Solving for Uy, Initial residual = 0.127056, Final residual = 0.0201209, No Iterations 5
nonePBiCGStab:  Solving for Uz, Initial residual = 0.36644, Final residual = 0.0529701, No Iterations 5
nonePBiCGStab:  Solving for p, Initial residual = 0.594551, Final residual = 9.92526e-07, No Iterations 372
time step continuity errors : sum local = 3.16147e-09, global = 9.51707e-21, cumulative = -5.59444e-20
nonePBiCGStab:  Solving for p, Initial residual = 0.528719, Final residual = 9.68983e-07, No Iterations 346
time step continuity errors : sum local = 2.98552e-09, global = -2.87498e-20, cumulative = -8.46941e-20
ExecutionTime = 6.79 s  ClockTime = 6 s

Time = 0.008

Courant Number mean: 0.113794 max: 0.88248
nonePBiCGStab:  Solving for Ux, Initial residual = 0.0289547, Final residual = 0.00344446, No Iterations 5
nonePBiCGStab:  Solving for Uy, Initial residual = 0.0844304, Final residual = 0.0109195, No Iterations 5
nonePBiCGStab:  Solving for Uz, Initial residual = 0.229294, Final residual = 0.0297775, No Iterations 5
nonePBiCGStab:  Solving for p, Initial residual = 0.411441, Final residual = 9.32568e-07, No Iterations 360
time step continuity errors : sum local = 2.84234e-09, global = -2.26196e-21, cumulative = -8.69561e-20
nonePBiCGStab:  Solving for p, Initial residual = 0.342687, Final residual = 8.6826e-07, No Iterations 358
time step continuity errors : sum local = 2.69587e-09, global = 4.06052e-20, cumulative = -4.63509e-20
ExecutionTime = 8.92 s  ClockTime = 9 s

Time = 0.01

Courant Number mean: 0.127339 max: 0.898876
nonePBiCGStab:  Solving for Ux, Initial residual = 0.0202757, Final residual = 0.00208474, No Iterations 5
nonePBiCGStab:  Solving for Uy, Initial residual = 0.0505602, Final residual = 0.00623608, No Iterations 5
nonePBiCGStab:  Solving for Uz, Initial residual = 0.112946, Final residual = 0.0180708, No Iterations 5
nonePBiCGStab:  Solving for p, Initial residual = 0.354049, Final residual = 8.69369e-07, No Iterations 323
time step continuity errors : sum local = 2.19375e-09, global = 2.21435e-20, cumulative = -2.42074e-20
nonePBiCGStab:  Solving for p, Initial residual = 0.302221, Final residual = 9.29175e-07, No Iterations 330
time step continuity errors : sum local = 2.29481e-09, global = 2.38818e-20, cumulative = -3.25677e-22
ExecutionTime = 10.89 s  ClockTime = 10 s

End

