/*---------------------------------------------------------------------------*\
  =========                 |
  \\      /  F ield         | OpenFOAM: The Open Source CFD Toolbox
   \\    /   O peration     | Website:  https://openfoam.org
    \\  /    A nd           | Version:  8
     \\/     M anipulation  |
\*---------------------------------------------------------------------------*/
Build  : 8-13d66902f78c
Exec   : icoFoam
Date   : Jul 04 2021
Time   : 07:26:39
Host   : "uc2n420.localdomain"
PID    : 1119187
I/O    : uncollated
Case   : /pfs/data5/home/kit/scc/nq7776/code/OGL_DATA/lidDrivenCavity3D/v0.1-136-g40fef35/f584ccac99/IntelXeonGold6230CPU@2.10GHz/Test_2021-07-04-07:18:41/50/p-BiCGStab-GKO-none-omp/lidDrivenCavity3D
nProcs : 1
sigFpe : Enabling floating point exception trapping (FOAM_SIGFPE).
fileModificationChecking : Monitoring run-time modified files using timeStampMaster (fileModificationSkew 10)
allowSystemOperations : Allowing user-supplied system call operations

// * * * * * * * * * * * * * * * * * * * * * * * * * * * * * * * * * * * * * //
Create time

Create mesh for time = 0

Reading transportProperties

Reading field p

Reading field U

Reading/calculating face flux field phi


Starting time loop

Time = 0.002

Courant Number mean: 0 max: 0
nonePBiCGStab:  Solving for Ux, Initial residual = 1, Final residual = 0.0592055, No Iterations 5
nonePBiCGStab:  Solving for Uy, Initial residual = 0, Final residual = 0, No Iterations 0
nonePBiCGStab:  Solving for Uz, Initial residual = 0, Final residual = 0, No Iterations 0
[OGL LOG] init_host_sparsity_pattern : 35 ms
[OGL LOG] matrix not stored update host matrix
[OGL LOG] update_host_mtx : 18 ms
[OGL LOG] matrix is not yet sorted, compute sorting idxs
[OGL LOG] compute_sort : 986 ms
[OGL LOG] matrix is not yet sorted, sorting host matrix
[OGL LOG] sort_host_mtx_sparsity_pattern : 23 ms
[OGL LOG] sort_host_mtx : 14 ms
[OGL LOG] init_preconditioner : 0 ms
[OGL LOG] solve : 2740 ms
noneompGKOBiCGStab:  Solving for p, Initial residual = 1, Final residual = 5.67034e-07, No Iterations 354
time step continuity errors : sum local = 5.27309e-08, global = -1.86554e-20, cumulative = -1.86554e-20
[OGL LOG] init_preconditioner : 0 ms
[OGL LOG] solve : 2579 ms
noneompGKOBiCGStab:  Solving for p, Initial residual = 0.676702, Final residual = 9.05482e-07, No Iterations 335
time step continuity errors : sum local = 4.94126e-08, global = 2.64574e-21, cumulative = -1.60097e-20
ExecutionTime = 6.99 s  ClockTime = 7 s

Time = 0.004

Courant Number mean: 0.0636234 max: 0.723792
nonePBiCGStab:  Solving for Ux, Initial residual = 0.144136, Final residual = 0.0219207, No Iterations 5
nonePBiCGStab:  Solving for Uy, Initial residual = 0.36393, Final residual = 0.0522853, No Iterations 5
nonePBiCGStab:  Solving for Uz, Initial residual = 0.973358, Final residual = 0.158942, No Iterations 5
[OGL LOG] init_preconditioner : 0 ms
[OGL LOG] solve : 2687 ms
noneompGKOBiCGStab:  Solving for p, Initial residual = 0.668498, Final residual = 8.46472e-07, No Iterations 349
time step continuity errors : sum local = 5.50151e-09, global = -9.39137e-21, cumulative = -2.5401e-20
[OGL LOG] init_preconditioner : 0 ms
[OGL LOG] solve : 2638 ms
noneompGKOBiCGStab:  Solving for p, Initial residual = 0.584653, Final residual = 6.37971e-07, No Iterations 342
time step continuity errors : sum local = 1.50251e-08, global = -2.38419e-21, cumulative = -2.77852e-20
ExecutionTime = 12.43 s  ClockTime = 12 s

Time = 0.006

Courant Number mean: 0.0972275 max: 0.862515
nonePBiCGStab:  Solving for Ux, Initial residual = 0.0524149, Final residual = 0.0068544, No Iterations 5
nonePBiCGStab:  Solving for Uy, Initial residual = 0.127061, Final residual = 0.0201222, No Iterations 5
nonePBiCGStab:  Solving for Uz, Initial residual = 0.366389, Final residual = 0.0529822, No Iterations 5
[OGL LOG] init_preconditioner : 0 ms
[OGL LOG] solve : 2634 ms
noneompGKOBiCGStab:  Solving for p, Initial residual = 0.59456, Final residual = 8.97497e-07, No Iterations 343
time step continuity errors : sum local = 8.62831e-09, global = 4.58662e-20, cumulative = 1.80809e-20
[OGL LOG] init_preconditioner : 0 ms
[OGL LOG] solve : 2654 ms
noneompGKOBiCGStab:  Solving for p, Initial residual = 0.52873, Final residual = 5.75317e-07, No Iterations 345
time step continuity errors : sum local = 9.23651e-09, global = -2.59689e-20, cumulative = -7.88799e-21
ExecutionTime = 17.84 s  ClockTime = 17 s

Time = 0.008

Courant Number mean: 0.113794 max: 0.88248
nonePBiCGStab:  Solving for Ux, Initial residual = 0.0289532, Final residual = 0.0034443, No Iterations 5
nonePBiCGStab:  Solving for Uy, Initial residual = 0.0844336, Final residual = 0.0109197, No Iterations 5
nonePBiCGStab:  Solving for Uz, Initial residual = 0.229472, Final residual = 0.0298251, No Iterations 5
[OGL LOG] init_preconditioner : 0 ms
[OGL LOG] solve : 2756 ms
noneompGKOBiCGStab:  Solving for p, Initial residual = 0.411449, Final residual = 8.56788e-07, No Iterations 357
time step continuity errors : sum local = 5.41236e-09, global = 2.28583e-20, cumulative = 1.49703e-20
[OGL LOG] init_preconditioner : 0 ms
[OGL LOG] solve : 2698 ms
noneompGKOBiCGStab:  Solving for p, Initial residual = 0.342687, Final residual = 9.24383e-07, No Iterations 351
time step continuity errors : sum local = 3.55196e-09, global = -1.00275e-20, cumulative = 4.94282e-21
ExecutionTime = 23.4 s  ClockTime = 23 s

Time = 0.01

Courant Number mean: 0.127339 max: 0.898876
nonePBiCGStab:  Solving for Ux, Initial residual = 0.0202754, Final residual = 0.00208479, No Iterations 5
nonePBiCGStab:  Solving for Uy, Initial residual = 0.0505611, Final residual = 0.00623635, No Iterations 5
nonePBiCGStab:  Solving for Uz, Initial residual = 0.113019, Final residual = 0.01808, No Iterations 5
[OGL LOG] init_preconditioner : 0 ms
[OGL LOG] solve : 2538 ms
noneompGKOBiCGStab:  Solving for p, Initial residual = 0.35405, Final residual = 7.02967e-07, No Iterations 332
time step continuity errors : sum local = 4.68348e-09, global = -4.98178e-20, cumulative = -4.4875e-20
[OGL LOG] init_preconditioner : 0 ms
[OGL LOG] solve : 2712 ms
noneompGKOBiCGStab:  Solving for p, Initial residual = 0.302223, Final residual = 9.48747e-07, No Iterations 316
time step continuity errors : sum local = 1.57484e-08, global = -5.87953e-21, cumulative = -5.07545e-20
ExecutionTime = 28.47 s  ClockTime = 28 s

End

