/*---------------------------------------------------------------------------*\
  =========                 |
  \\      /  F ield         | OpenFOAM: The Open Source CFD Toolbox
   \\    /   O peration     | Website:  https://openfoam.org
    \\  /    A nd           | Version:  8
     \\/     M anipulation  |
\*---------------------------------------------------------------------------*/
Build  : 8-13d66902f78c
Exec   : icoFoam
Date   : Jul 12 2021
Time   : 16:06:16
Host   : "uc2n387.localdomain"
PID    : 14013
I/O    : uncollated
Case   : /pfs/data5/home/kit/scc/nq7776/code/OGL_DATA/lidDrivenCavity3D/v0.1-136-g40fef35/f584ccac99/IntelXeonGold6230CPU@2.10GHz/Test_2021-07-12-15:55:34/100/p-U-BiCGStab-OF-none-reference/lidDrivenCavity3D
nProcs : 1
sigFpe : Enabling floating point exception trapping (FOAM_SIGFPE).
fileModificationChecking : Monitoring run-time modified files using timeStampMaster (fileModificationSkew 10)
allowSystemOperations : Allowing user-supplied system call operations

// * * * * * * * * * * * * * * * * * * * * * * * * * * * * * * * * * * * * * //
Create time

Create mesh for time = 0

Reading transportProperties

Reading field p

Reading field U

Reading/calculating face flux field phi


Starting time loop

Time = 0.001

Courant Number mean: 0 max: 0
nonePBiCGStab:  Solving for Ux, Initial residual = 1, Final residual = 9.96889e-07, No Iterations 55
nonePBiCGStab:  Solving for Uy, Initial residual = 0, Final residual = 0, No Iterations 0
nonePBiCGStab:  Solving for Uz, Initial residual = 0, Final residual = 0, No Iterations 0
nonePBiCGStab:  Solving for p, Initial residual = 1, Final residual = 6.95364e-07, No Iterations 761
time step continuity errors : sum local = 8.33808e-10, global = 4.70341e-21, cumulative = 4.70341e-21
nonePBiCGStab:  Solving for p, Initial residual = 0.783581, Final residual = 9.25067e-07, No Iterations 710
time step continuity errors : sum local = 1.38678e-09, global = 8.67833e-21, cumulative = 1.33817e-20
ExecutionTime = 45.16 s  ClockTime = 45 s

Time = 0.002

Courant Number mean: 0.0571435 max: 0.804774
nonePBiCGStab:  Solving for Ux, Initial residual = 0.140431, Final residual = 9.46325e-07, No Iterations 47
nonePBiCGStab:  Solving for Uy, Initial residual = 0.429361, Final residual = 7.20144e-07, No Iterations 52
nonePBiCGStab:  Solving for Uz, Initial residual = 0.990558, Final residual = 9.6372e-07, No Iterations 59
nonePBiCGStab:  Solving for p, Initial residual = 0.798484, Final residual = 2.7695e-07, No Iterations 686
time step continuity errors : sum local = 5.32356e-10, global = -1.33938e-20, cumulative = -1.20925e-23
nonePBiCGStab:  Solving for p, Initial residual = 0.738452, Final residual = 9.68665e-07, No Iterations 768
time step continuity errors : sum local = 2.01294e-09, global = -5.33014e-21, cumulative = -5.34223e-21
ExecutionTime = 89.15 s  ClockTime = 89 s

Time = 0.003

Courant Number mean: 0.0867389 max: 0.94479
nonePBiCGStab:  Solving for Ux, Initial residual = 0.0658851, Final residual = 7.56109e-07, No Iterations 47
nonePBiCGStab:  Solving for Uy, Initial residual = 0.228213, Final residual = 6.91713e-07, No Iterations 49
nonePBiCGStab:  Solving for Uz, Initial residual = 0.809516, Final residual = 5.23863e-07, No Iterations 55
nonePBiCGStab:  Solving for p, Initial residual = 0.831853, Final residual = 8.37496e-07, No Iterations 732
time step continuity errors : sum local = 1.60833e-09, global = 1.74417e-20, cumulative = 1.20995e-20
nonePBiCGStab:  Solving for p, Initial residual = 0.802209, Final residual = 7.26353e-07, No Iterations 751
time step continuity errors : sum local = 1.35981e-09, global = 3.35472e-21, cumulative = 1.54542e-20
ExecutionTime = 133.65 s  ClockTime = 134 s

Time = 0.004

Courant Number mean: 0.0995269 max: 0.926339
nonePBiCGStab:  Solving for Ux, Initial residual = 0.0395671, Final residual = 9.17729e-07, No Iterations 46
nonePBiCGStab:  Solving for Uy, Initial residual = 0.171311, Final residual = 9.65391e-07, No Iterations 46
nonePBiCGStab:  Solving for Uz, Initial residual = 0.629515, Final residual = 9.23738e-07, No Iterations 56
nonePBiCGStab:  Solving for p, Initial residual = 0.747318, Final residual = 9.8955e-07, No Iterations 731
time step continuity errors : sum local = 1.74288e-09, global = -5.10561e-21, cumulative = 1.03486e-20
nonePBiCGStab:  Solving for p, Initial residual = 0.681773, Final residual = 2.8907e-07, No Iterations 763
time step continuity errors : sum local = 4.15622e-10, global = 2.08181e-22, cumulative = 1.05568e-20
ExecutionTime = 178.28 s  ClockTime = 179 s

Time = 0.005

Courant Number mean: 0.112162 max: 0.94592
nonePBiCGStab:  Solving for Ux, Initial residual = 0.0308337, Final residual = 8.05293e-07, No Iterations 47
nonePBiCGStab:  Solving for Uy, Initial residual = 0.0979236, Final residual = 8.72976e-07, No Iterations 47
nonePBiCGStab:  Solving for Uz, Initial residual = 0.595274, Final residual = 8.29458e-07, No Iterations 59
nonePBiCGStab:  Solving for p, Initial residual = 0.756587, Final residual = 5.06308e-07, No Iterations 760
time step continuity errors : sum local = 7.52402e-10, global = 9.43891e-21, cumulative = 1.99957e-20
nonePBiCGStab:  Solving for p, Initial residual = 0.708034, Final residual = 9.42916e-07, No Iterations 743
time step continuity errors : sum local = 1.37839e-09, global = 7.58378e-22, cumulative = 2.07541e-20
ExecutionTime = 223.41 s  ClockTime = 224 s

End

