/*---------------------------------------------------------------------------*\
  =========                 |
  \\      /  F ield         | OpenFOAM: The Open Source CFD Toolbox
   \\    /   O peration     | Website:  https://openfoam.org
    \\  /    A nd           | Version:  8
     \\/     M anipulation  |
\*---------------------------------------------------------------------------*/
Build  : 8-13d66902f78c
Exec   : icoFoam
Date   : Jul 12 2021
Time   : 13:27:31
Host   : "uc2n445.localdomain"
PID    : 3207482
I/O    : uncollated
Case   : /pfs/data5/home/kit/scc/nq7776/code/OGL_DATA/lidDrivenCavity3D/v0.1-136-g40fef35/f584ccac99/IntelXeonGold6230CPU@2.10GHz/Test_2021-07-12-13:12:59/50/p-U-BiCGStab-GKO-BJ-omp/lidDrivenCavity3D
nProcs : 1
sigFpe : Enabling floating point exception trapping (FOAM_SIGFPE).
fileModificationChecking : Monitoring run-time modified files using timeStampMaster (fileModificationSkew 10)
allowSystemOperations : Allowing user-supplied system call operations

// * * * * * * * * * * * * * * * * * * * * * * * * * * * * * * * * * * * * * //
Create time

Create mesh for time = 0

Reading transportProperties

Reading field p

Reading field U

Reading/calculating face flux field phi


Starting time loop

Time = 0.002

Courant Number mean: 0 max: 0
[OGL LOG] init_host_sparsity_pattern : 35 ms
[OGL LOG] matrix not stored update host matrix
[OGL LOG] update_host_mtx : 18 ms
[OGL LOG] matrix is not yet sorted, compute sorting idxs
[OGL LOG] compute_sort : 986 ms
[OGL LOG] matrix is not yet sorted, sorting host matrix
[OGL LOG] sort_host_mtx_sparsity_pattern : 23 ms
[OGL LOG] sort_host_mtx : 14 ms
[OGL LOG] init_preconditioner : 18 ms
[OGL LOG] solve : 385 ms
BJompGKOBiCGStab:  Solving for Ux, Initial residual = 1, Final residual = 8.40984e-07, No Iterations 31
[OGL LOG] init_host_sparsity_pattern : 35 ms
[OGL LOG] matrix not stored update host matrix
[OGL LOG] update_host_mtx : 18 ms
[OGL LOG] matrix is not yet sorted, sorting host matrix
[OGL LOG] sort_host_mtx_sparsity_pattern : 23 ms
[OGL LOG] sort_host_mtx : 12 ms
[OGL LOG] init_preconditioner : 17 ms
[OGL LOG] solve : 9 ms
BJompGKOBiCGStab:  Solving for Uy, Initial residual = 0, Final residual = 0, No Iterations 0
[OGL LOG] init_host_sparsity_pattern : 33 ms
[OGL LOG] matrix not stored update host matrix
[OGL LOG] update_host_mtx : 15 ms
[OGL LOG] matrix is not yet sorted, sorting host matrix
[OGL LOG] sort_host_mtx_sparsity_pattern : 23 ms
[OGL LOG] sort_host_mtx : 12 ms
[OGL LOG] init_preconditioner : 17 ms
[OGL LOG] solve : 9 ms
BJompGKOBiCGStab:  Solving for Uz, Initial residual = 0, Final residual = 0, No Iterations 0
[OGL LOG] init_host_sparsity_pattern : 32 ms
[OGL LOG] matrix not stored update host matrix
[OGL LOG] update_host_mtx : 18 ms
[OGL LOG] matrix is not yet sorted, sorting host matrix
[OGL LOG] sort_host_mtx_sparsity_pattern : 22 ms
[OGL LOG] sort_host_mtx : 13 ms
[OGL LOG] init_preconditioner : 18 ms
[OGL LOG] solve : 3611 ms
BJompGKOBiCGStab:  Solving for p, Initial residual = 1, Final residual = 6.75597e-07, No Iterations 308
time step continuity errors : sum local = 1.77298e-08, global = 8.0068e-21, cumulative = 8.0068e-21
[OGL LOG] init_preconditioner : 0 ms
[OGL LOG] solve : 3131 ms
BJompGKOBiCGStab:  Solving for p, Initial residual = 0.721588, Final residual = 6.06266e-07, No Iterations 267
time step continuity errors : sum local = 1.46332e-07, global = 2.51355e-20, cumulative = 3.31423e-20
ExecutionTime = 16.45 s  ClockTime = 9 s

Time = 0.004

Courant Number mean: 0.0720723 max: 0.72664
[OGL LOG] init_host_sparsity_pattern : 33 ms
[OGL LOG] matrix not stored update host matrix
[OGL LOG] update_host_mtx : 16 ms
[OGL LOG] matrix is not yet sorted, sorting host matrix
[OGL LOG] sort_host_mtx_sparsity_pattern : 25 ms
[OGL LOG] sort_host_mtx : 13 ms
[OGL LOG] init_preconditioner : 0 ms
[OGL LOG] solve : 281 ms
BJompGKOBiCGStab:  Solving for Ux, Initial residual = 0.203454, Final residual = 5.5264e-07, No Iterations 23
[OGL LOG] init_host_sparsity_pattern : 33 ms
[OGL LOG] matrix not stored update host matrix
[OGL LOG] update_host_mtx : 15 ms
[OGL LOG] matrix is not yet sorted, sorting host matrix
[OGL LOG] sort_host_mtx_sparsity_pattern : 22 ms
[OGL LOG] sort_host_mtx : 12 ms
[OGL LOG] init_preconditioner : 0 ms
[OGL LOG] solve : 386 ms
BJompGKOBiCGStab:  Solving for Uy, Initial residual = 0.61844, Final residual = 9.29506e-07, No Iterations 32
[OGL LOG] init_host_sparsity_pattern : 33 ms
[OGL LOG] matrix not stored update host matrix
[OGL LOG] update_host_mtx : 15 ms
[OGL LOG] matrix is not yet sorted, sorting host matrix
[OGL LOG] sort_host_mtx_sparsity_pattern : 22 ms
[OGL LOG] sort_host_mtx : 12 ms
[OGL LOG] init_preconditioner : 0 ms
[OGL LOG] solve : 385 ms
BJompGKOBiCGStab:  Solving for Uz, Initial residual = 0.536118, Final residual = 9.98336e-07, No Iterations 31
[OGL LOG] init_preconditioner : 0 ms
[OGL LOG] solve : 3137 ms
BJompGKOBiCGStab:  Solving for p, Initial residual = 0.673344, Final residual = 8.12469e-07, No Iterations 268
time step continuity errors : sum local = 2.59812e-09, global = 5.20282e-20, cumulative = 8.51705e-20
[OGL LOG] init_preconditioner : 0 ms
[OGL LOG] solve : 3007 ms
BJompGKOBiCGStab:  Solving for p, Initial residual = 0.598925, Final residual = 9.12564e-07, No Iterations 257
time step continuity errors : sum local = 1.76354e-08, global = 6.4826e-20, cumulative = 1.49996e-19
ExecutionTime = 31.25 s  ClockTime = 17 s

Time = 0.006

Courant Number mean: 0.107408 max: 0.881754
[OGL LOG] init_host_sparsity_pattern : 34 ms
[OGL LOG] matrix not stored update host matrix
[OGL LOG] update_host_mtx : 17 ms
[OGL LOG] matrix is not yet sorted, sorting host matrix
[OGL LOG] sort_host_mtx_sparsity_pattern : 24 ms
[OGL LOG] sort_host_mtx : 13 ms
[OGL LOG] init_preconditioner : 0 ms
[OGL LOG] solve : 256 ms
BJompGKOBiCGStab:  Solving for Ux, Initial residual = 0.09955, Final residual = 7.268e-07, No Iterations 21
[OGL LOG] init_host_sparsity_pattern : 33 ms
[OGL LOG] matrix not stored update host matrix
[OGL LOG] update_host_mtx : 16 ms
[OGL LOG] matrix is not yet sorted, sorting host matrix
[OGL LOG] sort_host_mtx_sparsity_pattern : 22 ms
[OGL LOG] sort_host_mtx : 12 ms
[OGL LOG] init_preconditioner : 0 ms
[OGL LOG] solve : 353 ms
BJompGKOBiCGStab:  Solving for Uy, Initial residual = 0.250034, Final residual = 8.27463e-07, No Iterations 29
[OGL LOG] init_host_sparsity_pattern : 33 ms
[OGL LOG] matrix not stored update host matrix
[OGL LOG] update_host_mtx : 16 ms
[OGL LOG] matrix is not yet sorted, sorting host matrix
[OGL LOG] sort_host_mtx_sparsity_pattern : 22 ms
[OGL LOG] sort_host_mtx : 12 ms
[OGL LOG] init_preconditioner : 0 ms
[OGL LOG] solve : 385 ms
BJompGKOBiCGStab:  Solving for Uz, Initial residual = 0.541699, Final residual = 9.00707e-07, No Iterations 32
[OGL LOG] init_preconditioner : 0 ms
[OGL LOG] solve : 3090 ms
BJompGKOBiCGStab:  Solving for p, Initial residual = 0.606892, Final residual = 9.93532e-07, No Iterations 264
time step continuity errors : sum local = 4.96792e-09, global = -1.96879e-20, cumulative = 1.30309e-19
[OGL LOG] init_preconditioner : 0 ms
[OGL LOG] solve : 3150 ms
BJompGKOBiCGStab:  Solving for p, Initial residual = 0.560887, Final residual = 8.4901e-07, No Iterations 269
time step continuity errors : sum local = 2.04124e-09, global = 1.34416e-20, cumulative = 1.4375e-19
ExecutionTime = 46.1 s  ClockTime = 25 s

Time = 0.008

Courant Number mean: 0.123244 max: 0.890103
[OGL LOG] init_host_sparsity_pattern : 33 ms
[OGL LOG] matrix not stored update host matrix
[OGL LOG] update_host_mtx : 15 ms
[OGL LOG] matrix is not yet sorted, sorting host matrix
[OGL LOG] sort_host_mtx_sparsity_pattern : 21 ms
[OGL LOG] sort_host_mtx : 12 ms
[OGL LOG] init_preconditioner : 0 ms
[OGL LOG] solve : 302 ms
BJompGKOBiCGStab:  Solving for Ux, Initial residual = 0.0341392, Final residual = 7.81391e-07, No Iterations 25
[OGL LOG] init_host_sparsity_pattern : 33 ms
[OGL LOG] matrix not stored update host matrix
[OGL LOG] update_host_mtx : 15 ms
[OGL LOG] matrix is not yet sorted, sorting host matrix
[OGL LOG] sort_host_mtx_sparsity_pattern : 21 ms
[OGL LOG] sort_host_mtx : 12 ms
[OGL LOG] init_preconditioner : 0 ms
[OGL LOG] solve : 338 ms
BJompGKOBiCGStab:  Solving for Uy, Initial residual = 0.132379, Final residual = 8.1435e-07, No Iterations 28
[OGL LOG] init_host_sparsity_pattern : 33 ms
[OGL LOG] matrix not stored update host matrix
[OGL LOG] update_host_mtx : 15 ms
[OGL LOG] matrix is not yet sorted, sorting host matrix
[OGL LOG] sort_host_mtx_sparsity_pattern : 21 ms
[OGL LOG] sort_host_mtx : 12 ms
[OGL LOG] init_preconditioner : 0 ms
[OGL LOG] solve : 375 ms
BJompGKOBiCGStab:  Solving for Uz, Initial residual = 0.472133, Final residual = 9.37246e-07, No Iterations 31
[OGL LOG] init_preconditioner : 0 ms
[OGL LOG] solve : 3121 ms
BJompGKOBiCGStab:  Solving for p, Initial residual = 0.42303, Final residual = 8.56806e-07, No Iterations 266
time step continuity errors : sum local = 1.45e-09, global = -5.48227e-21, cumulative = 1.38268e-19
[OGL LOG] init_preconditioner : 0 ms
[OGL LOG] solve : 3098 ms
BJompGKOBiCGStab:  Solving for p, Initial residual = 0.368363, Final residual = 9.95013e-07, No Iterations 264
time step continuity errors : sum local = 2.17619e-09, global = -3.12281e-20, cumulative = 1.0704e-19
ExecutionTime = 60.94 s  ClockTime = 32 s

Time = 0.01

Courant Number mean: 0.136096 max: 0.906942
[OGL LOG] init_host_sparsity_pattern : 33 ms
[OGL LOG] matrix not stored update host matrix
[OGL LOG] update_host_mtx : 15 ms
[OGL LOG] matrix is not yet sorted, sorting host matrix
[OGL LOG] sort_host_mtx_sparsity_pattern : 23 ms
[OGL LOG] sort_host_mtx : 12 ms
[OGL LOG] init_preconditioner : 0 ms
[OGL LOG] solve : 286 ms
BJompGKOBiCGStab:  Solving for Ux, Initial residual = 0.023075, Final residual = 9.99669e-07, No Iterations 24
[OGL LOG] init_host_sparsity_pattern : 33 ms
[OGL LOG] matrix not stored update host matrix
[OGL LOG] update_host_mtx : 15 ms
[OGL LOG] matrix is not yet sorted, sorting host matrix
[OGL LOG] sort_host_mtx_sparsity_pattern : 21 ms
[OGL LOG] sort_host_mtx : 12 ms
[OGL LOG] init_preconditioner : 0 ms
[OGL LOG] solve : 304 ms
BJompGKOBiCGStab:  Solving for Uy, Initial residual = 0.0484031, Final residual = 9.76848e-07, No Iterations 25
[OGL LOG] init_host_sparsity_pattern : 33 ms
[OGL LOG] matrix not stored update host matrix
[OGL LOG] update_host_mtx : 15 ms
[OGL LOG] matrix is not yet sorted, sorting host matrix
[OGL LOG] sort_host_mtx_sparsity_pattern : 21 ms
[OGL LOG] sort_host_mtx : 12 ms
[OGL LOG] init_preconditioner : 0 ms
[OGL LOG] solve : 339 ms
BJompGKOBiCGStab:  Solving for Uz, Initial residual = 0.159221, Final residual = 8.56168e-07, No Iterations 28
[OGL LOG] init_preconditioner : 0 ms
[OGL LOG] solve : 2953 ms
BJompGKOBiCGStab:  Solving for p, Initial residual = 0.361669, Final residual = 9.97146e-07, No Iterations 252
time step continuity errors : sum local = 1.41186e-09, global = 2.19513e-20, cumulative = 1.28991e-19
[OGL LOG] init_preconditioner : 0 ms
[OGL LOG] solve : 2947 ms
BJompGKOBiCGStab:  Solving for p, Initial residual = 0.333168, Final residual = 9.23741e-07, No Iterations 251
time step continuity errors : sum local = 1.57419e-09, global = -1.2092e-20, cumulative = 1.16899e-19
ExecutionTime = 74.98 s  ClockTime = 39 s

End

