/*---------------------------------------------------------------------------*\
  =========                 |
  \\      /  F ield         | OpenFOAM: The Open Source CFD Toolbox
   \\    /   O peration     | Website:  https://openfoam.org
    \\  /    A nd           | Version:  8
     \\/     M anipulation  |
\*---------------------------------------------------------------------------*/
Build  : 8-13d66902f78c
Exec   : icoFoam
Date   : Jul 12 2021
Time   : 14:05:06
Host   : "uc2n400.localdomain"
PID    : 3897797
I/O    : uncollated
Case   : /pfs/data5/home/kit/scc/nq7776/code/OGL_DATA/lidDrivenCavity3D/v0.1-136-g40fef35/f584ccac99/IntelXeonGold6230CPU@2.10GHz/Test_2021-07-12-12:50:00/75/p-U-BiCGStab-GKO-none-omp/lidDrivenCavity3D
nProcs : 1
sigFpe : Enabling floating point exception trapping (FOAM_SIGFPE).
fileModificationChecking : Monitoring run-time modified files using timeStampMaster (fileModificationSkew 10)
allowSystemOperations : Allowing user-supplied system call operations

// * * * * * * * * * * * * * * * * * * * * * * * * * * * * * * * * * * * * * //
Create time

Create mesh for time = 0

Reading transportProperties

Reading field p

Reading field U

Reading/calculating face flux field phi


Starting time loop

Time = 0.00133333

Courant Number mean: 0 max: 0
[OGL LOG] init_host_sparsity_pattern : 123 ms
[OGL LOG] matrix not stored update host matrix
[OGL LOG] update_host_mtx : 61 ms
[OGL LOG] matrix is not yet sorted, compute sorting idxs
[OGL LOG] compute_sort : 3636 ms
[OGL LOG] matrix is not yet sorted, sorting host matrix
[OGL LOG] sort_host_mtx_sparsity_pattern : 78 ms
[OGL LOG] sort_host_mtx : 52 ms
[OGL LOG] init_preconditioner : 0 ms
[OGL LOG] solve : 640 ms
noneompGKOBiCGStab:  Solving for Ux, Initial residual = 1, Final residual = 3.51283e-07, No Iterations 51
[OGL LOG] init_host_sparsity_pattern : 119 ms
[OGL LOG] matrix not stored update host matrix
[OGL LOG] update_host_mtx : 61 ms
[OGL LOG] matrix is not yet sorted, sorting host matrix
[OGL LOG] sort_host_mtx_sparsity_pattern : 80 ms
[OGL LOG] sort_host_mtx : 43 ms
[OGL LOG] init_preconditioner : 0 ms
[OGL LOG] solve : 17 ms
noneompGKOBiCGStab:  Solving for Uy, Initial residual = 0, Final residual = 0, No Iterations 0
[OGL LOG] init_host_sparsity_pattern : 114 ms
[OGL LOG] matrix not stored update host matrix
[OGL LOG] update_host_mtx : 53 ms
[OGL LOG] matrix is not yet sorted, sorting host matrix
[OGL LOG] sort_host_mtx_sparsity_pattern : 81 ms
[OGL LOG] sort_host_mtx : 43 ms
[OGL LOG] init_preconditioner : 0 ms
[OGL LOG] solve : 15 ms
noneompGKOBiCGStab:  Solving for Uz, Initial residual = 0, Final residual = 0, No Iterations 0
[OGL LOG] init_host_sparsity_pattern : 114 ms
[OGL LOG] matrix not stored update host matrix
[OGL LOG] update_host_mtx : 62 ms
[OGL LOG] matrix is not yet sorted, sorting host matrix
[OGL LOG] sort_host_mtx_sparsity_pattern : 80 ms
[OGL LOG] sort_host_mtx : 43 ms
[OGL LOG] init_preconditioner : 0 ms
[OGL LOG] solve : 6479 ms
noneompGKOBiCGStab:  Solving for p, Initial residual = 1, Final residual = 9.01179e-07, No Iterations 566
time step continuity errors : sum local = 4.51524e-08, global = -1.93531e-21, cumulative = -1.93531e-21
[OGL LOG] init_preconditioner : 0 ms
[OGL LOG] solve : 5295 ms
noneompGKOBiCGStab:  Solving for p, Initial residual = 0.759335, Final residual = 3.96989e-07, No Iterations 482
time step continuity errors : sum local = 2.60414e-07, global = -1.24447e-20, cumulative = -1.438e-20
ExecutionTime = 802.96 s  ClockTime = 20 s

Time = 0.00266667

Courant Number mean: 0.0631769 max: 0.775367
[OGL LOG] init_host_sparsity_pattern : 112 ms
[OGL LOG] matrix not stored update host matrix
[OGL LOG] update_host_mtx : 56 ms
[OGL LOG] matrix is not yet sorted, sorting host matrix
[OGL LOG] sort_host_mtx_sparsity_pattern : 87 ms
[OGL LOG] sort_host_mtx : 44 ms
[OGL LOG] init_preconditioner : 0 ms
[OGL LOG] solve : 519 ms
noneompGKOBiCGStab:  Solving for Ux, Initial residual = 0.183045, Final residual = 7.30831e-07, No Iterations 43
[OGL LOG] init_host_sparsity_pattern : 113 ms
[OGL LOG] matrix not stored update host matrix
[OGL LOG] update_host_mtx : 54 ms
[OGL LOG] matrix is not yet sorted, sorting host matrix
[OGL LOG] sort_host_mtx_sparsity_pattern : 74 ms
[OGL LOG] sort_host_mtx : 44 ms
[OGL LOG] init_preconditioner : 0 ms
[OGL LOG] solve : 527 ms
noneompGKOBiCGStab:  Solving for Uy, Initial residual = 0.619615, Final residual = 8.63893e-07, No Iterations 49
[OGL LOG] init_host_sparsity_pattern : 113 ms
[OGL LOG] matrix not stored update host matrix
[OGL LOG] update_host_mtx : 54 ms
[OGL LOG] matrix is not yet sorted, sorting host matrix
[OGL LOG] sort_host_mtx_sparsity_pattern : 74 ms
[OGL LOG] sort_host_mtx : 44 ms
[OGL LOG] init_preconditioner : 0 ms
[OGL LOG] solve : 497 ms
noneompGKOBiCGStab:  Solving for Uz, Initial residual = 0.604945, Final residual = 9.09639e-07, No Iterations 47
[OGL LOG] init_preconditioner : 0 ms
[OGL LOG] solve : 5368 ms
noneompGKOBiCGStab:  Solving for p, Initial residual = 0.749127, Final residual = 9.21355e-07, No Iterations 533
time step continuity errors : sum local = 1.43918e-08, global = 2.18731e-20, cumulative = 7.49309e-21
[OGL LOG] init_preconditioner : 0 ms
[OGL LOG] solve : 5631 ms
noneompGKOBiCGStab:  Solving for p, Initial residual = 0.683886, Final residual = 7.62834e-07, No Iterations 538
time step continuity errors : sum local = 1.40602e-07, global = 1.28335e-20, cumulative = 2.03266e-20
ExecutionTime = 1606.57 s  ClockTime = 34 s

Time = 0.004

Courant Number mean: 0.0951465 max: 0.917099
[OGL LOG] init_host_sparsity_pattern : 113 ms
[OGL LOG] matrix not stored update host matrix
[OGL LOG] update_host_mtx : 55 ms
[OGL LOG] matrix is not yet sorted, sorting host matrix
[OGL LOG] sort_host_mtx_sparsity_pattern : 88 ms
[OGL LOG] sort_host_mtx : 43 ms
[OGL LOG] init_preconditioner : 0 ms
[OGL LOG] solve : 483 ms
noneompGKOBiCGStab:  Solving for Ux, Initial residual = 0.101986, Final residual = 8.00352e-07, No Iterations 41
[OGL LOG] init_host_sparsity_pattern : 114 ms
[OGL LOG] matrix not stored update host matrix
[OGL LOG] update_host_mtx : 54 ms
[OGL LOG] matrix is not yet sorted, sorting host matrix
[OGL LOG] sort_host_mtx_sparsity_pattern : 72 ms
[OGL LOG] sort_host_mtx : 43 ms
[OGL LOG] init_preconditioner : 0 ms
[OGL LOG] solve : 491 ms
noneompGKOBiCGStab:  Solving for Uy, Initial residual = 0.335316, Final residual = 3.07438e-07, No Iterations 45
[OGL LOG] init_host_sparsity_pattern : 114 ms
[OGL LOG] matrix not stored update host matrix
[OGL LOG] update_host_mtx : 54 ms
[OGL LOG] matrix is not yet sorted, sorting host matrix
[OGL LOG] sort_host_mtx_sparsity_pattern : 72 ms
[OGL LOG] sort_host_mtx : 44 ms
[OGL LOG] init_preconditioner : 0 ms
[OGL LOG] solve : 544 ms
noneompGKOBiCGStab:  Solving for Uz, Initial residual = 0.921926, Final residual = 5.74237e-07, No Iterations 50
[OGL LOG] init_preconditioner : 0 ms
[OGL LOG] solve : 5524 ms
noneompGKOBiCGStab:  Solving for p, Initial residual = 0.75474, Final residual = 6.62409e-07, No Iterations 531
time step continuity errors : sum local = 7.17662e-08, global = -2.19274e-20, cumulative = -1.60085e-21
[OGL LOG] init_preconditioner : 0 ms
[OGL LOG] solve : 6346 ms
noneompGKOBiCGStab:  Solving for p, Initial residual = 0.716924, Final residual = 2.19292e-07, No Iterations 540
time step continuity errors : sum local = 2.24382e-07, global = -7.11858e-21, cumulative = -8.71943e-21
ExecutionTime = 2463.95 s  ClockTime = 49 s

Time = 0.00533333

Courant Number mean: 0.109256 max: 0.913436
[OGL LOG] init_host_sparsity_pattern : 112 ms
[OGL LOG] matrix not stored update host matrix
[OGL LOG] update_host_mtx : 56 ms
[OGL LOG] matrix is not yet sorted, sorting host matrix
[OGL LOG] sort_host_mtx_sparsity_pattern : 79 ms
[OGL LOG] sort_host_mtx : 43 ms
[OGL LOG] init_preconditioner : 0 ms
[OGL LOG] solve : 494 ms
noneompGKOBiCGStab:  Solving for Ux, Initial residual = 0.0447222, Final residual = 8.16627e-07, No Iterations 40
[OGL LOG] init_host_sparsity_pattern : 112 ms
[OGL LOG] matrix not stored update host matrix
[OGL LOG] update_host_mtx : 53 ms
[OGL LOG] matrix is not yet sorted, sorting host matrix
[OGL LOG] sort_host_mtx_sparsity_pattern : 72 ms
[OGL LOG] sort_host_mtx : 43 ms
[OGL LOG] init_preconditioner : 0 ms
[OGL LOG] solve : 572 ms
noneompGKOBiCGStab:  Solving for Uy, Initial residual = 0.197587, Final residual = 9.97646e-07, No Iterations 45
[OGL LOG] init_host_sparsity_pattern : 112 ms
[OGL LOG] matrix not stored update host matrix
[OGL LOG] update_host_mtx : 53 ms
[OGL LOG] matrix is not yet sorted, sorting host matrix
[OGL LOG] sort_host_mtx_sparsity_pattern : 73 ms
[OGL LOG] sort_host_mtx : 43 ms
[OGL LOG] init_preconditioner : 0 ms
[OGL LOG] solve : 660 ms
noneompGKOBiCGStab:  Solving for Uz, Initial residual = 0.734678, Final residual = 8.33202e-07, No Iterations 52
[OGL LOG] init_preconditioner : 0 ms
[OGL LOG] solve : 6589 ms
noneompGKOBiCGStab:  Solving for p, Initial residual = 0.617426, Final residual = 9.49346e-07, No Iterations 560
time step continuity errors : sum local = 3.87109e-09, global = 1.45832e-20, cumulative = 5.86375e-21
[OGL LOG] init_preconditioner : 0 ms
[OGL LOG] solve : 5448 ms
noneompGKOBiCGStab:  Solving for p, Initial residual = 0.554761, Final residual = 7.32428e-07, No Iterations 524
time step continuity errors : sum local = 4.8245e-08, global = -8.58113e-21, cumulative = -2.71738e-21
ExecutionTime = 3345.74 s  ClockTime = 64 s

Time = 0.00666667

Courant Number mean: 0.122085 max: 0.929085
[OGL LOG] init_host_sparsity_pattern : 112 ms
[OGL LOG] matrix not stored update host matrix
[OGL LOG] update_host_mtx : 54 ms
[OGL LOG] matrix is not yet sorted, sorting host matrix
[OGL LOG] sort_host_mtx_sparsity_pattern : 79 ms
[OGL LOG] sort_host_mtx : 43 ms
[OGL LOG] init_preconditioner : 0 ms
[OGL LOG] solve : 510 ms
noneompGKOBiCGStab:  Solving for Ux, Initial residual = 0.0318876, Final residual = 8.80658e-07, No Iterations 39
[OGL LOG] init_host_sparsity_pattern : 113 ms
[OGL LOG] matrix not stored update host matrix
[OGL LOG] update_host_mtx : 57 ms
[OGL LOG] matrix is not yet sorted, sorting host matrix
[OGL LOG] sort_host_mtx_sparsity_pattern : 74 ms
[OGL LOG] sort_host_mtx : 43 ms
[OGL LOG] init_preconditioner : 0 ms
[OGL LOG] solve : 477 ms
noneompGKOBiCGStab:  Solving for Uy, Initial residual = 0.0806562, Final residual = 8.10059e-07, No Iterations 43
[OGL LOG] init_host_sparsity_pattern : 112 ms
[OGL LOG] matrix not stored update host matrix
[OGL LOG] update_host_mtx : 53 ms
[OGL LOG] matrix is not yet sorted, sorting host matrix
[OGL LOG] sort_host_mtx_sparsity_pattern : 72 ms
[OGL LOG] sort_host_mtx : 43 ms
[OGL LOG] init_preconditioner : 0 ms
[OGL LOG] solve : 534 ms
noneompGKOBiCGStab:  Solving for Uz, Initial residual = 0.515915, Final residual = 8.92185e-07, No Iterations 48
[OGL LOG] init_preconditioner : 0 ms
[OGL LOG] solve : 5776 ms
noneompGKOBiCGStab:  Solving for p, Initial residual = 0.592081, Final residual = 6.42841e-07, No Iterations 491
time step continuity errors : sum local = 1.04273e-07, global = -9.80466e-21, cumulative = -1.2522e-20
[OGL LOG] init_preconditioner : 0 ms
[OGL LOG] solve : 5351 ms
noneompGKOBiCGStab:  Solving for p, Initial residual = 0.543098, Final residual = 2.96895e-07, No Iterations 514
time step continuity errors : sum local = 9.2546e-08, global = -1.73803e-21, cumulative = -1.42601e-20
ExecutionTime = 4156.44 s  ClockTime = 78 s

End

