/*---------------------------------------------------------------------------*\
  =========                 |
  \\      /  F ield         | OpenFOAM: The Open Source CFD Toolbox
   \\    /   O peration     | Website:  https://openfoam.org
    \\  /    A nd           | Version:  8
     \\/     M anipulation  |
\*---------------------------------------------------------------------------*/
Build  : 8-13d66902f78c
Exec   : icoFoam
Date   : Jul 12 2021
Time   : 13:31:08
Host   : "uc2n445.localdomain"
PID    : 3207745
I/O    : uncollated
Case   : /pfs/data5/home/kit/scc/nq7776/code/OGL_DATA/lidDrivenCavity3D/v0.1-136-g40fef35/f584ccac99/IntelXeonGold6230CPU@2.10GHz/Test_2021-07-12-13:12:59/50/p-U-BiCGStab-GKO-BJ-omp/lidDrivenCavity3D
nProcs : 1
sigFpe : Enabling floating point exception trapping (FOAM_SIGFPE).
fileModificationChecking : Monitoring run-time modified files using timeStampMaster (fileModificationSkew 10)
allowSystemOperations : Allowing user-supplied system call operations

// * * * * * * * * * * * * * * * * * * * * * * * * * * * * * * * * * * * * * //
Create time

Create mesh for time = 0

Reading transportProperties

Reading field p

Reading field U

Reading/calculating face flux field phi


Starting time loop

Time = 0.002

Courant Number mean: 0 max: 0
[OGL LOG] init_host_sparsity_pattern : 35 ms
[OGL LOG] matrix not stored update host matrix
[OGL LOG] update_host_mtx : 18 ms
[OGL LOG] matrix is not yet sorted, compute sorting idxs
[OGL LOG] compute_sort : 987 ms
[OGL LOG] matrix is not yet sorted, sorting host matrix
[OGL LOG] sort_host_mtx_sparsity_pattern : 23 ms
[OGL LOG] sort_host_mtx : 14 ms
[OGL LOG] init_preconditioner : 10 ms
[OGL LOG] solve : 231 ms
BJompGKOBiCGStab:  Solving for Ux, Initial residual = 1, Final residual = 8.40984e-07, No Iterations 31
[OGL LOG] init_host_sparsity_pattern : 35 ms
[OGL LOG] matrix not stored update host matrix
[OGL LOG] update_host_mtx : 18 ms
[OGL LOG] matrix is not yet sorted, sorting host matrix
[OGL LOG] sort_host_mtx_sparsity_pattern : 23 ms
[OGL LOG] sort_host_mtx : 12 ms
[OGL LOG] init_preconditioner : 10 ms
[OGL LOG] solve : 6 ms
BJompGKOBiCGStab:  Solving for Uy, Initial residual = 0, Final residual = 0, No Iterations 0
[OGL LOG] init_host_sparsity_pattern : 33 ms
[OGL LOG] matrix not stored update host matrix
[OGL LOG] update_host_mtx : 15 ms
[OGL LOG] matrix is not yet sorted, sorting host matrix
[OGL LOG] sort_host_mtx_sparsity_pattern : 23 ms
[OGL LOG] sort_host_mtx : 12 ms
[OGL LOG] init_preconditioner : 10 ms
[OGL LOG] solve : 6 ms
BJompGKOBiCGStab:  Solving for Uz, Initial residual = 0, Final residual = 0, No Iterations 0
[OGL LOG] init_host_sparsity_pattern : 33 ms
[OGL LOG] matrix not stored update host matrix
[OGL LOG] update_host_mtx : 18 ms
[OGL LOG] matrix is not yet sorted, sorting host matrix
[OGL LOG] sort_host_mtx_sparsity_pattern : 22 ms
[OGL LOG] sort_host_mtx : 14 ms
[OGL LOG] init_preconditioner : 10 ms
[OGL LOG] solve : 2207 ms
BJompGKOBiCGStab:  Solving for p, Initial residual = 1, Final residual = 6.75597e-07, No Iterations 308
time step continuity errors : sum local = 3.52907e-08, global = 8.00597e-21, cumulative = 8.00597e-21
[OGL LOG] init_preconditioner : 0 ms
[OGL LOG] solve : 1971 ms
BJompGKOBiCGStab:  Solving for p, Initial residual = 0.721584, Final residual = 8.56647e-07, No Iterations 279
time step continuity errors : sum local = 1.84437e-08, global = -1.00216e-20, cumulative = -2.01559e-21
ExecutionTime = 19.89 s  ClockTime = 6 s

Time = 0.004

Courant Number mean: 0.0720722 max: 0.726639
[OGL LOG] init_host_sparsity_pattern : 33 ms
[OGL LOG] matrix not stored update host matrix
[OGL LOG] update_host_mtx : 16 ms
[OGL LOG] matrix is not yet sorted, sorting host matrix
[OGL LOG] sort_host_mtx_sparsity_pattern : 24 ms
[OGL LOG] sort_host_mtx : 13 ms
[OGL LOG] init_preconditioner : 0 ms
[OGL LOG] solve : 182 ms
BJompGKOBiCGStab:  Solving for Ux, Initial residual = 0.203464, Final residual = 5.55717e-07, No Iterations 23
[OGL LOG] init_host_sparsity_pattern : 33 ms
[OGL LOG] matrix not stored update host matrix
[OGL LOG] update_host_mtx : 15 ms
[OGL LOG] matrix is not yet sorted, sorting host matrix
[OGL LOG] sort_host_mtx_sparsity_pattern : 22 ms
[OGL LOG] sort_host_mtx : 12 ms
[OGL LOG] init_preconditioner : 0 ms
[OGL LOG] solve : 240 ms
BJompGKOBiCGStab:  Solving for Uy, Initial residual = 0.618431, Final residual = 9.3025e-07, No Iterations 32
[OGL LOG] init_host_sparsity_pattern : 33 ms
[OGL LOG] matrix not stored update host matrix
[OGL LOG] update_host_mtx : 15 ms
[OGL LOG] matrix is not yet sorted, sorting host matrix
[OGL LOG] sort_host_mtx_sparsity_pattern : 22 ms
[OGL LOG] sort_host_mtx : 12 ms
[OGL LOG] init_preconditioner : 0 ms
[OGL LOG] solve : 233 ms
BJompGKOBiCGStab:  Solving for Uz, Initial residual = 0.536226, Final residual = 9.8571e-07, No Iterations 31
[OGL LOG] init_preconditioner : 0 ms
[OGL LOG] solve : 1955 ms
BJompGKOBiCGStab:  Solving for p, Initial residual = 0.673323, Final residual = 9.88671e-07, No Iterations 271
time step continuity errors : sum local = 2.35749e-08, global = -1.20201e-20, cumulative = -1.40357e-20
[OGL LOG] init_preconditioner : 0 ms
[OGL LOG] solve : 1810 ms
BJompGKOBiCGStab:  Solving for p, Initial residual = 0.598888, Final residual = 9.91701e-07, No Iterations 258
time step continuity errors : sum local = 2.82767e-08, global = 1.17631e-20, cumulative = -2.27258e-21
ExecutionTime = 38.04 s  ClockTime = 11 s

Time = 0.006

Courant Number mean: 0.107408 max: 0.881754
[OGL LOG] init_host_sparsity_pattern : 34 ms
[OGL LOG] matrix not stored update host matrix
[OGL LOG] update_host_mtx : 19 ms
[OGL LOG] matrix is not yet sorted, sorting host matrix
[OGL LOG] sort_host_mtx_sparsity_pattern : 27 ms
[OGL LOG] sort_host_mtx : 15 ms
[OGL LOG] init_preconditioner : 0 ms
[OGL LOG] solve : 171 ms
BJompGKOBiCGStab:  Solving for Ux, Initial residual = 0.0995609, Final residual = 7.06474e-07, No Iterations 21
[OGL LOG] init_host_sparsity_pattern : 34 ms
[OGL LOG] matrix not stored update host matrix
[OGL LOG] update_host_mtx : 15 ms
[OGL LOG] matrix is not yet sorted, sorting host matrix
[OGL LOG] sort_host_mtx_sparsity_pattern : 22 ms
[OGL LOG] sort_host_mtx : 12 ms
[OGL LOG] init_preconditioner : 0 ms
[OGL LOG] solve : 229 ms
BJompGKOBiCGStab:  Solving for Uy, Initial residual = 0.249992, Final residual = 8.21813e-07, No Iterations 29
[OGL LOG] init_host_sparsity_pattern : 33 ms
[OGL LOG] matrix not stored update host matrix
[OGL LOG] update_host_mtx : 15 ms
[OGL LOG] matrix is not yet sorted, sorting host matrix
[OGL LOG] sort_host_mtx_sparsity_pattern : 22 ms
[OGL LOG] sort_host_mtx : 12 ms
[OGL LOG] init_preconditioner : 0 ms
[OGL LOG] solve : 250 ms
BJompGKOBiCGStab:  Solving for Uz, Initial residual = 0.540856, Final residual = 8.87428e-07, No Iterations 32
[OGL LOG] init_preconditioner : 0 ms
[OGL LOG] solve : 1836 ms
BJompGKOBiCGStab:  Solving for p, Initial residual = 0.606887, Final residual = 9.17327e-07, No Iterations 261
time step continuity errors : sum local = 7.28731e-09, global = 2.26268e-20, cumulative = 2.03542e-20
[OGL LOG] init_preconditioner : 0 ms
[OGL LOG] solve : 1872 ms
BJompGKOBiCGStab:  Solving for p, Initial residual = 0.560881, Final residual = 9.74798e-07, No Iterations 266
time step continuity errors : sum local = 1.96065e-09, global = -1.55609e-20, cumulative = 4.79329e-21
ExecutionTime = 55.88 s  ClockTime = 16 s

Time = 0.008

Courant Number mean: 0.123244 max: 0.890103
[OGL LOG] init_host_sparsity_pattern : 33 ms
[OGL LOG] matrix not stored update host matrix
[OGL LOG] update_host_mtx : 16 ms
[OGL LOG] matrix is not yet sorted, sorting host matrix
[OGL LOG] sort_host_mtx_sparsity_pattern : 23 ms
[OGL LOG] sort_host_mtx : 13 ms
[OGL LOG] init_preconditioner : 0 ms
[OGL LOG] solve : 187 ms
BJompGKOBiCGStab:  Solving for Ux, Initial residual = 0.0341393, Final residual = 7.89031e-07, No Iterations 25
[OGL LOG] init_host_sparsity_pattern : 33 ms
[OGL LOG] matrix not stored update host matrix
[OGL LOG] update_host_mtx : 15 ms
[OGL LOG] matrix is not yet sorted, sorting host matrix
[OGL LOG] sort_host_mtx_sparsity_pattern : 22 ms
[OGL LOG] sort_host_mtx : 12 ms
[OGL LOG] init_preconditioner : 0 ms
[OGL LOG] solve : 210 ms
BJompGKOBiCGStab:  Solving for Uy, Initial residual = 0.132381, Final residual = 8.14604e-07, No Iterations 28
[OGL LOG] init_host_sparsity_pattern : 33 ms
[OGL LOG] matrix not stored update host matrix
[OGL LOG] update_host_mtx : 15 ms
[OGL LOG] matrix is not yet sorted, sorting host matrix
[OGL LOG] sort_host_mtx_sparsity_pattern : 22 ms
[OGL LOG] sort_host_mtx : 12 ms
[OGL LOG] init_preconditioner : 0 ms
[OGL LOG] solve : 233 ms
BJompGKOBiCGStab:  Solving for Uz, Initial residual = 0.471965, Final residual = 9.38895e-07, No Iterations 31
[OGL LOG] init_preconditioner : 0 ms
[OGL LOG] solve : 1755 ms
BJompGKOBiCGStab:  Solving for p, Initial residual = 0.423032, Final residual = 9.64203e-07, No Iterations 251
time step continuity errors : sum local = 2.24231e-09, global = -2.45688e-20, cumulative = -1.97755e-20
[OGL LOG] init_preconditioner : 0 ms
[OGL LOG] solve : 1816 ms
BJompGKOBiCGStab:  Solving for p, Initial residual = 0.368369, Final residual = 6.79654e-07, No Iterations 258
time step continuity errors : sum local = 1.09862e-09, global = 2.26108e-20, cumulative = 2.83527e-21
ExecutionTime = 73.12 s  ClockTime = 21 s

Time = 0.01

Courant Number mean: 0.136096 max: 0.906942
[OGL LOG] init_host_sparsity_pattern : 33 ms
[OGL LOG] matrix not stored update host matrix
[OGL LOG] update_host_mtx : 16 ms
[OGL LOG] matrix is not yet sorted, sorting host matrix
[OGL LOG] sort_host_mtx_sparsity_pattern : 23 ms
[OGL LOG] sort_host_mtx : 13 ms
[OGL LOG] init_preconditioner : 0 ms
[OGL LOG] solve : 183 ms
BJompGKOBiCGStab:  Solving for Ux, Initial residual = 0.0230742, Final residual = 7.32761e-07, No Iterations 24
[OGL LOG] init_host_sparsity_pattern : 33 ms
[OGL LOG] matrix not stored update host matrix
[OGL LOG] update_host_mtx : 15 ms
[OGL LOG] matrix is not yet sorted, sorting host matrix
[OGL LOG] sort_host_mtx_sparsity_pattern : 22 ms
[OGL LOG] sort_host_mtx : 12 ms
[OGL LOG] init_preconditioner : 0 ms
[OGL LOG] solve : 191 ms
BJompGKOBiCGStab:  Solving for Uy, Initial residual = 0.0484076, Final residual = 9.76745e-07, No Iterations 25
[OGL LOG] init_host_sparsity_pattern : 33 ms
[OGL LOG] matrix not stored update host matrix
[OGL LOG] update_host_mtx : 15 ms
[OGL LOG] matrix is not yet sorted, sorting host matrix
[OGL LOG] sort_host_mtx_sparsity_pattern : 22 ms
[OGL LOG] sort_host_mtx : 12 ms
[OGL LOG] init_preconditioner : 0 ms
[OGL LOG] solve : 210 ms
BJompGKOBiCGStab:  Solving for Uz, Initial residual = 0.159126, Final residual = 8.52507e-07, No Iterations 28
[OGL LOG] init_preconditioner : 0 ms
[OGL LOG] solve : 1826 ms
BJompGKOBiCGStab:  Solving for p, Initial residual = 0.36167, Final residual = 9.95685e-07, No Iterations 261
time step continuity errors : sum local = 1.37521e-09, global = -5.17076e-20, cumulative = -4.88723e-20
[OGL LOG] init_preconditioner : 0 ms
[OGL LOG] solve : 1840 ms
BJompGKOBiCGStab:  Solving for p, Initial residual = 0.333166, Final residual = 8.57408e-07, No Iterations 264
time step continuity errors : sum local = 1.65537e-09, global = -4.23073e-21, cumulative = -5.3103e-20
ExecutionTime = 90.56 s  ClockTime = 25 s

End

