/*---------------------------------------------------------------------------*\
  =========                 |
  \\      /  F ield         | OpenFOAM: The Open Source CFD Toolbox
   \\    /   O peration     | Website:  https://openfoam.org
    \\  /    A nd           | Version:  8
     \\/     M anipulation  |
\*---------------------------------------------------------------------------*/
Build  : 8-13d66902f78c
Exec   : icoFoam
Date   : Jul 12 2021
Time   : 13:02:04
Host   : "uc2n402.localdomain"
PID    : 3434424
I/O    : uncollated
Case   : /pfs/data5/home/kit/scc/nq7776/code/OGL_DATA/lidDrivenCavity3D/v0.1-136-g40fef35/f584ccac99/IntelXeonGold6230CPU@2.10GHz/Test_2021-07-12-12:43:44/75/p-U-CG-GKO-none-omp/lidDrivenCavity3D
nProcs : 1
sigFpe : Enabling floating point exception trapping (FOAM_SIGFPE).
fileModificationChecking : Monitoring run-time modified files using timeStampMaster (fileModificationSkew 10)
allowSystemOperations : Allowing user-supplied system call operations

// * * * * * * * * * * * * * * * * * * * * * * * * * * * * * * * * * * * * * //
Create time

Create mesh for time = 0

Reading transportProperties

Reading field p

Reading field U

Reading/calculating face flux field phi


Starting time loop

Time = 0.00133333

Courant Number mean: 0 max: 0
[OGL LOG] init_host_sparsity_pattern : 120 ms
[OGL LOG] matrix not stored update host matrix
[OGL LOG] update_host_mtx : 61 ms
[OGL LOG] matrix is not yet sorted, compute sorting idxs
[OGL LOG] compute_sort : 3630 ms
[OGL LOG] matrix is not yet sorted, sorting host matrix
[OGL LOG] sort_host_mtx_sparsity_pattern : 77 ms
[OGL LOG] sort_host_mtx : 51 ms
[OGL LOG] init_preconditioner : 0 ms
[OGL LOG] solve : 1391 ms
noneompGKOBiCGStab:  Solving for Ux, Initial residual = 1, Final residual = 3.51283e-07, No Iterations 51
[OGL LOG] init_host_sparsity_pattern : 116 ms
[OGL LOG] matrix not stored update host matrix
[OGL LOG] update_host_mtx : 61 ms
[OGL LOG] matrix is not yet sorted, sorting host matrix
[OGL LOG] sort_host_mtx_sparsity_pattern : 83 ms
[OGL LOG] sort_host_mtx : 43 ms
[OGL LOG] init_preconditioner : 0 ms
[OGL LOG] solve : 33 ms
noneompGKOBiCGStab:  Solving for Uy, Initial residual = 0, Final residual = 0, No Iterations 0
[OGL LOG] init_host_sparsity_pattern : 113 ms
[OGL LOG] matrix not stored update host matrix
[OGL LOG] update_host_mtx : 53 ms
[OGL LOG] matrix is not yet sorted, sorting host matrix
[OGL LOG] sort_host_mtx_sparsity_pattern : 80 ms
[OGL LOG] sort_host_mtx : 43 ms
[OGL LOG] init_preconditioner : 0 ms
[OGL LOG] solve : 29 ms
noneompGKOBiCGStab:  Solving for Uz, Initial residual = 0, Final residual = 0, No Iterations 0
[OGL LOG] init_host_sparsity_pattern : 113 ms
[OGL LOG] matrix not stored update host matrix
[OGL LOG] update_host_mtx : 62 ms
[OGL LOG] matrix is not yet sorted, sorting host matrix
[OGL LOG] sort_host_mtx_sparsity_pattern : 80 ms
[OGL LOG] sort_host_mtx : 43 ms
[OGL LOG] init_preconditioner : 0 ms
[OGL LOG] solve : 8958 ms
noneompGKOCG:  Solving for p, Initial residual = 1, Final residual = 9.25016e-07, No Iterations 671
time step continuity errors : sum local = 8.44899e-10, global = -8.2491e-21, cumulative = -8.2491e-21
[OGL LOG] init_preconditioner : 0 ms
[OGL LOG] solve : 8950 ms
noneompGKOCG:  Solving for p, Initial residual = 0.759326, Final residual = 8.8602e-07, No Iterations 667
time step continuity errors : sum local = 1.036e-09, global = -7.29029e-21, cumulative = -1.55394e-20
ExecutionTime = 26.26 s  ClockTime = 26 s

Time = 0.00266667

Courant Number mean: 0.0631769 max: 0.775367
[OGL LOG] init_host_sparsity_pattern : 112 ms
[OGL LOG] matrix not stored update host matrix
[OGL LOG] update_host_mtx : 53 ms
[OGL LOG] matrix is not yet sorted, sorting host matrix
[OGL LOG] sort_host_mtx_sparsity_pattern : 72 ms
[OGL LOG] sort_host_mtx : 43 ms
[OGL LOG] init_preconditioner : 0 ms
[OGL LOG] solve : 1116 ms
noneompGKOBiCGStab:  Solving for Ux, Initial residual = 0.183034, Final residual = 9.76925e-07, No Iterations 41
[OGL LOG] init_host_sparsity_pattern : 112 ms
[OGL LOG] matrix not stored update host matrix
[OGL LOG] update_host_mtx : 53 ms
[OGL LOG] matrix is not yet sorted, sorting host matrix
[OGL LOG] sort_host_mtx_sparsity_pattern : 72 ms
[OGL LOG] sort_host_mtx : 43 ms
[OGL LOG] init_preconditioner : 0 ms
[OGL LOG] solve : 1226 ms
noneompGKOBiCGStab:  Solving for Uy, Initial residual = 0.619629, Final residual = 8.78563e-07, No Iterations 45
[OGL LOG] init_host_sparsity_pattern : 112 ms
[OGL LOG] matrix not stored update host matrix
[OGL LOG] update_host_mtx : 53 ms
[OGL LOG] matrix is not yet sorted, sorting host matrix
[OGL LOG] sort_host_mtx_sparsity_pattern : 72 ms
[OGL LOG] sort_host_mtx : 43 ms
[OGL LOG] init_preconditioner : 0 ms
[OGL LOG] solve : 1278 ms
noneompGKOBiCGStab:  Solving for Uz, Initial residual = 0.60471, Final residual = 9.68544e-07, No Iterations 47
[OGL LOG] init_preconditioner : 0 ms
[OGL LOG] solve : 8639 ms
noneompGKOCG:  Solving for p, Initial residual = 0.749129, Final residual = 9.98159e-07, No Iterations 644
time step continuity errors : sum local = 1.42124e-09, global = -1.7828e-20, cumulative = -3.33674e-20
[OGL LOG] init_preconditioner : 0 ms
[OGL LOG] solve : 8670 ms
noneompGKOCG:  Solving for p, Initial residual = 0.683906, Final residual = 9.64371e-07, No Iterations 643
time step continuity errors : sum local = 1.40348e-09, global = 3.73041e-21, cumulative = -2.9637e-20
ExecutionTime = 48.36 s  ClockTime = 48 s

Time = 0.004

Courant Number mean: 0.0951461 max: 0.917097
[OGL LOG] init_host_sparsity_pattern : 112 ms
[OGL LOG] matrix not stored update host matrix
[OGL LOG] update_host_mtx : 53 ms
[OGL LOG] matrix is not yet sorted, sorting host matrix
[OGL LOG] sort_host_mtx_sparsity_pattern : 72 ms
[OGL LOG] sort_host_mtx : 43 ms
[OGL LOG] init_preconditioner : 0 ms
[OGL LOG] solve : 1142 ms
noneompGKOBiCGStab:  Solving for Ux, Initial residual = 0.101944, Final residual = 9.33364e-07, No Iterations 42
[OGL LOG] init_host_sparsity_pattern : 112 ms
[OGL LOG] matrix not stored update host matrix
[OGL LOG] update_host_mtx : 53 ms
[OGL LOG] matrix is not yet sorted, sorting host matrix
[OGL LOG] sort_host_mtx_sparsity_pattern : 72 ms
[OGL LOG] sort_host_mtx : 47 ms
[OGL LOG] init_preconditioner : 0 ms
[OGL LOG] solve : 1236 ms
noneompGKOBiCGStab:  Solving for Uy, Initial residual = 0.335433, Final residual = 8.57252e-07, No Iterations 45
[OGL LOG] init_host_sparsity_pattern : 112 ms
[OGL LOG] matrix not stored update host matrix
[OGL LOG] update_host_mtx : 53 ms
[OGL LOG] matrix is not yet sorted, sorting host matrix
[OGL LOG] sort_host_mtx_sparsity_pattern : 72 ms
[OGL LOG] sort_host_mtx : 43 ms
[OGL LOG] init_preconditioner : 0 ms
[OGL LOG] solve : 1261 ms
noneompGKOBiCGStab:  Solving for Uz, Initial residual = 0.920733, Final residual = 7.64348e-07, No Iterations 46
[OGL LOG] init_preconditioner : 0 ms
[OGL LOG] solve : 8858 ms
noneompGKOCG:  Solving for p, Initial residual = 0.754753, Final residual = 9.74289e-07, No Iterations 663
time step continuity errors : sum local = 1.14526e-09, global = 1.92091e-21, cumulative = -2.77161e-20
[OGL LOG] init_preconditioner : 0 ms
[OGL LOG] solve : 8892 ms
noneompGKOCG:  Solving for p, Initial residual = 0.71702, Final residual = 9.88364e-07, No Iterations 661
time step continuity errors : sum local = 1.12738e-09, global = -8.7513e-21, cumulative = -3.64674e-20
ExecutionTime = 70.91 s  ClockTime = 71 s

Time = 0.00533333

Courant Number mean: 0.109256 max: 0.913435
[OGL LOG] init_host_sparsity_pattern : 116 ms
[OGL LOG] matrix not stored update host matrix
[OGL LOG] update_host_mtx : 53 ms
[OGL LOG] matrix is not yet sorted, sorting host matrix
[OGL LOG] sort_host_mtx_sparsity_pattern : 72 ms
[OGL LOG] sort_host_mtx : 43 ms
[OGL LOG] init_preconditioner : 0 ms
[OGL LOG] solve : 1062 ms
noneompGKOBiCGStab:  Solving for Ux, Initial residual = 0.0446965, Final residual = 6.71806e-07, No Iterations 39
[OGL LOG] init_host_sparsity_pattern : 112 ms
[OGL LOG] matrix not stored update host matrix
[OGL LOG] update_host_mtx : 53 ms
[OGL LOG] matrix is not yet sorted, sorting host matrix
[OGL LOG] sort_host_mtx_sparsity_pattern : 72 ms
[OGL LOG] sort_host_mtx : 43 ms
[OGL LOG] init_preconditioner : 0 ms
[OGL LOG] solve : 1089 ms
noneompGKOBiCGStab:  Solving for Uy, Initial residual = 0.197564, Final residual = 9.80986e-07, No Iterations 40
[OGL LOG] init_host_sparsity_pattern : 112 ms
[OGL LOG] matrix not stored update host matrix
[OGL LOG] update_host_mtx : 53 ms
[OGL LOG] matrix is not yet sorted, sorting host matrix
[OGL LOG] sort_host_mtx_sparsity_pattern : 72 ms
[OGL LOG] sort_host_mtx : 43 ms
[OGL LOG] init_preconditioner : 0 ms
[OGL LOG] solve : 1189 ms
noneompGKOBiCGStab:  Solving for Uz, Initial residual = 0.732472, Final residual = 9.64558e-07, No Iterations 43
[OGL LOG] init_preconditioner : 0 ms
[OGL LOG] solve : 8861 ms
noneompGKOCG:  Solving for p, Initial residual = 0.617352, Final residual = 9.82726e-07, No Iterations 661
time step continuity errors : sum local = 1.02394e-09, global = -1.94317e-20, cumulative = -5.58991e-20
[OGL LOG] init_preconditioner : 0 ms
[OGL LOG] solve : 8875 ms
noneompGKOCG:  Solving for p, Initial residual = 0.554746, Final residual = 9.80552e-07, No Iterations 659
time step continuity errors : sum local = 1.03631e-09, global = -2.08525e-20, cumulative = -7.67515e-20
ExecutionTime = 93.15 s  ClockTime = 93 s

Time = 0.00666667

Courant Number mean: 0.122085 max: 0.929082
[OGL LOG] init_host_sparsity_pattern : 112 ms
[OGL LOG] matrix not stored update host matrix
[OGL LOG] update_host_mtx : 53 ms
[OGL LOG] matrix is not yet sorted, sorting host matrix
[OGL LOG] sort_host_mtx_sparsity_pattern : 72 ms
[OGL LOG] sort_host_mtx : 43 ms
[OGL LOG] init_preconditioner : 0 ms
[OGL LOG] solve : 1075 ms
noneompGKOBiCGStab:  Solving for Ux, Initial residual = 0.0319072, Final residual = 9.0817e-07, No Iterations 39
[OGL LOG] init_host_sparsity_pattern : 112 ms
[OGL LOG] matrix not stored update host matrix
[OGL LOG] update_host_mtx : 53 ms
[OGL LOG] matrix is not yet sorted, sorting host matrix
[OGL LOG] sort_host_mtx_sparsity_pattern : 72 ms
[OGL LOG] sort_host_mtx : 43 ms
[OGL LOG] init_preconditioner : 0 ms
[OGL LOG] solve : 1090 ms
noneompGKOBiCGStab:  Solving for Uy, Initial residual = 0.0804628, Final residual = 8.71916e-07, No Iterations 40
[OGL LOG] init_host_sparsity_pattern : 112 ms
[OGL LOG] matrix not stored update host matrix
[OGL LOG] update_host_mtx : 53 ms
[OGL LOG] matrix is not yet sorted, sorting host matrix
[OGL LOG] sort_host_mtx_sparsity_pattern : 72 ms
[OGL LOG] sort_host_mtx : 47 ms
[OGL LOG] init_preconditioner : 0 ms
[OGL LOG] solve : 1289 ms
noneompGKOBiCGStab:  Solving for Uz, Initial residual = 0.513464, Final residual = 7.24505e-07, No Iterations 47
[OGL LOG] init_preconditioner : 0 ms
[OGL LOG] solve : 8905 ms
noneompGKOCG:  Solving for p, Initial residual = 0.591989, Final residual = 9.70599e-07, No Iterations 666
time step continuity errors : sum local = 8.12371e-10, global = 7.58106e-23, cumulative = -7.66757e-20
[OGL LOG] init_preconditioner : 0 ms
[OGL LOG] solve : 8967 ms
noneompGKOCG:  Solving for p, Initial residual = 0.543115, Final residual = 9.03152e-07, No Iterations 666
time step continuity errors : sum local = 7.46559e-10, global = -7.41222e-21, cumulative = -8.40879e-20
ExecutionTime = 115.63 s  ClockTime = 116 s

End

