/*---------------------------------------------------------------------------*\
  =========                 |
  \\      /  F ield         | OpenFOAM: The Open Source CFD Toolbox
   \\    /   O peration     | Website:  https://openfoam.org
    \\  /    A nd           | Version:  8
     \\/     M anipulation  |
\*---------------------------------------------------------------------------*/
Build  : 8-13d66902f78c
Exec   : icoFoam
Date   : Jul 13 2021
Time   : 22:49:47
Host   : "uc2n398.localdomain"
PID    : 515017
I/O    : uncollated
Case   : /pfs/data5/home/kit/scc/nq7776/code/OGL_DATA/lidDrivenCavity3D/v0.1-136-g40fef35/f584ccac99/IntelXeonGold6230CPU@2.10GHz/Test_2021-07-13-22:43:44/25/p-IR-GKO-none-omp/lidDrivenCavity3D
nProcs : 1
sigFpe : Enabling floating point exception trapping (FOAM_SIGFPE).
fileModificationChecking : Monitoring run-time modified files using timeStampMaster (fileModificationSkew 10)
allowSystemOperations : Allowing user-supplied system call operations

// * * * * * * * * * * * * * * * * * * * * * * * * * * * * * * * * * * * * * //
Create time

Create mesh for time = 0

Reading transportProperties

Reading field p

Reading field U

Reading/calculating face flux field phi


Starting time loop

Time = 0.004

Courant Number mean: 0 max: 0
nonePBiCGStab:  Solving for Ux, Initial residual = 1, Final residual = 0.0337517, No Iterations 5
nonePBiCGStab:  Solving for Uy, Initial residual = 0, Final residual = 0, No Iterations 0
nonePBiCGStab:  Solving for Uz, Initial residual = 0, Final residual = 0, No Iterations 0
[OGL LOG] init_host_sparsity_pattern : 4 ms
[OGL LOG] matrix not stored update host matrix
[OGL LOG] update_host_mtx : 2 ms
[OGL LOG] matrix is not yet sorted, compute sorting idxs
[OGL LOG] compute_sort : 98 ms
[OGL LOG] matrix is not yet sorted, sorting host matrix
[OGL LOG] sort_host_mtx_sparsity_pattern : 2 ms
[OGL LOG] sort_host_mtx : 1 ms
[OGL LOG] init_preconditioner : 0 ms
[OGL LOG] solve : 105 ms
noneompGKOIR:  Solving for p, Initial residual = 1, Final residual = 4.39504e-08, No Iterations 4
time step continuity errors : sum local = 1.7454e-10, global = 1.0745e-20, cumulative = 1.0745e-20
[OGL LOG] init_preconditioner : 0 ms
[OGL LOG] solve : 102 ms
noneompGKOIR:  Solving for p, Initial residual = 0.622285, Final residual = 1.81115e-08, No Iterations 4
time step continuity errors : sum local = 1.05193e-10, global = -1.91099e-20, cumulative = -8.36491e-21
ExecutionTime = 7.22 s  ClockTime = 1 s

Time = 0.008

Courant Number mean: 0.084228 max: 0.621061
nonePBiCGStab:  Solving for Ux, Initial residual = 0.149589, Final residual = 0.00942683, No Iterations 5
nonePBiCGStab:  Solving for Uy, Initial residual = 0.281195, Final residual = 0.0142199, No Iterations 5
nonePBiCGStab:  Solving for Uz, Initial residual = 0.933287, Final residual = 0.0511081, No Iterations 5
[OGL LOG] init_preconditioner : 0 ms
[OGL LOG] solve : 78 ms
noneompGKOIR:  Solving for p, Initial residual = 0.518045, Final residual = 9.63568e-09, No Iterations 4
time step continuity errors : sum local = 7.14446e-11, global = 2.49992e-20, cumulative = 1.66343e-20
[OGL LOG] init_preconditioner : 0 ms
[OGL LOG] solve : 63 ms
noneompGKOIR:  Solving for p, Initial residual = 0.415898, Final residual = 7.71495e-07, No Iterations 3
time step continuity errors : sum local = 4.71824e-09, global = 1.95248e-19, cumulative = 2.11882e-19
ExecutionTime = 12 s  ClockTime = 1 s

Time = 0.012

Courant Number mean: 0.124051 max: 0.792234
nonePBiCGStab:  Solving for Ux, Initial residual = 0.0425002, Final residual = 0.00204637, No Iterations 5
nonePBiCGStab:  Solving for Uy, Initial residual = 0.0761453, Final residual = 0.00263682, No Iterations 5
nonePBiCGStab:  Solving for Uz, Initial residual = 0.14271, Final residual = 0.00668455, No Iterations 5
[OGL LOG] init_preconditioner : 0 ms
[OGL LOG] solve : 61 ms
noneompGKOIR:  Solving for p, Initial residual = 0.279188, Final residual = 4.23731e-07, No Iterations 3
time step continuity errors : sum local = 1.85292e-09, global = -1.17285e-19, cumulative = 9.45968e-20
[OGL LOG] init_preconditioner : 0 ms
[OGL LOG] solve : 62 ms
noneompGKOIR:  Solving for p, Initial residual = 0.224051, Final residual = 3.89736e-07, No Iterations 3
time step continuity errors : sum local = 1.67234e-09, global = -5.12939e-20, cumulative = 4.33029e-20
ExecutionTime = 16.2 s  ClockTime = 1 s

Time = 0.016

Courant Number mean: 0.142529 max: 0.824384
nonePBiCGStab:  Solving for Ux, Initial residual = 0.0219032, Final residual = 0.00075246, No Iterations 5
nonePBiCGStab:  Solving for Uy, Initial residual = 0.0474704, Final residual = 0.000975034, No Iterations 5
nonePBiCGStab:  Solving for Uz, Initial residual = 0.0926543, Final residual = 0.00322908, No Iterations 5
[OGL LOG] init_preconditioner : 0 ms
[OGL LOG] solve : 64 ms
noneompGKOIR:  Solving for p, Initial residual = 0.13855, Final residual = 2.16936e-07, No Iterations 3
time step continuity errors : sum local = 9.2509e-10, global = 5.29599e-20, cumulative = 9.62628e-20
[OGL LOG] init_preconditioner : 0 ms
[OGL LOG] solve : 63 ms
noneompGKOIR:  Solving for p, Initial residual = 0.106559, Final residual = 1.69023e-07, No Iterations 3
time step continuity errors : sum local = 7.29058e-10, global = 1.58722e-19, cumulative = 2.54985e-19
ExecutionTime = 20.53 s  ClockTime = 1 s

Time = 0.02

Courant Number mean: 0.154857 max: 0.843613
nonePBiCGStab:  Solving for Ux, Initial residual = 0.0136635, Final residual = 0.000405684, No Iterations 5
nonePBiCGStab:  Solving for Uy, Initial residual = 0.0288036, Final residual = 0.000728011, No Iterations 5
nonePBiCGStab:  Solving for Uz, Initial residual = 0.0551893, Final residual = 0.00171376, No Iterations 5
[OGL LOG] init_preconditioner : 0 ms
[OGL LOG] solve : 60 ms
noneompGKOIR:  Solving for p, Initial residual = 0.0654138, Final residual = 8.3256e-08, No Iterations 3
time step continuity errors : sum local = 3.43972e-10, global = 3.15062e-20, cumulative = 2.86491e-19
[OGL LOG] init_preconditioner : 0 ms
[OGL LOG] solve : 65 ms
noneompGKOIR:  Solving for p, Initial residual = 0.0510736, Final residual = 7.14865e-08, No Iterations 3
time step continuity errors : sum local = 2.93303e-10, global = 4.52751e-21, cumulative = 2.91019e-19
ExecutionTime = 24.82 s  ClockTime = 1 s

End

