/*---------------------------------------------------------------------------*\
  =========                 |
  \\      /  F ield         | OpenFOAM: The Open Source CFD Toolbox
   \\    /   O peration     | Website:  https://openfoam.org
    \\  /    A nd           | Version:  8
     \\/     M anipulation  |
\*---------------------------------------------------------------------------*/
Build  : 8-13d66902f78c
Exec   : icoFoam
Date   : Jul 14 2021
Time   : 01:51:23
Host   : "uc2n525.localdomain"
PID    : 3770240
I/O    : uncollated
Case   : /pfs/data5/home/kit/scc/nq7776/code/OGL_DATA/lidDrivenCavity3D/v0.1-136-g40fef35/f584ccac99/IntelXeonGold6230CPU@2.10GHz/Test_2021-07-13-22:16:26/100/p-BiCGStab-GKO-none-omp/lidDrivenCavity3D
nProcs : 1
sigFpe : Enabling floating point exception trapping (FOAM_SIGFPE).
fileModificationChecking : Monitoring run-time modified files using timeStampMaster (fileModificationSkew 10)
allowSystemOperations : Allowing user-supplied system call operations

// * * * * * * * * * * * * * * * * * * * * * * * * * * * * * * * * * * * * * //
Create time

Create mesh for time = 0

Reading transportProperties

Reading field p

Reading field U

Reading/calculating face flux field phi


Starting time loop

Time = 0.001

Courant Number mean: 0 max: 0
nonePBiCGStab:  Solving for Ux, Initial residual = 1, Final residual = 0.0818707, No Iterations 5
nonePBiCGStab:  Solving for Uy, Initial residual = 0, Final residual = 0, No Iterations 0
nonePBiCGStab:  Solving for Uz, Initial residual = 0, Final residual = 0, No Iterations 0
[OGL LOG] init_host_sparsity_pattern : 291 ms
[OGL LOG] matrix not stored update host matrix
[OGL LOG] update_host_mtx : 147 ms
[OGL LOG] matrix is not yet sorted, compute sorting idxs
[OGL LOG] compute_sort : 8338 ms
[OGL LOG] matrix is not yet sorted, sorting host matrix
[OGL LOG] sort_host_mtx_sparsity_pattern : 193 ms
[OGL LOG] sort_host_mtx : 125 ms
[OGL LOG] init_preconditioner : 0 ms
[OGL LOG] solve : 18101 ms
noneompGKOBiCGStab:  Solving for p, Initial residual = 1, Final residual = 1.82149e-07, No Iterations 720
time step continuity errors : sum local = 1.14841e-08, global = -9.55695e-21, cumulative = -9.55695e-21
[OGL LOG] init_preconditioner : 0 ms
[OGL LOG] solve : 16818 ms
noneompGKOBiCGStab:  Solving for p, Initial residual = 0.707492, Final residual = 7.25673e-07, No Iterations 701
time step continuity errors : sum local = 8.20107e-08, global = 2.11552e-21, cumulative = -7.44143e-21
ExecutionTime = 2217.93 s  ClockTime = 49 s

Time = 0.002

Courant Number mean: 0.0422155 max: 0.791725
nonePBiCGStab:  Solving for Ux, Initial residual = 0.137873, Final residual = 0.0400118, No Iterations 5
nonePBiCGStab:  Solving for Uy, Initial residual = 0.451741, Final residual = 0.130209, No Iterations 5
nonePBiCGStab:  Solving for Uz, Initial residual = 0.986953, Final residual = 0.324091, No Iterations 5
[OGL LOG] init_preconditioner : 0 ms
[OGL LOG] solve : 18547 ms
noneompGKOBiCGStab:  Solving for p, Initial residual = 0.789645, Final residual = 1.23989e-07, No Iterations 750
time step continuity errors : sum local = 5.05546e-07, global = 3.85991e-21, cumulative = -3.58152e-21
[OGL LOG] init_preconditioner : 0 ms
[OGL LOG] solve : 16263 ms
noneompGKOBiCGStab:  Solving for p, Initial residual = 0.713495, Final residual = 8.91038e-07, No Iterations 719
time step continuity errors : sum local = 3.62278e-07, global = -5.17166e-22, cumulative = -4.09869e-21
ExecutionTime = 4431.57 s  ClockTime = 85 s

Time = 0.003

Courant Number mean: 0.0674663 max: 0.899974
nonePBiCGStab:  Solving for Ux, Initial residual = 0.0610408, Final residual = 0.0153024, No Iterations 5
nonePBiCGStab:  Solving for Uy, Initial residual = 0.208946, Final residual = 0.0596845, No Iterations 5
nonePBiCGStab:  Solving for Uz, Initial residual = 0.708831, Final residual = 0.218949, No Iterations 5
[OGL LOG] init_preconditioner : 0 ms
[OGL LOG] solve : 9705 ms
noneompGKOBiCGStab:  Solving for p, Initial residual = 0.796886, Final residual = 9.67236e-07, No Iterations 429
time step continuity errors : sum local = 8.26441e-10, global = 1.14057e-20, cumulative = 7.30698e-21
[OGL LOG] init_preconditioner : 0 ms
[OGL LOG] solve : 16955 ms
noneompGKOBiCGStab:  Solving for p, Initial residual = 0.724883, Final residual = 7.53294e-07, No Iterations 722
time step continuity errors : sum local = 4.74315e-07, global = 1.01122e-20, cumulative = 1.74192e-20
ExecutionTime = 6128.5 s  ClockTime = 113 s

Time = 0.004

Courant Number mean: 0.0814702 max: 0.912879
nonePBiCGStab:  Solving for Ux, Initial residual = 0.0387756, Final residual = 0.0107379, No Iterations 5
nonePBiCGStab:  Solving for Uy, Initial residual = 0.149022, Final residual = 0.0506569, No Iterations 5
nonePBiCGStab:  Solving for Uz, Initial residual = 0.491068, Final residual = 0.136823, No Iterations 5
[OGL LOG] init_preconditioner : 0 ms
[OGL LOG] solve : 16446 ms
noneompGKOBiCGStab:  Solving for p, Initial residual = 0.719405, Final residual = 1.83228e-07, No Iterations 714
time step continuity errors : sum local = 3.46855e-07, global = 5.81029e-21, cumulative = 2.32295e-20
[OGL LOG] init_preconditioner : 0 ms
[OGL LOG] solve : 16265 ms
noneompGKOBiCGStab:  Solving for p, Initial residual = 0.619935, Final residual = 8.32715e-07, No Iterations 709
time step continuity errors : sum local = 1.01523e-07, global = 3.3264e-21, cumulative = 2.65559e-20
ExecutionTime = 8202.17 s  ClockTime = 147 s

Time = 0.005

Courant Number mean: 0.0922651 max: 0.925541
nonePBiCGStab:  Solving for Ux, Initial residual = 0.0298044, Final residual = 0.00895885, No Iterations 5
nonePBiCGStab:  Solving for Uy, Initial residual = 0.0987397, Final residual = 0.0361276, No Iterations 5
nonePBiCGStab:  Solving for Uz, Initial residual = 0.30522, Final residual = 0.0803281, No Iterations 5
[OGL LOG] init_preconditioner : 0 ms
[OGL LOG] solve : 15312 ms
noneompGKOBiCGStab:  Solving for p, Initial residual = 0.756621, Final residual = 9.42467e-07, No Iterations 622
time step continuity errors : sum local = 4.95417e-08, global = 5.56667e-21, cumulative = 3.21225e-20
[OGL LOG] init_preconditioner : 0 ms
[OGL LOG] solve : 15865 ms
noneompGKOBiCGStab:  Solving for p, Initial residual = 0.670436, Final residual = 7.29732e-07, No Iterations 655
time step continuity errors : sum local = 4.20537e-08, global = -2.52732e-21, cumulative = 2.95952e-20
ExecutionTime = 10182.7 s  ClockTime = 180 s

End

