/*---------------------------------------------------------------------------*\
  =========                 |
  \\      /  F ield         | OpenFOAM: The Open Source CFD Toolbox
   \\    /   O peration     | Website:  https://openfoam.org
    \\  /    A nd           | Version:  8
     \\/     M anipulation  |
\*---------------------------------------------------------------------------*/
Build  : 8-13d66902f78c
Exec   : icoFoam
Date   : Jul 13 2021
Time   : 23:32:02
Host   : "uc2n525.localdomain"
PID    : 3761573
I/O    : uncollated
Case   : /pfs/data5/home/kit/scc/nq7776/code/OGL_DATA/lidDrivenCavity3D/v0.1-136-g40fef35/f584ccac99/IntelXeonGold6230CPU@2.10GHz/Test_2021-07-13-22:16:26/100/p-BiCGStab-GKO-none-omp/lidDrivenCavity3D
nProcs : 1
sigFpe : Enabling floating point exception trapping (FOAM_SIGFPE).
fileModificationChecking : Monitoring run-time modified files using timeStampMaster (fileModificationSkew 10)
allowSystemOperations : Allowing user-supplied system call operations

// * * * * * * * * * * * * * * * * * * * * * * * * * * * * * * * * * * * * * //
Create time

Create mesh for time = 0

Reading transportProperties

Reading field p

Reading field U

Reading/calculating face flux field phi


Starting time loop

Time = 0.001

Courant Number mean: 0 max: 0
nonePBiCGStab:  Solving for Ux, Initial residual = 1, Final residual = 0.0818707, No Iterations 5
nonePBiCGStab:  Solving for Uy, Initial residual = 0, Final residual = 0, No Iterations 0
nonePBiCGStab:  Solving for Uz, Initial residual = 0, Final residual = 0, No Iterations 0
[OGL LOG] init_host_sparsity_pattern : 287 ms
[OGL LOG] matrix not stored update host matrix
[OGL LOG] update_host_mtx : 147 ms
[OGL LOG] matrix is not yet sorted, compute sorting idxs
[OGL LOG] compute_sort : 8292 ms
[OGL LOG] matrix is not yet sorted, sorting host matrix
[OGL LOG] sort_host_mtx_sparsity_pattern : 192 ms
[OGL LOG] sort_host_mtx : 124 ms
[OGL LOG] init_preconditioner : 0 ms
[OGL LOG] solve : 46332 ms
noneompGKOBiCGStab:  Solving for p, Initial residual = 1, Final residual = 1.82149e-07, No Iterations 720
time step continuity errors : sum local = 2.37944e-09, global = -9.55767e-21, cumulative = -9.55767e-21
[OGL LOG] init_preconditioner : 0 ms
[OGL LOG] solve : 43437 ms
noneompGKOBiCGStab:  Solving for p, Initial residual = 0.707493, Final residual = 3.87685e-07, No Iterations 672
time step continuity errors : sum local = 1.27991e-08, global = 7.10615e-21, cumulative = -2.45152e-21
ExecutionTime = 103.29 s  ClockTime = 103 s

Time = 0.002

Courant Number mean: 0.0422155 max: 0.791725
nonePBiCGStab:  Solving for Ux, Initial residual = 0.137878, Final residual = 0.0400154, No Iterations 5
nonePBiCGStab:  Solving for Uy, Initial residual = 0.451738, Final residual = 0.130148, No Iterations 5
nonePBiCGStab:  Solving for Uz, Initial residual = 0.987168, Final residual = 0.323517, No Iterations 5
[OGL LOG] init_preconditioner : 0 ms
[OGL LOG] solve : 46713 ms
noneompGKOBiCGStab:  Solving for p, Initial residual = 0.789682, Final residual = 5.10326e-07, No Iterations 727
time step continuity errors : sum local = 3.48548e-09, global = 7.89828e-22, cumulative = -1.6617e-21
[OGL LOG] init_preconditioner : 0 ms
[OGL LOG] solve : 49252 ms
noneompGKOBiCGStab:  Solving for p, Initial residual = 0.713492, Final residual = 1.0136e-07, No Iterations 767
time step continuity errors : sum local = 7.14856e-09, global = -9.3323e-21, cumulative = -1.0994e-20
ExecutionTime = 200.58 s  ClockTime = 201 s

Time = 0.003

Courant Number mean: 0.0674673 max: 0.89998
nonePBiCGStab:  Solving for Ux, Initial residual = 0.06105, Final residual = 0.0152957, No Iterations 5
nonePBiCGStab:  Solving for Uy, Initial residual = 0.208785, Final residual = 0.0594443, No Iterations 5
nonePBiCGStab:  Solving for Uz, Initial residual = 0.711203, Final residual = 0.212622, No Iterations 5
[OGL LOG] init_preconditioner : 0 ms
[OGL LOG] solve : 51953 ms
noneompGKOBiCGStab:  Solving for p, Initial residual = 0.797099, Final residual = 1.98975e-07, No Iterations 807
time step continuity errors : sum local = 8.2067e-09, global = 1.05684e-20, cumulative = -4.25643e-22
[OGL LOG] init_preconditioner : 0 ms
[OGL LOG] solve : 44776 ms
noneompGKOBiCGStab:  Solving for p, Initial residual = 0.724968, Final residual = 4.22774e-07, No Iterations 696
time step continuity errors : sum local = 6.33277e-09, global = 1.0725e-20, cumulative = 1.02993e-20
ExecutionTime = 298.24 s  ClockTime = 298 s

Time = 0.004

Courant Number mean: 0.0814731 max: 0.912889
nonePBiCGStab:  Solving for Ux, Initial residual = 0.0387735, Final residual = 0.0107204, No Iterations 5
nonePBiCGStab:  Solving for Uy, Initial residual = 0.149002, Final residual = 0.0502252, No Iterations 5
nonePBiCGStab:  Solving for Uz, Initial residual = 0.493695, Final residual = 0.135331, No Iterations 5
[OGL LOG] init_preconditioner : 0 ms
[OGL LOG] solve : 45093 ms
noneompGKOBiCGStab:  Solving for p, Initial residual = 0.719502, Final residual = 3.06972e-07, No Iterations 700
time step continuity errors : sum local = 2.90495e-09, global = -1.28326e-20, cumulative = -2.53324e-21
[OGL LOG] init_preconditioner : 0 ms
[OGL LOG] solve : 43546 ms
noneompGKOBiCGStab:  Solving for p, Initial residual = 0.619854, Final residual = 9.2519e-07, No Iterations 677
time step continuity errors : sum local = 4.64352e-09, global = 1.83776e-21, cumulative = -6.95486e-22
ExecutionTime = 387.83 s  ClockTime = 388 s

Time = 0.005

Courant Number mean: 0.0922782 max: 0.925556
nonePBiCGStab:  Solving for Ux, Initial residual = 0.0298226, Final residual = 0.00896477, No Iterations 5
nonePBiCGStab:  Solving for Uy, Initial residual = 0.0986333, Final residual = 0.0357997, No Iterations 5
nonePBiCGStab:  Solving for Uz, Initial residual = 0.306032, Final residual = 0.0794464, No Iterations 5
[OGL LOG] init_preconditioner : 0 ms
[OGL LOG] solve : 39510 ms
noneompGKOBiCGStab:  Solving for p, Initial residual = 0.757145, Final residual = 9.90233e-07, No Iterations 615
time step continuity errors : sum local = 1.35252e-09, global = -4.55286e-21, cumulative = -5.24835e-21
[OGL LOG] init_preconditioner : 0 ms
[OGL LOG] solve : 48767 ms
noneompGKOBiCGStab:  Solving for p, Initial residual = 0.670836, Final residual = 9.89613e-07, No Iterations 759
time step continuity errors : sum local = 6.95879e-10, global = -7.98425e-21, cumulative = -1.32326e-20
ExecutionTime = 477.05 s  ClockTime = 478 s

End

