/*---------------------------------------------------------------------------*\
  =========                 |
  \\      /  F ield         | OpenFOAM: The Open Source CFD Toolbox
   \\    /   O peration     | Website:  https://openfoam.org
    \\  /    A nd           | Version:  8
     \\/     M anipulation  |
\*---------------------------------------------------------------------------*/
Build  : 8-13d66902f78c
Exec   : icoFoam
Date   : Jul 14 2021
Time   : 01:54:12
Host   : "uc2n553.localdomain"
PID    : 758487
I/O    : uncollated
Case   : /pfs/data5/home/kit/scc/nq7776/code/OGL_DATA/lidDrivenCavity3D/v0.1-136-g40fef35/f584ccac99/IntelXeonGold6230CPU@2.10GHz/Test_2021-07-14-00:17:39/100/p-U-CG-GKO-none-omp/lidDrivenCavity3D
nProcs : 1
sigFpe : Enabling floating point exception trapping (FOAM_SIGFPE).
fileModificationChecking : Monitoring run-time modified files using timeStampMaster (fileModificationSkew 10)
allowSystemOperations : Allowing user-supplied system call operations

// * * * * * * * * * * * * * * * * * * * * * * * * * * * * * * * * * * * * * //
Create time

Create mesh for time = 0

Reading transportProperties

Reading field p

Reading field U

Reading/calculating face flux field phi


Starting time loop

Time = 0.001

Courant Number mean: 0 max: 0
[OGL LOG] init_host_sparsity_pattern : 288 ms
[OGL LOG] matrix not stored update host matrix
[OGL LOG] update_host_mtx : 145 ms
[OGL LOG] matrix is not yet sorted, compute sorting idxs
[OGL LOG] compute_sort : 8336 ms
[OGL LOG] matrix is not yet sorted, sorting host matrix
[OGL LOG] sort_host_mtx_sparsity_pattern : 185 ms
[OGL LOG] sort_host_mtx : 125 ms
[OGL LOG] init_preconditioner : 0 ms
[OGL LOG] solve : 2376 ms
noneompGKOBiCGStab:  Solving for Ux, Initial residual = 1, Final residual = 8.92714e-07, No Iterations 56
[OGL LOG] init_host_sparsity_pattern : 282 ms
[OGL LOG] matrix not stored update host matrix
[OGL LOG] update_host_mtx : 153 ms
[OGL LOG] matrix is not yet sorted, sorting host matrix
[OGL LOG] sort_host_mtx_sparsity_pattern : 193 ms
[OGL LOG] sort_host_mtx : 125 ms
[OGL LOG] init_preconditioner : 0 ms
[OGL LOG] solve : 62 ms
noneompGKOBiCGStab:  Solving for Uy, Initial residual = 0, Final residual = 0, No Iterations 0
[OGL LOG] init_host_sparsity_pattern : 266 ms
[OGL LOG] matrix not stored update host matrix
[OGL LOG] update_host_mtx : 145 ms
[OGL LOG] matrix is not yet sorted, sorting host matrix
[OGL LOG] sort_host_mtx_sparsity_pattern : 193 ms
[OGL LOG] sort_host_mtx : 128 ms
[OGL LOG] init_preconditioner : 0 ms
[OGL LOG] solve : 57 ms
noneompGKOBiCGStab:  Solving for Uz, Initial residual = 0, Final residual = 0, No Iterations 0
[OGL LOG] init_host_sparsity_pattern : 286 ms
[OGL LOG] matrix not stored update host matrix
[OGL LOG] update_host_mtx : 147 ms
[OGL LOG] matrix is not yet sorted, sorting host matrix
[OGL LOG] sort_host_mtx_sparsity_pattern : 192 ms
[OGL LOG] sort_host_mtx : 125 ms
[OGL LOG] init_preconditioner : 0 ms
[OGL LOG] solve : 17998 ms
noneompGKOCG:  Solving for p, Initial residual = 1, Final residual = 9.84208e-07, No Iterations 900
time step continuity errors : sum local = 5.90082e-10, global = -8.95303e-21, cumulative = -8.95303e-21
[OGL LOG] init_preconditioner : 0 ms
[OGL LOG] solve : 17696 ms
noneompGKOCG:  Solving for p, Initial residual = 0.783585, Final residual = 9.5502e-07, No Iterations 893
time step continuity errors : sum local = 7.1584e-10, global = 7.31783e-21, cumulative = -1.6352e-21
ExecutionTime = 92.62 s  ClockTime = 55 s

Time = 0.002

Courant Number mean: 0.0571435 max: 0.804774
[OGL LOG] init_host_sparsity_pattern : 266 ms
[OGL LOG] matrix not stored update host matrix
[OGL LOG] update_host_mtx : 136 ms
[OGL LOG] matrix is not yet sorted, sorting host matrix
[OGL LOG] sort_host_mtx_sparsity_pattern : 198 ms
[OGL LOG] sort_host_mtx : 125 ms
[OGL LOG] init_preconditioner : 0 ms
[OGL LOG] solve : 2198 ms
noneompGKOBiCGStab:  Solving for Ux, Initial residual = 0.169075, Final residual = 5.6465e-07, No Iterations 54
[OGL LOG] init_host_sparsity_pattern : 266 ms
[OGL LOG] matrix not stored update host matrix
[OGL LOG] update_host_mtx : 126 ms
[OGL LOG] matrix is not yet sorted, sorting host matrix
[OGL LOG] sort_host_mtx_sparsity_pattern : 192 ms
[OGL LOG] sort_host_mtx : 125 ms
[OGL LOG] init_preconditioner : 0 ms
[OGL LOG] solve : 2194 ms
noneompGKOBiCGStab:  Solving for Uy, Initial residual = 0.620181, Final residual = 9.74724e-07, No Iterations 54
[OGL LOG] init_host_sparsity_pattern : 266 ms
[OGL LOG] matrix not stored update host matrix
[OGL LOG] update_host_mtx : 126 ms
[OGL LOG] matrix is not yet sorted, sorting host matrix
[OGL LOG] sort_host_mtx_sparsity_pattern : 192 ms
[OGL LOG] sort_host_mtx : 125 ms
[OGL LOG] init_preconditioner : 0 ms
[OGL LOG] solve : 2414 ms
noneompGKOBiCGStab:  Solving for Uz, Initial residual = 0.646977, Final residual = 9.30435e-07, No Iterations 59
[OGL LOG] init_preconditioner : 0 ms
[OGL LOG] solve : 17465 ms
noneompGKOCG:  Solving for p, Initial residual = 0.798451, Final residual = 9.80537e-07, No Iterations 884
time step continuity errors : sum local = 9.97104e-10, global = 1.17e-21, cumulative = -4.65203e-22
[OGL LOG] init_preconditioner : 0 ms
[OGL LOG] solve : 17381 ms
noneompGKOCG:  Solving for p, Initial residual = 0.738605, Final residual = 9.64933e-07, No Iterations 872
time step continuity errors : sum local = 1.00235e-09, global = -1.40006e-20, cumulative = -1.44658e-20
ExecutionTime = 179.16 s  ClockTime = 100 s

Time = 0.003

Courant Number mean: 0.0867391 max: 0.944826
[OGL LOG] init_host_sparsity_pattern : 266 ms
[OGL LOG] matrix not stored update host matrix
[OGL LOG] update_host_mtx : 127 ms
[OGL LOG] matrix is not yet sorted, sorting host matrix
[OGL LOG] sort_host_mtx_sparsity_pattern : 198 ms
[OGL LOG] sort_host_mtx : 125 ms
[OGL LOG] init_preconditioner : 0 ms
[OGL LOG] solve : 2079 ms
noneompGKOBiCGStab:  Solving for Ux, Initial residual = 0.102638, Final residual = 8.77912e-07, No Iterations 47
[OGL LOG] init_host_sparsity_pattern : 266 ms
[OGL LOG] matrix not stored update host matrix
[OGL LOG] update_host_mtx : 126 ms
[OGL LOG] matrix is not yet sorted, sorting host matrix
[OGL LOG] sort_host_mtx_sparsity_pattern : 193 ms
[OGL LOG] sort_host_mtx : 125 ms
[OGL LOG] init_preconditioner : 0 ms
[OGL LOG] solve : 1957 ms
noneompGKOBiCGStab:  Solving for Uy, Initial residual = 0.396946, Final residual = 8.9278e-07, No Iterations 47
[OGL LOG] init_host_sparsity_pattern : 266 ms
[OGL LOG] matrix not stored update host matrix
[OGL LOG] update_host_mtx : 127 ms
[OGL LOG] matrix is not yet sorted, sorting host matrix
[OGL LOG] sort_host_mtx_sparsity_pattern : 193 ms
[OGL LOG] sort_host_mtx : 125 ms
[OGL LOG] init_preconditioner : 0 ms
[OGL LOG] solve : 2074 ms
noneompGKOBiCGStab:  Solving for Uz, Initial residual = 1.00087, Final residual = 9.15915e-07, No Iterations 51
[OGL LOG] init_preconditioner : 0 ms
[OGL LOG] solve : 17652 ms
noneompGKOCG:  Solving for p, Initial residual = 0.832647, Final residual = 9.53962e-07, No Iterations 890
time step continuity errors : sum local = 9.1897e-10, global = 8.65649e-21, cumulative = -5.8093e-21
[OGL LOG] init_preconditioner : 0 ms
[OGL LOG] solve : 17508 ms
noneompGKOCG:  Solving for p, Initial residual = 0.802906, Final residual = 9.86251e-07, No Iterations 888
time step continuity errors : sum local = 9.2632e-10, global = -2.84626e-21, cumulative = -8.65555e-21
ExecutionTime = 264.98 s  ClockTime = 144 s

Time = 0.004

Courant Number mean: 0.0995268 max: 0.926351
[OGL LOG] init_host_sparsity_pattern : 266 ms
[OGL LOG] matrix not stored update host matrix
[OGL LOG] update_host_mtx : 133 ms
[OGL LOG] matrix is not yet sorted, sorting host matrix
[OGL LOG] sort_host_mtx_sparsity_pattern : 198 ms
[OGL LOG] sort_host_mtx : 125 ms
[OGL LOG] init_preconditioner : 0 ms
[OGL LOG] solve : 1779 ms
noneompGKOBiCGStab:  Solving for Ux, Initial residual = 0.0541603, Final residual = 9.86396e-07, No Iterations 43
[OGL LOG] init_host_sparsity_pattern : 266 ms
[OGL LOG] matrix not stored update host matrix
[OGL LOG] update_host_mtx : 127 ms
[OGL LOG] matrix is not yet sorted, sorting host matrix
[OGL LOG] sort_host_mtx_sparsity_pattern : 193 ms
[OGL LOG] sort_host_mtx : 125 ms
[OGL LOG] init_preconditioner : 0 ms
[OGL LOG] solve : 1912 ms
noneompGKOBiCGStab:  Solving for Uy, Initial residual = 0.255021, Final residual = 9.98104e-07, No Iterations 47
[OGL LOG] init_host_sparsity_pattern : 266 ms
[OGL LOG] matrix not stored update host matrix
[OGL LOG] update_host_mtx : 127 ms
[OGL LOG] matrix is not yet sorted, sorting host matrix
[OGL LOG] sort_host_mtx_sparsity_pattern : 193 ms
[OGL LOG] sort_host_mtx : 125 ms
[OGL LOG] init_preconditioner : 0 ms
[OGL LOG] solve : 2132 ms
noneompGKOBiCGStab:  Solving for Uz, Initial residual = 0.873007, Final residual = 9.92085e-07, No Iterations 52
[OGL LOG] init_preconditioner : 0 ms
[OGL LOG] solve : 17588 ms
noneompGKOCG:  Solving for p, Initial residual = 0.75017, Final residual = 9.61854e-07, No Iterations 889
time step continuity errors : sum local = 8.55916e-10, global = 1.48516e-21, cumulative = -7.1704e-21
[OGL LOG] init_preconditioner : 0 ms
[OGL LOG] solve : 17500 ms
noneompGKOCG:  Solving for p, Initial residual = 0.685317, Final residual = 9.59695e-07, No Iterations 887
time step continuity errors : sum local = 8.7015e-10, global = -9.90787e-21, cumulative = -1.70783e-20
ExecutionTime = 350.01 s  ClockTime = 189 s

Time = 0.005

Courant Number mean: 0.112163 max: 0.946348
[OGL LOG] init_host_sparsity_pattern : 266 ms
[OGL LOG] matrix not stored update host matrix
[OGL LOG] update_host_mtx : 130 ms
[OGL LOG] matrix is not yet sorted, sorting host matrix
[OGL LOG] sort_host_mtx_sparsity_pattern : 193 ms
[OGL LOG] sort_host_mtx : 125 ms
[OGL LOG] init_preconditioner : 0 ms
[OGL LOG] solve : 1866 ms
noneompGKOBiCGStab:  Solving for Ux, Initial residual = 0.0411815, Final residual = 8.16927e-07, No Iterations 46
[OGL LOG] init_host_sparsity_pattern : 266 ms
[OGL LOG] matrix not stored update host matrix
[OGL LOG] update_host_mtx : 128 ms
[OGL LOG] matrix is not yet sorted, sorting host matrix
[OGL LOG] sort_host_mtx_sparsity_pattern : 192 ms
[OGL LOG] sort_host_mtx : 125 ms
[OGL LOG] init_preconditioner : 0 ms
[OGL LOG] solve : 1938 ms
noneompGKOBiCGStab:  Solving for Uy, Initial residual = 0.13186, Final residual = 4.48836e-07, No Iterations 47
[OGL LOG] init_host_sparsity_pattern : 266 ms
[OGL LOG] matrix not stored update host matrix
[OGL LOG] update_host_mtx : 126 ms
[OGL LOG] matrix is not yet sorted, sorting host matrix
[OGL LOG] sort_host_mtx_sparsity_pattern : 199 ms
[OGL LOG] sort_host_mtx : 125 ms
[OGL LOG] init_preconditioner : 0 ms
[OGL LOG] solve : 2111 ms
noneompGKOBiCGStab:  Solving for Uz, Initial residual = 0.871796, Final residual = 9.7709e-07, No Iterations 52
[OGL LOG] init_preconditioner : 0 ms
[OGL LOG] solve : 17865 ms
noneompGKOCG:  Solving for p, Initial residual = 0.760002, Final residual = 9.50313e-07, No Iterations 896
time step continuity errors : sum local = 7.18544e-10, global = -4.32093e-21, cumulative = -2.13992e-20
[OGL LOG] init_preconditioner : 0 ms
[OGL LOG] solve : 17628 ms
noneompGKOCG:  Solving for p, Initial residual = 0.713347, Final residual = 9.82048e-07, No Iterations 894
time step continuity errors : sum local = 7.3069e-10, global = -3.02814e-21, cumulative = -2.44273e-20
ExecutionTime = 435.56 s  ClockTime = 233 s

End

