/*---------------------------------------------------------------------------*\
  =========                 |
  \\      /  F ield         | OpenFOAM: The Open Source CFD Toolbox
   \\    /   O peration     | Website:  https://openfoam.org
    \\  /    A nd           | Version:  8
     \\/     M anipulation  |
\*---------------------------------------------------------------------------*/
Build  : 8-13d66902f78c
Exec   : icoFoam
Date   : Jul 13 2021
Time   : 22:22:29
Host   : "uc2n525.localdomain"
PID    : 3752187
I/O    : uncollated
Case   : /pfs/data5/home/kit/scc/nq7776/code/OGL_DATA/lidDrivenCavity3D/v0.1-136-g40fef35/f584ccac99/IntelXeonGold6230CPU@2.10GHz/Test_2021-07-13-22:16:26/25/p-BiCGStab-GKO-none-omp/lidDrivenCavity3D
nProcs : 1
sigFpe : Enabling floating point exception trapping (FOAM_SIGFPE).
fileModificationChecking : Monitoring run-time modified files using timeStampMaster (fileModificationSkew 10)
allowSystemOperations : Allowing user-supplied system call operations

// * * * * * * * * * * * * * * * * * * * * * * * * * * * * * * * * * * * * * //
Create time

Create mesh for time = 0

Reading transportProperties

Reading field p

Reading field U

Reading/calculating face flux field phi


Starting time loop

Time = 0.004

Courant Number mean: 0 max: 0
nonePBiCGStab:  Solving for Ux, Initial residual = 1, Final residual = 0.0337517, No Iterations 5
nonePBiCGStab:  Solving for Uy, Initial residual = 0, Final residual = 0, No Iterations 0
nonePBiCGStab:  Solving for Uz, Initial residual = 0, Final residual = 0, No Iterations 0
[OGL LOG] init_host_sparsity_pattern : 4 ms
[OGL LOG] matrix not stored update host matrix
[OGL LOG] update_host_mtx : 2 ms
[OGL LOG] matrix is not yet sorted, compute sorting idxs
[OGL LOG] compute_sort : 98 ms
[OGL LOG] matrix is not yet sorted, sorting host matrix
[OGL LOG] sort_host_mtx_sparsity_pattern : 3 ms
[OGL LOG] sort_host_mtx : 1 ms
[OGL LOG] init_preconditioner : 0 ms
[OGL LOG] solve : 107 ms
noneompGKOBiCGStab:  Solving for p, Initial residual = 1, Final residual = 8.85604e-07, No Iterations 176
time step continuity errors : sum local = 4.69833e-08, global = 2.43357e-21, cumulative = 2.43357e-21
[OGL LOG] init_preconditioner : 0 ms
[OGL LOG] solve : 100 ms
noneompGKOBiCGStab:  Solving for p, Initial residual = 0.622289, Final residual = 8.93535e-07, No Iterations 170
time step continuity errors : sum local = 5.59176e-08, global = -5.71701e-20, cumulative = -5.47365e-20
ExecutionTime = 7.37 s  ClockTime = 1 s

Time = 0.008

Courant Number mean: 0.084228 max: 0.621061
nonePBiCGStab:  Solving for Ux, Initial residual = 0.14959, Final residual = 0.00942691, No Iterations 5
nonePBiCGStab:  Solving for Uy, Initial residual = 0.281196, Final residual = 0.0142204, No Iterations 5
nonePBiCGStab:  Solving for Uz, Initial residual = 0.93328, Final residual = 0.0511141, No Iterations 5
[OGL LOG] init_preconditioner : 0 ms
[OGL LOG] solve : 100 ms
noneompGKOBiCGStab:  Solving for p, Initial residual = 0.518047, Final residual = 9.5795e-07, No Iterations 169
time step continuity errors : sum local = 2.2317e-08, global = 6.40928e-20, cumulative = 9.35634e-21
[OGL LOG] init_preconditioner : 0 ms
[OGL LOG] solve : 110 ms
noneompGKOBiCGStab:  Solving for p, Initial residual = 0.415897, Final residual = 8.58e-07, No Iterations 170
time step continuity errors : sum local = 8.39045e-07, global = 3.27382e-20, cumulative = 4.20945e-20
ExecutionTime = 14.42 s  ClockTime = 1 s

Time = 0.012

Courant Number mean: 0.124051 max: 0.792234
nonePBiCGStab:  Solving for Ux, Initial residual = 0.0424959, Final residual = 0.00204599, No Iterations 5
nonePBiCGStab:  Solving for Uy, Initial residual = 0.0761581, Final residual = 0.00263694, No Iterations 5
nonePBiCGStab:  Solving for Uz, Initial residual = 0.142765, Final residual = 0.00669261, No Iterations 5
[OGL LOG] init_preconditioner : 0 ms
[OGL LOG] solve : 113 ms
noneompGKOBiCGStab:  Solving for p, Initial residual = 0.279259, Final residual = 4.88409e-07, No Iterations 168
time step continuity errors : sum local = 1.62143e-07, global = 8.48954e-20, cumulative = 1.2699e-19
[OGL LOG] init_preconditioner : 0 ms
[OGL LOG] solve : 112 ms
noneompGKOBiCGStab:  Solving for p, Initial residual = 0.224072, Final residual = 9.2202e-07, No Iterations 169
time step continuity errors : sum local = 2.16828e-08, global = 9.79469e-20, cumulative = 2.24937e-19
ExecutionTime = 21.88 s  ClockTime = 1 s

Time = 0.016

Courant Number mean: 0.142529 max: 0.824384
nonePBiCGStab:  Solving for Ux, Initial residual = 0.0219012, Final residual = 0.000754008, No Iterations 5
nonePBiCGStab:  Solving for Uy, Initial residual = 0.047475, Final residual = 0.000978297, No Iterations 5
nonePBiCGStab:  Solving for Uz, Initial residual = 0.0926867, Final residual = 0.00341016, No Iterations 5
[OGL LOG] init_preconditioner : 0 ms
[OGL LOG] solve : 109 ms
noneompGKOBiCGStab:  Solving for p, Initial residual = 0.138561, Final residual = 9.88649e-07, No Iterations 163
time step continuity errors : sum local = 8.4054e-07, global = 2.20559e-20, cumulative = 2.46993e-19
[OGL LOG] init_preconditioner : 0 ms
[OGL LOG] solve : 107 ms
noneompGKOBiCGStab:  Solving for p, Initial residual = 0.106639, Final residual = 9.99474e-07, No Iterations 162
time step continuity errors : sum local = 9.9692e-09, global = 1.99908e-19, cumulative = 4.46901e-19
ExecutionTime = 29.05 s  ClockTime = 2 s

Time = 0.02

Courant Number mean: 0.154856 max: 0.843613
nonePBiCGStab:  Solving for Ux, Initial residual = 0.0136614, Final residual = 0.000407033, No Iterations 5
nonePBiCGStab:  Solving for Uy, Initial residual = 0.0288104, Final residual = 0.000729657, No Iterations 5
nonePBiCGStab:  Solving for Uz, Initial residual = 0.0552906, Final residual = 0.00185026, No Iterations 5
[OGL LOG] init_preconditioner : 0 ms
[OGL LOG] solve : 111 ms
noneompGKOBiCGStab:  Solving for p, Initial residual = 0.0654525, Final residual = 4.37462e-07, No Iterations 156
time step continuity errors : sum local = 7.28699e-08, global = 8.21481e-20, cumulative = 5.29049e-19
[OGL LOG] init_preconditioner : 0 ms
[OGL LOG] solve : 108 ms
noneompGKOBiCGStab:  Solving for p, Initial residual = 0.0511128, Final residual = 6.92219e-07, No Iterations 157
time step continuity errors : sum local = 1.12243e-07, global = -5.42314e-20, cumulative = 4.74818e-19
ExecutionTime = 36.4 s  ClockTime = 2 s

End

