/*---------------------------------------------------------------------------*\
  =========                 |
  \\      /  F ield         | OpenFOAM: The Open Source CFD Toolbox
   \\    /   O peration     | Website:  https://openfoam.org
    \\  /    A nd           | Version:  8
     \\/     M anipulation  |
\*---------------------------------------------------------------------------*/
Build  : 8-13d66902f78c
Exec   : icoFoam
Date   : Jul 14 2021
Time   : 00:46:45
Host   : "uc2n553.localdomain"
PID    : 753501
I/O    : uncollated
Case   : /pfs/data5/home/kit/scc/nq7776/code/OGL_DATA/lidDrivenCavity3D/v0.1-136-g40fef35/f584ccac99/IntelXeonGold6230CPU@2.10GHz/Test_2021-07-14-00:17:39/75/p-U-CG-GKO-none-omp/lidDrivenCavity3D
nProcs : 1
sigFpe : Enabling floating point exception trapping (FOAM_SIGFPE).
fileModificationChecking : Monitoring run-time modified files using timeStampMaster (fileModificationSkew 10)
allowSystemOperations : Allowing user-supplied system call operations

// * * * * * * * * * * * * * * * * * * * * * * * * * * * * * * * * * * * * * //
Create time

Create mesh for time = 0

Reading transportProperties

Reading field p

Reading field U

Reading/calculating face flux field phi


Starting time loop

Time = 0.00133333

Courant Number mean: 0 max: 0
[OGL LOG] init_host_sparsity_pattern : 120 ms
[OGL LOG] matrix not stored update host matrix
[OGL LOG] update_host_mtx : 61 ms
[OGL LOG] matrix is not yet sorted, compute sorting idxs
[OGL LOG] compute_sort : 3343 ms
[OGL LOG] matrix is not yet sorted, sorting host matrix
[OGL LOG] sort_host_mtx_sparsity_pattern : 77 ms
[OGL LOG] sort_host_mtx : 51 ms
[OGL LOG] init_preconditioner : 0 ms
[OGL LOG] solve : 916 ms
noneompGKOBiCGStab:  Solving for Ux, Initial residual = 1, Final residual = 8.84363e-07, No Iterations 51
[OGL LOG] init_host_sparsity_pattern : 117 ms
[OGL LOG] matrix not stored update host matrix
[OGL LOG] update_host_mtx : 62 ms
[OGL LOG] matrix is not yet sorted, sorting host matrix
[OGL LOG] sort_host_mtx_sparsity_pattern : 81 ms
[OGL LOG] sort_host_mtx : 43 ms
[OGL LOG] init_preconditioner : 0 ms
[OGL LOG] solve : 23 ms
noneompGKOBiCGStab:  Solving for Uy, Initial residual = 0, Final residual = 0, No Iterations 0
[OGL LOG] init_host_sparsity_pattern : 112 ms
[OGL LOG] matrix not stored update host matrix
[OGL LOG] update_host_mtx : 53 ms
[OGL LOG] matrix is not yet sorted, sorting host matrix
[OGL LOG] sort_host_mtx_sparsity_pattern : 81 ms
[OGL LOG] sort_host_mtx : 43 ms
[OGL LOG] init_preconditioner : 0 ms
[OGL LOG] solve : 19 ms
noneompGKOBiCGStab:  Solving for Uz, Initial residual = 0, Final residual = 0, No Iterations 0
[OGL LOG] init_host_sparsity_pattern : 116 ms
[OGL LOG] matrix not stored update host matrix
[OGL LOG] update_host_mtx : 67 ms
[OGL LOG] matrix is not yet sorted, sorting host matrix
[OGL LOG] sort_host_mtx_sparsity_pattern : 81 ms
[OGL LOG] sort_host_mtx : 43 ms
[OGL LOG] init_preconditioner : 0 ms
[OGL LOG] solve : 6286 ms
noneompGKOCG:  Solving for p, Initial residual = 1, Final residual = 9.33866e-07, No Iterations 671
time step continuity errors : sum local = 8.52975e-10, global = 3.77104e-21, cumulative = 3.77104e-21
[OGL LOG] init_preconditioner : 0 ms
[OGL LOG] solve : 6223 ms
noneompGKOCG:  Solving for p, Initial residual = 0.75933, Final residual = 8.89953e-07, No Iterations 667
time step continuity errors : sum local = 1.0406e-09, global = 6.39112e-21, cumulative = 1.01622e-20
ExecutionTime = 33.77 s  ClockTime = 20 s

Time = 0.00266667

Courant Number mean: 0.0631768 max: 0.775391
[OGL LOG] init_host_sparsity_pattern : 112 ms
[OGL LOG] matrix not stored update host matrix
[OGL LOG] update_host_mtx : 57 ms
[OGL LOG] matrix is not yet sorted, sorting host matrix
[OGL LOG] sort_host_mtx_sparsity_pattern : 87 ms
[OGL LOG] sort_host_mtx : 44 ms
[OGL LOG] init_preconditioner : 0 ms
[OGL LOG] solve : 927 ms
noneompGKOBiCGStab:  Solving for Ux, Initial residual = 0.18303, Final residual = 4.42479e-07, No Iterations 48
[OGL LOG] init_host_sparsity_pattern : 122 ms
[OGL LOG] matrix not stored update host matrix
[OGL LOG] update_host_mtx : 67 ms
[OGL LOG] matrix is not yet sorted, sorting host matrix
[OGL LOG] sort_host_mtx_sparsity_pattern : 79 ms
[OGL LOG] sort_host_mtx : 43 ms
[OGL LOG] init_preconditioner : 0 ms
[OGL LOG] solve : 883 ms
noneompGKOBiCGStab:  Solving for Uy, Initial residual = 0.619628, Final residual = 6.28684e-07, No Iterations 48
[OGL LOG] init_host_sparsity_pattern : 114 ms
[OGL LOG] matrix not stored update host matrix
[OGL LOG] update_host_mtx : 54 ms
[OGL LOG] matrix is not yet sorted, sorting host matrix
[OGL LOG] sort_host_mtx_sparsity_pattern : 74 ms
[OGL LOG] sort_host_mtx : 44 ms
[OGL LOG] init_preconditioner : 0 ms
[OGL LOG] solve : 788 ms
noneompGKOBiCGStab:  Solving for Uz, Initial residual = 0.604725, Final residual = 7.45802e-07, No Iterations 44
[OGL LOG] init_preconditioner : 0 ms
[OGL LOG] solve : 5859 ms
noneompGKOCG:  Solving for p, Initial residual = 0.749121, Final residual = 9.99821e-07, No Iterations 644
time step continuity errors : sum local = 1.89611e-09, global = 2.05098e-20, cumulative = 3.06719e-20
[OGL LOG] init_preconditioner : 0 ms
[OGL LOG] solve : 5940 ms
noneompGKOCG:  Solving for p, Initial residual = 0.683903, Final residual = 9.65168e-07, No Iterations 643
time step continuity errors : sum local = 1.41448e-09, global = 3.98662e-21, cumulative = 3.46586e-20
ExecutionTime = 63.97 s  ClockTime = 36 s

Time = 0.004

Courant Number mean: 0.0951461 max: 0.917122
[OGL LOG] init_host_sparsity_pattern : 112 ms
[OGL LOG] matrix not stored update host matrix
[OGL LOG] update_host_mtx : 58 ms
[OGL LOG] matrix is not yet sorted, sorting host matrix
[OGL LOG] sort_host_mtx_sparsity_pattern : 82 ms
[OGL LOG] sort_host_mtx : 44 ms
[OGL LOG] init_preconditioner : 0 ms
[OGL LOG] solve : 767 ms
noneompGKOBiCGStab:  Solving for Ux, Initial residual = 0.101942, Final residual = 7.85076e-07, No Iterations 42
[OGL LOG] init_host_sparsity_pattern : 112 ms
[OGL LOG] matrix not stored update host matrix
[OGL LOG] update_host_mtx : 53 ms
[OGL LOG] matrix is not yet sorted, sorting host matrix
[OGL LOG] sort_host_mtx_sparsity_pattern : 73 ms
[OGL LOG] sort_host_mtx : 43 ms
[OGL LOG] init_preconditioner : 0 ms
[OGL LOG] solve : 750 ms
noneompGKOBiCGStab:  Solving for Uy, Initial residual = 0.335432, Final residual = 8.80466e-07, No Iterations 41
[OGL LOG] init_host_sparsity_pattern : 112 ms
[OGL LOG] matrix not stored update host matrix
[OGL LOG] update_host_mtx : 54 ms
[OGL LOG] matrix is not yet sorted, sorting host matrix
[OGL LOG] sort_host_mtx_sparsity_pattern : 73 ms
[OGL LOG] sort_host_mtx : 43 ms
[OGL LOG] init_preconditioner : 0 ms
[OGL LOG] solve : 878 ms
noneompGKOBiCGStab:  Solving for Uz, Initial residual = 0.92071, Final residual = 8.0228e-07, No Iterations 48
[OGL LOG] init_preconditioner : 0 ms
[OGL LOG] solve : 6136 ms
noneompGKOCG:  Solving for p, Initial residual = 0.754749, Final residual = 9.7581e-07, No Iterations 663
time step continuity errors : sum local = 1.45465e-09, global = -3.67053e-21, cumulative = 3.0988e-20
[OGL LOG] init_preconditioner : 0 ms
[OGL LOG] solve : 6080 ms
noneompGKOCG:  Solving for p, Initial residual = 0.717012, Final residual = 9.94658e-07, No Iterations 661
time step continuity errors : sum local = 1.1541e-09, global = 5.00991e-21, cumulative = 3.5998e-20
ExecutionTime = 94.61 s  ClockTime = 52 s

Time = 0.00533333

Courant Number mean: 0.109256 max: 0.91346
[OGL LOG] init_host_sparsity_pattern : 112 ms
[OGL LOG] matrix not stored update host matrix
[OGL LOG] update_host_mtx : 57 ms
[OGL LOG] matrix is not yet sorted, sorting host matrix
[OGL LOG] sort_host_mtx_sparsity_pattern : 83 ms
[OGL LOG] sort_host_mtx : 43 ms
[OGL LOG] init_preconditioner : 0 ms
[OGL LOG] solve : 706 ms
noneompGKOBiCGStab:  Solving for Ux, Initial residual = 0.0446959, Final residual = 9.63121e-07, No Iterations 38
[OGL LOG] init_host_sparsity_pattern : 111 ms
[OGL LOG] matrix not stored update host matrix
[OGL LOG] update_host_mtx : 53 ms
[OGL LOG] matrix is not yet sorted, sorting host matrix
[OGL LOG] sort_host_mtx_sparsity_pattern : 72 ms
[OGL LOG] sort_host_mtx : 43 ms
[OGL LOG] init_preconditioner : 0 ms
[OGL LOG] solve : 779 ms
noneompGKOBiCGStab:  Solving for Uy, Initial residual = 0.197564, Final residual = 9.65036e-07, No Iterations 42
[OGL LOG] init_host_sparsity_pattern : 111 ms
[OGL LOG] matrix not stored update host matrix
[OGL LOG] update_host_mtx : 53 ms
[OGL LOG] matrix is not yet sorted, sorting host matrix
[OGL LOG] sort_host_mtx_sparsity_pattern : 73 ms
[OGL LOG] sort_host_mtx : 43 ms
[OGL LOG] init_preconditioner : 0 ms
[OGL LOG] solve : 817 ms
noneompGKOBiCGStab:  Solving for Uz, Initial residual = 0.732459, Final residual = 8.57165e-07, No Iterations 44
[OGL LOG] init_preconditioner : 0 ms
[OGL LOG] solve : 6141 ms
noneompGKOCG:  Solving for p, Initial residual = 0.61735, Final residual = 9.80977e-07, No Iterations 661
time step continuity errors : sum local = 1.16674e-09, global = -4.51128e-21, cumulative = 3.14867e-20
[OGL LOG] init_preconditioner : 0 ms
[OGL LOG] solve : 6472 ms
noneompGKOCG:  Solving for p, Initial residual = 0.554744, Final residual = 9.87043e-07, No Iterations 659
time step continuity errors : sum local = 1.05909e-09, global = 1.82747e-20, cumulative = 4.97613e-20
ExecutionTime = 125.71 s  ClockTime = 68 s

Time = 0.00666667

Courant Number mean: 0.122085 max: 0.929107
[OGL LOG] init_host_sparsity_pattern : 111 ms
[OGL LOG] matrix not stored update host matrix
[OGL LOG] update_host_mtx : 56 ms
[OGL LOG] matrix is not yet sorted, sorting host matrix
[OGL LOG] sort_host_mtx_sparsity_pattern : 79 ms
[OGL LOG] sort_host_mtx : 43 ms
[OGL LOG] init_preconditioner : 0 ms
[OGL LOG] solve : 690 ms
noneompGKOBiCGStab:  Solving for Ux, Initial residual = 0.0319068, Final residual = 8.36884e-07, No Iterations 39
[OGL LOG] init_host_sparsity_pattern : 112 ms
[OGL LOG] matrix not stored update host matrix
[OGL LOG] update_host_mtx : 53 ms
[OGL LOG] matrix is not yet sorted, sorting host matrix
[OGL LOG] sort_host_mtx_sparsity_pattern : 73 ms
[OGL LOG] sort_host_mtx : 43 ms
[OGL LOG] init_preconditioner : 0 ms
[OGL LOG] solve : 723 ms
noneompGKOBiCGStab:  Solving for Uy, Initial residual = 0.0804626, Final residual = 8.40579e-07, No Iterations 39
[OGL LOG] init_host_sparsity_pattern : 112 ms
[OGL LOG] matrix not stored update host matrix
[OGL LOG] update_host_mtx : 53 ms
[OGL LOG] matrix is not yet sorted, sorting host matrix
[OGL LOG] sort_host_mtx_sparsity_pattern : 73 ms
[OGL LOG] sort_host_mtx : 43 ms
[OGL LOG] init_preconditioner : 0 ms
[OGL LOG] solve : 861 ms
noneompGKOBiCGStab:  Solving for Uz, Initial residual = 0.513465, Final residual = 9.61625e-07, No Iterations 46
[OGL LOG] init_preconditioner : 0 ms
[OGL LOG] solve : 6187 ms
noneompGKOCG:  Solving for p, Initial residual = 0.591987, Final residual = 9.75173e-07, No Iterations 666
time step continuity errors : sum local = 9.16126e-10, global = 2.43709e-21, cumulative = 5.21984e-20
[OGL LOG] init_preconditioner : 0 ms
[OGL LOG] solve : 6397 ms
noneompGKOCG:  Solving for p, Initial residual = 0.54311, Final residual = 9.03251e-07, No Iterations 666
time step continuity errors : sum local = 7.70138e-10, global = -1.70038e-20, cumulative = 3.51946e-20
ExecutionTime = 156.66 s  ClockTime = 85 s

End

