/*---------------------------------------------------------------------------*\
  =========                 |
  \\      /  F ield         | OpenFOAM: The Open Source CFD Toolbox
   \\    /   O peration     | Website:  https://openfoam.org
    \\  /    A nd           | Version:  8
     \\/     M anipulation  |
\*---------------------------------------------------------------------------*/
Build  : 8-13d66902f78c
Exec   : icoFoam
Date   : Jul 14 2021
Time   : 01:33:34
Host   : "uc2n538.localdomain"
PID    : 2766792
I/O    : uncollated
Case   : /pfs/data5/home/kit/scc/nq7776/code/OGL_DATA/lidDrivenCavity3D/v0.1-136-g40fef35/f584ccac99/IntelXeonGold6230CPU@2.10GHz/Test_2021-07-14-01:26:15/100/p-CG-OF-none-reference/lidDrivenCavity3D
nProcs : 1
sigFpe : Enabling floating point exception trapping (FOAM_SIGFPE).
fileModificationChecking : Monitoring run-time modified files using timeStampMaster (fileModificationSkew 10)
allowSystemOperations : Allowing user-supplied system call operations

// * * * * * * * * * * * * * * * * * * * * * * * * * * * * * * * * * * * * * //
Create time

Create mesh for time = 0

Reading transportProperties

Reading field p

Reading field U

Reading/calculating face flux field phi


Starting time loop

Time = 0.001

Courant Number mean: 0 max: 0
nonePBiCGStab:  Solving for Ux, Initial residual = 1, Final residual = 0.0818707, No Iterations 5
nonePBiCGStab:  Solving for Uy, Initial residual = 0, Final residual = 0, No Iterations 0
nonePBiCGStab:  Solving for Uz, Initial residual = 0, Final residual = 0, No Iterations 0
nonePCG:  Solving for p, Initial residual = 1, Final residual = 9.68415e-07, No Iterations 898
time step continuity errors : sum local = 3.66768e-10, global = -3.2479e-21, cumulative = -3.2479e-21
nonePCG:  Solving for p, Initial residual = 0.707485, Final residual = 9.30215e-07, No Iterations 892
time step continuity errors : sum local = 4.87952e-10, global = -2.84793e-21, cumulative = -6.09583e-21
ExecutionTime = 28.04 s  ClockTime = 28 s

Time = 0.002

Courant Number mean: 0.0422155 max: 0.791725
nonePBiCGStab:  Solving for Ux, Initial residual = 0.137867, Final residual = 0.0400077, No Iterations 5
nonePBiCGStab:  Solving for Uy, Initial residual = 0.451746, Final residual = 0.130142, No Iterations 5
nonePBiCGStab:  Solving for Uz, Initial residual = 0.987526, Final residual = 0.323465, No Iterations 5
nonePCG:  Solving for p, Initial residual = 0.789699, Final residual = 9.89389e-07, No Iterations 866
time step continuity errors : sum local = 9.01626e-10, global = 1.74416e-22, cumulative = -5.92142e-21
nonePCG:  Solving for p, Initial residual = 0.713525, Final residual = 9.83952e-07, No Iterations 862
time step continuity errors : sum local = 9.14045e-10, global = -9.51549e-21, cumulative = -1.54369e-20
ExecutionTime = 52.07 s  ClockTime = 53 s

Time = 0.003

Courant Number mean: 0.0674676 max: 0.89998
nonePBiCGStab:  Solving for Ux, Initial residual = 0.0610629, Final residual = 0.0153012, No Iterations 5
nonePBiCGStab:  Solving for Uy, Initial residual = 0.208727, Final residual = 0.0593993, No Iterations 5
nonePBiCGStab:  Solving for Uz, Initial residual = 0.712493, Final residual = 0.213731, No Iterations 5
nonePCG:  Solving for p, Initial residual = 0.797066, Final residual = 9.80893e-07, No Iterations 876
time step continuity errors : sum local = 7.10667e-10, global = 8.60044e-21, cumulative = -6.83646e-21
nonePCG:  Solving for p, Initial residual = 0.724869, Final residual = 9.90981e-07, No Iterations 874
time step continuity errors : sum local = 7.00295e-10, global = -3.09737e-21, cumulative = -9.93384e-21
ExecutionTime = 76.36 s  ClockTime = 77 s

Time = 0.004

Courant Number mean: 0.0814739 max: 0.91289
nonePBiCGStab:  Solving for Ux, Initial residual = 0.0387865, Final residual = 0.0107239, No Iterations 5
nonePBiCGStab:  Solving for Uy, Initial residual = 0.148965, Final residual = 0.0502054, No Iterations 5
nonePBiCGStab:  Solving for Uz, Initial residual = 0.492871, Final residual = 0.135099, No Iterations 5
nonePCG:  Solving for p, Initial residual = 0.719472, Final residual = 9.54067e-07, No Iterations 861
time step continuity errors : sum local = 7.09819e-10, global = 2.81784e-21, cumulative = -7.116e-21
nonePCG:  Solving for p, Initial residual = 0.61984, Final residual = 9.76704e-07, No Iterations 858
time step continuity errors : sum local = 7.43371e-10, global = -5.85059e-21, cumulative = -1.29666e-20
ExecutionTime = 100.32 s  ClockTime = 101 s

Time = 0.005

Courant Number mean: 0.092279 max: 0.925557
nonePBiCGStab:  Solving for Ux, Initial residual = 0.0298127, Final residual = 0.00896084, No Iterations 5
nonePBiCGStab:  Solving for Uy, Initial residual = 0.0986419, Final residual = 0.0358093, No Iterations 5
nonePBiCGStab:  Solving for Uz, Initial residual = 0.30483, Final residual = 0.0787283, No Iterations 5
nonePCG:  Solving for p, Initial residual = 0.757141, Final residual = 9.6322e-07, No Iterations 856
time step continuity errors : sum local = 6.58038e-10, global = -5.85315e-21, cumulative = -1.88197e-20
nonePCG:  Solving for p, Initial residual = 0.670842, Final residual = 9.59629e-07, No Iterations 854
time step continuity errors : sum local = 6.47895e-10, global = 5.68002e-21, cumulative = -1.31397e-20
ExecutionTime = 124.17 s  ClockTime = 125 s

End

