/*---------------------------------------------------------------------------*\
  =========                 |
  \\      /  F ield         | OpenFOAM: The Open Source CFD Toolbox
   \\    /   O peration     | Website:  https://openfoam.org
    \\  /    A nd           | Version:  8
     \\/     M anipulation  |
\*---------------------------------------------------------------------------*/
Build  : 8-13d66902f78c
Exec   : icoFoam
Date   : Jul 12 2021
Time   : 15:52:03
Host   : "uc2n431.localdomain"
PID    : 124162
I/O    : uncollated
Case   : /pfs/data5/home/kit/scc/nq7776/code/OGL_DATA/lidDrivenCavity3D/v0.1-136-g40fef35/f584ccac99/IntelXeonGold6230CPU@2.10GHz/Test_2021-07-12-15:49:01/75/p-BiCGStab-OF-DIC-reference/lidDrivenCavity3D
nProcs : 1
sigFpe : Enabling floating point exception trapping (FOAM_SIGFPE).
fileModificationChecking : Monitoring run-time modified files using timeStampMaster (fileModificationSkew 10)
allowSystemOperations : Allowing user-supplied system call operations

// * * * * * * * * * * * * * * * * * * * * * * * * * * * * * * * * * * * * * //
Create time

Create mesh for time = 0

Reading transportProperties

Reading field p

Reading field U

Reading/calculating face flux field phi


Starting time loop

Time = 0.00133333

Courant Number mean: 0 max: 0
nonePBiCGStab:  Solving for Ux, Initial residual = 1, Final residual = 0.0730231, No Iterations 5
nonePBiCGStab:  Solving for Uy, Initial residual = 0, Final residual = 0, No Iterations 0
nonePBiCGStab:  Solving for Uz, Initial residual = 0, Final residual = 0, No Iterations 0
DICPBiCGStab:  Solving for p, Initial residual = 1, Final residual = 9.42806e-07, No Iterations 154
time step continuity errors : sum local = 1.00765e-09, global = 1.25737e-20, cumulative = 1.25737e-20
DICPBiCGStab:  Solving for p, Initial residual = 0.697108, Final residual = 6.56611e-07, No Iterations 144
time step continuity errors : sum local = 8.18503e-10, global = -9.11146e-21, cumulative = 3.46223e-21
ExecutionTime = 7.82 s  ClockTime = 7 s

Time = 0.00266667

Courant Number mean: 0.0508075 max: 0.767232
nonePBiCGStab:  Solving for Ux, Initial residual = 0.140592, Final residual = 0.0324527, No Iterations 5
nonePBiCGStab:  Solving for Uy, Initial residual = 0.413642, Final residual = 0.0923279, No Iterations 5
nonePBiCGStab:  Solving for Uz, Initial residual = 0.98321, Final residual = 0.249882, No Iterations 5
DICPBiCGStab:  Solving for p, Initial residual = 0.746898, Final residual = 8.55532e-07, No Iterations 147
time step continuity errors : sum local = 2.28125e-09, global = 1.80985e-20, cumulative = 2.15607e-20
DICPBiCGStab:  Solving for p, Initial residual = 0.668132, Final residual = 3.77892e-07, No Iterations 150
time step continuity errors : sum local = 8.16394e-10, global = 1.24146e-21, cumulative = 2.28022e-20
ExecutionTime = 14.09 s  ClockTime = 14 s

Time = 0.004

Courant Number mean: 0.0796134 max: 0.886021
nonePBiCGStab:  Solving for Ux, Initial residual = 0.0584528, Final residual = 0.0111498, No Iterations 5
nonePBiCGStab:  Solving for Uy, Initial residual = 0.171946, Final residual = 0.0398741, No Iterations 5
nonePBiCGStab:  Solving for Uz, Initial residual = 0.611143, Final residual = 0.142394, No Iterations 5
DICPBiCGStab:  Solving for p, Initial residual = 0.730363, Final residual = 9.71891e-07, No Iterations 153
time step continuity errors : sum local = 1.38289e-09, global = -4.81273e-23, cumulative = 2.2754e-20
DICPBiCGStab:  Solving for p, Initial residual = 0.660893, Final residual = 9.11379e-07, No Iterations 146
time step continuity errors : sum local = 1.27606e-09, global = -1.37215e-20, cumulative = 9.03258e-21
ExecutionTime = 20.45 s  ClockTime = 20 s

Time = 0.00533333

Courant Number mean: 0.0948106 max: 0.902547
nonePBiCGStab:  Solving for Ux, Initial residual = 0.0345945, Final residual = 0.0068286, No Iterations 5
nonePBiCGStab:  Solving for Uy, Initial residual = 0.119552, Final residual = 0.0298211, No Iterations 5
nonePBiCGStab:  Solving for Uz, Initial residual = 0.386511, Final residual = 0.0807449, No Iterations 5
DICPBiCGStab:  Solving for p, Initial residual = 0.609804, Final residual = 8.21962e-07, No Iterations 152
time step continuity errors : sum local = 1.10456e-09, global = 1.04743e-20, cumulative = 1.95069e-20
DICPBiCGStab:  Solving for p, Initial residual = 0.521102, Final residual = 9.56988e-07, No Iterations 149
time step continuity errors : sum local = 1.4707e-09, global = -1.21185e-20, cumulative = 7.38841e-21
ExecutionTime = 26.82 s  ClockTime = 26 s

Time = 0.00666667

Courant Number mean: 0.107177 max: 0.916756
nonePBiCGStab:  Solving for Ux, Initial residual = 0.0257348, Final residual = 0.00503194, No Iterations 5
nonePBiCGStab:  Solving for Uy, Initial residual = 0.0750431, Final residual = 0.0208188, No Iterations 5
nonePBiCGStab:  Solving for Uz, Initial residual = 0.213042, Final residual = 0.0496442, No Iterations 5
DICPBiCGStab:  Solving for p, Initial residual = 0.629329, Final residual = 2.09828e-07, No Iterations 162
time step continuity errors : sum local = 3.55145e-10, global = 5.37925e-21, cumulative = 1.27677e-20
DICPBiCGStab:  Solving for p, Initial residual = 0.552156, Final residual = 8.09357e-07, No Iterations 152
time step continuity errors : sum local = 1.03241e-09, global = -1.46909e-21, cumulative = 1.12986e-20
ExecutionTime = 33.52 s  ClockTime = 33 s

End

