/*---------------------------------------------------------------------------*\
  =========                 |
  \\      /  F ield         | OpenFOAM: The Open Source CFD Toolbox
   \\    /   O peration     | Website:  https://openfoam.org
    \\  /    A nd           | Version:  8
     \\/     M anipulation  |
\*---------------------------------------------------------------------------*/
Build  : 8-13d66902f78c
Exec   : icoFoam
Date   : Jul 12 2021
Time   : 13:47:42
Host   : "uc2n402.localdomain"
PID    : 3437927
I/O    : uncollated
Case   : /pfs/data5/home/kit/scc/nq7776/code/OGL_DATA/lidDrivenCavity3D/v0.1-136-g40fef35/f584ccac99/IntelXeonGold6230CPU@2.10GHz/Test_2021-07-12-12:43:44/100/p-U-CG-GKO-none-omp/lidDrivenCavity3D
nProcs : 1
sigFpe : Enabling floating point exception trapping (FOAM_SIGFPE).
fileModificationChecking : Monitoring run-time modified files using timeStampMaster (fileModificationSkew 10)
allowSystemOperations : Allowing user-supplied system call operations

// * * * * * * * * * * * * * * * * * * * * * * * * * * * * * * * * * * * * * //
Create time

Create mesh for time = 0

Reading transportProperties

Reading field p

Reading field U

Reading/calculating face flux field phi


Starting time loop

Time = 0.001

Courant Number mean: 0 max: 0
[OGL LOG] init_host_sparsity_pattern : 291 ms
[OGL LOG] matrix not stored update host matrix
[OGL LOG] update_host_mtx : 145 ms
[OGL LOG] matrix is not yet sorted, compute sorting idxs
[OGL LOG] compute_sort : 9094 ms
[OGL LOG] matrix is not yet sorted, sorting host matrix
[OGL LOG] sort_host_mtx_sparsity_pattern : 194 ms
[OGL LOG] sort_host_mtx : 124 ms
[OGL LOG] init_preconditioner : 0 ms
[OGL LOG] solve : 3761 ms
noneompGKOBiCGStab:  Solving for Ux, Initial residual = 1, Final residual = 9.90061e-07, No Iterations 57
[OGL LOG] init_host_sparsity_pattern : 279 ms
[OGL LOG] matrix not stored update host matrix
[OGL LOG] update_host_mtx : 145 ms
[OGL LOG] matrix is not yet sorted, sorting host matrix
[OGL LOG] sort_host_mtx_sparsity_pattern : 203 ms
[OGL LOG] sort_host_mtx : 125 ms
[OGL LOG] init_preconditioner : 0 ms
[OGL LOG] solve : 100 ms
noneompGKOBiCGStab:  Solving for Uy, Initial residual = 0, Final residual = 0, No Iterations 0
[OGL LOG] init_host_sparsity_pattern : 269 ms
[OGL LOG] matrix not stored update host matrix
[OGL LOG] update_host_mtx : 145 ms
[OGL LOG] matrix is not yet sorted, sorting host matrix
[OGL LOG] sort_host_mtx_sparsity_pattern : 202 ms
[OGL LOG] sort_host_mtx : 125 ms
[OGL LOG] init_preconditioner : 0 ms
[OGL LOG] solve : 92 ms
noneompGKOBiCGStab:  Solving for Uz, Initial residual = 0, Final residual = 0, No Iterations 0
[OGL LOG] init_host_sparsity_pattern : 286 ms
[OGL LOG] matrix not stored update host matrix
[OGL LOG] update_host_mtx : 147 ms
[OGL LOG] matrix is not yet sorted, sorting host matrix
[OGL LOG] sort_host_mtx_sparsity_pattern : 192 ms
[OGL LOG] sort_host_mtx : 125 ms
[OGL LOG] init_preconditioner : 0 ms
[OGL LOG] solve : 28895 ms
noneompGKOCG:  Solving for p, Initial residual = 1, Final residual = 9.83258e-07, No Iterations 900
time step continuity errors : sum local = 5.89513e-10, global = -5.66913e-21, cumulative = -5.66913e-21
[OGL LOG] init_preconditioner : 0 ms
[OGL LOG] solve : 28688 ms
noneompGKOCG:  Solving for p, Initial residual = 0.783585, Final residual = 9.54407e-07, No Iterations 893
time step continuity errors : sum local = 7.15381e-10, global = -8.87891e-22, cumulative = -6.55702e-21
ExecutionTime = 78.32 s  ClockTime = 79 s

Time = 0.002

Courant Number mean: 0.0571435 max: 0.804774
[OGL LOG] init_host_sparsity_pattern : 269 ms
[OGL LOG] matrix not stored update host matrix
[OGL LOG] update_host_mtx : 127 ms
[OGL LOG] matrix is not yet sorted, sorting host matrix
[OGL LOG] sort_host_mtx_sparsity_pattern : 204 ms
[OGL LOG] sort_host_mtx : 128 ms
[OGL LOG] init_preconditioner : 0 ms
[OGL LOG] solve : 3531 ms
noneompGKOBiCGStab:  Solving for Ux, Initial residual = 0.169075, Final residual = 9.5655e-07, No Iterations 54
[OGL LOG] init_host_sparsity_pattern : 269 ms
[OGL LOG] matrix not stored update host matrix
[OGL LOG] update_host_mtx : 126 ms
[OGL LOG] matrix is not yet sorted, sorting host matrix
[OGL LOG] sort_host_mtx_sparsity_pattern : 203 ms
[OGL LOG] sort_host_mtx : 125 ms
[OGL LOG] init_preconditioner : 0 ms
[OGL LOG] solve : 3497 ms
noneompGKOBiCGStab:  Solving for Uy, Initial residual = 0.620181, Final residual = 9.76257e-07, No Iterations 53
[OGL LOG] init_host_sparsity_pattern : 270 ms
[OGL LOG] matrix not stored update host matrix
[OGL LOG] update_host_mtx : 127 ms
[OGL LOG] matrix is not yet sorted, sorting host matrix
[OGL LOG] sort_host_mtx_sparsity_pattern : 203 ms
[OGL LOG] sort_host_mtx : 125 ms
[OGL LOG] init_preconditioner : 0 ms
[OGL LOG] solve : 3768 ms
noneompGKOBiCGStab:  Solving for Uz, Initial residual = 0.646977, Final residual = 8.41616e-07, No Iterations 57
[OGL LOG] init_preconditioner : 0 ms
[OGL LOG] solve : 28334 ms
noneompGKOCG:  Solving for p, Initial residual = 0.798453, Final residual = 9.83239e-07, No Iterations 884
time step continuity errors : sum local = 9.9986e-10, global = -6.86668e-22, cumulative = -7.24369e-21
[OGL LOG] init_preconditioner : 0 ms
[OGL LOG] solve : 27763 ms
noneompGKOCG:  Solving for p, Initial residual = 0.738607, Final residual = 9.64029e-07, No Iterations 872
time step continuity errors : sum local = 1.00142e-09, global = 9.56589e-21, cumulative = 2.3222e-21
ExecutionTime = 148.63 s  ClockTime = 149 s

Time = 0.003

Courant Number mean: 0.0867389 max: 0.944826
[OGL LOG] init_host_sparsity_pattern : 276 ms
[OGL LOG] matrix not stored update host matrix
[OGL LOG] update_host_mtx : 157 ms
[OGL LOG] matrix is not yet sorted, sorting host matrix
[OGL LOG] sort_host_mtx_sparsity_pattern : 220 ms
[OGL LOG] sort_host_mtx : 123 ms
[OGL LOG] init_preconditioner : 0 ms
[OGL LOG] solve : 3127 ms
noneompGKOBiCGStab:  Solving for Ux, Initial residual = 0.102637, Final residual = 5.15924e-07, No Iterations 48
[OGL LOG] init_host_sparsity_pattern : 269 ms
[OGL LOG] matrix not stored update host matrix
[OGL LOG] update_host_mtx : 128 ms
[OGL LOG] matrix is not yet sorted, sorting host matrix
[OGL LOG] sort_host_mtx_sparsity_pattern : 201 ms
[OGL LOG] sort_host_mtx : 123 ms
[OGL LOG] init_preconditioner : 0 ms
[OGL LOG] solve : 3749 ms
noneompGKOBiCGStab:  Solving for Uy, Initial residual = 0.396947, Final residual = 5.14964e-07, No Iterations 57
[OGL LOG] init_host_sparsity_pattern : 269 ms
[OGL LOG] matrix not stored update host matrix
[OGL LOG] update_host_mtx : 128 ms
[OGL LOG] matrix is not yet sorted, sorting host matrix
[OGL LOG] sort_host_mtx_sparsity_pattern : 201 ms
[OGL LOG] sort_host_mtx : 123 ms
[OGL LOG] init_preconditioner : 0 ms
[OGL LOG] solve : 3277 ms
noneompGKOBiCGStab:  Solving for Uz, Initial residual = 1.00088, Final residual = 7.8594e-07, No Iterations 50
[OGL LOG] init_preconditioner : 0 ms
[OGL LOG] solve : 28297 ms
noneompGKOCG:  Solving for p, Initial residual = 0.832647, Final residual = 9.53781e-07, No Iterations 890
time step continuity errors : sum local = 9.18794e-10, global = 1.39179e-21, cumulative = 3.71399e-21
[OGL LOG] init_preconditioner : 0 ms
[OGL LOG] solve : 28263 ms
noneompGKOCG:  Solving for p, Initial residual = 0.802905, Final residual = 9.92923e-07, No Iterations 888
time step continuity errors : sum local = 9.32585e-10, global = -1.97169e-21, cumulative = 1.7423e-21
ExecutionTime = 218.56 s  ClockTime = 219 s

Time = 0.004

Courant Number mean: 0.0995265 max: 0.926351
[OGL LOG] init_host_sparsity_pattern : 269 ms
[OGL LOG] matrix not stored update host matrix
[OGL LOG] update_host_mtx : 129 ms
[OGL LOG] matrix is not yet sorted, sorting host matrix
[OGL LOG] sort_host_mtx_sparsity_pattern : 205 ms
[OGL LOG] sort_host_mtx : 124 ms
[OGL LOG] init_preconditioner : 0 ms
[OGL LOG] solve : 3036 ms
noneompGKOBiCGStab:  Solving for Ux, Initial residual = 0.0541608, Final residual = 8.10306e-07, No Iterations 46
[OGL LOG] init_host_sparsity_pattern : 269 ms
[OGL LOG] matrix not stored update host matrix
[OGL LOG] update_host_mtx : 127 ms
[OGL LOG] matrix is not yet sorted, sorting host matrix
[OGL LOG] sort_host_mtx_sparsity_pattern : 202 ms
[OGL LOG] sort_host_mtx : 124 ms
[OGL LOG] init_preconditioner : 0 ms
[OGL LOG] solve : 3035 ms
noneompGKOBiCGStab:  Solving for Uy, Initial residual = 0.255021, Final residual = 7.02676e-07, No Iterations 46
[OGL LOG] init_host_sparsity_pattern : 269 ms
[OGL LOG] matrix not stored update host matrix
[OGL LOG] update_host_mtx : 128 ms
[OGL LOG] matrix is not yet sorted, sorting host matrix
[OGL LOG] sort_host_mtx_sparsity_pattern : 202 ms
[OGL LOG] sort_host_mtx : 124 ms
[OGL LOG] init_preconditioner : 0 ms
[OGL LOG] solve : 3323 ms
noneompGKOBiCGStab:  Solving for Uz, Initial residual = 0.873047, Final residual = 6.47482e-07, No Iterations 51
[OGL LOG] init_preconditioner : 0 ms
[OGL LOG] solve : 28341 ms
noneompGKOCG:  Solving for p, Initial residual = 0.750172, Final residual = 9.62362e-07, No Iterations 889
time step continuity errors : sum local = 8.56376e-10, global = -1.49227e-20, cumulative = -1.31804e-20
[OGL LOG] init_preconditioner : 0 ms
[OGL LOG] solve : 28261 ms
noneompGKOCG:  Solving for p, Initial residual = 0.68532, Final residual = 9.62256e-07, No Iterations 887
time step continuity errors : sum local = 8.7248e-10, global = -5.11884e-21, cumulative = -1.82992e-20
ExecutionTime = 287.65 s  ClockTime = 289 s

Time = 0.005

Courant Number mean: 0.112162 max: 0.946349
[OGL LOG] init_host_sparsity_pattern : 269 ms
[OGL LOG] matrix not stored update host matrix
[OGL LOG] update_host_mtx : 126 ms
[OGL LOG] matrix is not yet sorted, sorting host matrix
[OGL LOG] sort_host_mtx_sparsity_pattern : 202 ms
[OGL LOG] sort_host_mtx : 124 ms
[OGL LOG] init_preconditioner : 0 ms
[OGL LOG] solve : 2941 ms
noneompGKOBiCGStab:  Solving for Ux, Initial residual = 0.0411816, Final residual = 8.90701e-07, No Iterations 45
[OGL LOG] init_host_sparsity_pattern : 269 ms
[OGL LOG] matrix not stored update host matrix
[OGL LOG] update_host_mtx : 127 ms
[OGL LOG] matrix is not yet sorted, sorting host matrix
[OGL LOG] sort_host_mtx_sparsity_pattern : 202 ms
[OGL LOG] sort_host_mtx : 124 ms
[OGL LOG] init_preconditioner : 0 ms
[OGL LOG] solve : 2914 ms
noneompGKOBiCGStab:  Solving for Uy, Initial residual = 0.131865, Final residual = 8.47289e-07, No Iterations 44
[OGL LOG] init_host_sparsity_pattern : 269 ms
[OGL LOG] matrix not stored update host matrix
[OGL LOG] update_host_mtx : 127 ms
[OGL LOG] matrix is not yet sorted, sorting host matrix
[OGL LOG] sort_host_mtx_sparsity_pattern : 202 ms
[OGL LOG] sort_host_mtx : 124 ms
[OGL LOG] init_preconditioner : 0 ms
[OGL LOG] solve : 3259 ms
noneompGKOBiCGStab:  Solving for Uz, Initial residual = 0.871873, Final residual = 9.46917e-07, No Iterations 50
[OGL LOG] init_preconditioner : 0 ms
[OGL LOG] solve : 28571 ms
noneompGKOCG:  Solving for p, Initial residual = 0.760004, Final residual = 9.52707e-07, No Iterations 896
time step continuity errors : sum local = 7.20361e-10, global = 1.80282e-20, cumulative = -2.71032e-22
[OGL LOG] init_preconditioner : 0 ms
[OGL LOG] solve : 28463 ms
noneompGKOCG:  Solving for p, Initial residual = 0.713349, Final residual = 9.83372e-07, No Iterations 894
time step continuity errors : sum local = 7.3168e-10, global = -2.78104e-21, cumulative = -3.05207e-21
ExecutionTime = 356.88 s  ClockTime = 358 s

End

