/*---------------------------------------------------------------------------*\
  =========                 |
  \\      /  F ield         | OpenFOAM: The Open Source CFD Toolbox
   \\    /   O peration     | Website:  https://openfoam.org
    \\  /    A nd           | Version:  8
     \\/     M anipulation  |
\*---------------------------------------------------------------------------*/
Build  : 8-13d66902f78c
Exec   : icoFoam
Date   : Jul 14 2021
Time   : 01:49:29
Host   : "uc2n398.localdomain"
PID    : 542992
I/O    : uncollated
Case   : /pfs/data5/home/kit/scc/nq7776/code/OGL_DATA/lidDrivenCavity3D/v0.1-136-g40fef35/f584ccac99/IntelXeonGold6230CPU@2.10GHz/Test_2021-07-14-01:40:40/50/p-U-BiCGStab-GKO-BJ-omp/lidDrivenCavity3D
nProcs : 1
sigFpe : Enabling floating point exception trapping (FOAM_SIGFPE).
fileModificationChecking : Monitoring run-time modified files using timeStampMaster (fileModificationSkew 10)
allowSystemOperations : Allowing user-supplied system call operations

// * * * * * * * * * * * * * * * * * * * * * * * * * * * * * * * * * * * * * //
Create time

Create mesh for time = 0

Reading transportProperties

Reading field p

Reading field U

Reading/calculating face flux field phi


Starting time loop

Time = 0.002

Courant Number mean: 0 max: 0
[OGL LOG] init_host_sparsity_pattern : 35 ms
[OGL LOG] matrix not stored update host matrix
[OGL LOG] update_host_mtx : 18 ms
[OGL LOG] matrix is not yet sorted, compute sorting idxs
[OGL LOG] compute_sort : 908 ms
[OGL LOG] matrix is not yet sorted, sorting host matrix
[OGL LOG] sort_host_mtx_sparsity_pattern : 23 ms
[OGL LOG] sort_host_mtx : 15 ms
[OGL LOG] init_preconditioner : 34 ms
[OGL LOG] solve : 873 ms
BJompGKOBiCGStab:  Solving for Ux, Initial residual = 1, Final residual = 3.61163e-07, No Iterations 40
[OGL LOG] init_host_sparsity_pattern : 34 ms
[OGL LOG] matrix not stored update host matrix
[OGL LOG] update_host_mtx : 17 ms
[OGL LOG] matrix is not yet sorted, sorting host matrix
[OGL LOG] sort_host_mtx_sparsity_pattern : 23 ms
[OGL LOG] sort_host_mtx : 13 ms
[OGL LOG] init_preconditioner : 35 ms
[OGL LOG] solve : 16 ms
BJompGKOBiCGStab:  Solving for Uy, Initial residual = 0, Final residual = 0, No Iterations 0
[OGL LOG] init_host_sparsity_pattern : 33 ms
[OGL LOG] matrix not stored update host matrix
[OGL LOG] update_host_mtx : 15 ms
[OGL LOG] matrix is not yet sorted, sorting host matrix
[OGL LOG] sort_host_mtx_sparsity_pattern : 23 ms
[OGL LOG] sort_host_mtx : 12 ms
[OGL LOG] init_preconditioner : 34 ms
[OGL LOG] solve : 17 ms
BJompGKOBiCGStab:  Solving for Uz, Initial residual = 0, Final residual = 0, No Iterations 0
[OGL LOG] init_host_sparsity_pattern : 33 ms
[OGL LOG] matrix not stored update host matrix
[OGL LOG] update_host_mtx : 18 ms
[OGL LOG] matrix is not yet sorted, sorting host matrix
[OGL LOG] sort_host_mtx_sparsity_pattern : 22 ms
[OGL LOG] sort_host_mtx : 13 ms
[OGL LOG] init_preconditioner : 33 ms
[OGL LOG] solve : 6755 ms
BJompGKOBiCGStab:  Solving for p, Initial residual = 1, Final residual = 8.1634e-07, No Iterations 313
time step continuity errors : sum local = 7.61724e-09, global = 1.41655e-20, cumulative = 1.41655e-20
[OGL LOG] init_preconditioner : 0 ms
[OGL LOG] solve : 6906 ms
BJompGKOBiCGStab:  Solving for p, Initial residual = 0.72158, Final residual = 6.85433e-07, No Iterations 320
time step continuity errors : sum local = 1.02198e-08, global = -3.17388e-20, cumulative = -1.75733e-20
ExecutionTime = 16.56 s  ClockTime = 17 s

Time = 0.004

Courant Number mean: 0.0720723 max: 0.726639
[OGL LOG] init_host_sparsity_pattern : 33 ms
[OGL LOG] matrix not stored update host matrix
[OGL LOG] update_host_mtx : 15 ms
[OGL LOG] matrix is not yet sorted, sorting host matrix
[OGL LOG] sort_host_mtx_sparsity_pattern : 22 ms
[OGL LOG] sort_host_mtx : 12 ms
[OGL LOG] init_preconditioner : 0 ms
[OGL LOG] solve : 661 ms
BJompGKOBiCGStab:  Solving for Ux, Initial residual = 0.203462, Final residual = 8.31103e-07, No Iterations 30
[OGL LOG] init_host_sparsity_pattern : 33 ms
[OGL LOG] matrix not stored update host matrix
[OGL LOG] update_host_mtx : 15 ms
[OGL LOG] matrix is not yet sorted, sorting host matrix
[OGL LOG] sort_host_mtx_sparsity_pattern : 22 ms
[OGL LOG] sort_host_mtx : 12 ms
[OGL LOG] init_preconditioner : 0 ms
[OGL LOG] solve : 910 ms
BJompGKOBiCGStab:  Solving for Uy, Initial residual = 0.618434, Final residual = 2.27317e-07, No Iterations 42
[OGL LOG] init_host_sparsity_pattern : 33 ms
[OGL LOG] matrix not stored update host matrix
[OGL LOG] update_host_mtx : 15 ms
[OGL LOG] matrix is not yet sorted, sorting host matrix
[OGL LOG] sort_host_mtx_sparsity_pattern : 22 ms
[OGL LOG] sort_host_mtx : 12 ms
[OGL LOG] init_preconditioner : 0 ms
[OGL LOG] solve : 833 ms
BJompGKOBiCGStab:  Solving for Uz, Initial residual = 0.536169, Final residual = 9.94678e-07, No Iterations 38
[OGL LOG] init_preconditioner : 0 ms
[OGL LOG] solve : 6753 ms
BJompGKOBiCGStab:  Solving for p, Initial residual = 0.673322, Final residual = 9.62533e-07, No Iterations 313
time step continuity errors : sum local = 6.72314e-09, global = -3.0285e-20, cumulative = -4.78584e-20
[OGL LOG] init_preconditioner : 0 ms
[OGL LOG] solve : 7255 ms
BJompGKOBiCGStab:  Solving for p, Initial residual = 0.598889, Final residual = 8.53648e-07, No Iterations 331
time step continuity errors : sum local = 5.00844e-09, global = 7.65276e-21, cumulative = -4.02056e-20
ExecutionTime = 33.31 s  ClockTime = 34 s

Time = 0.006

Courant Number mean: 0.107408 max: 0.881755
[OGL LOG] init_host_sparsity_pattern : 32 ms
[OGL LOG] matrix not stored update host matrix
[OGL LOG] update_host_mtx : 15 ms
[OGL LOG] matrix is not yet sorted, sorting host matrix
[OGL LOG] sort_host_mtx_sparsity_pattern : 22 ms
[OGL LOG] sort_host_mtx : 12 ms
[OGL LOG] init_preconditioner : 0 ms
[OGL LOG] solve : 748 ms
BJompGKOBiCGStab:  Solving for Ux, Initial residual = 0.0995599, Final residual = 9.52833e-07, No Iterations 34
[OGL LOG] init_host_sparsity_pattern : 33 ms
[OGL LOG] matrix not stored update host matrix
[OGL LOG] update_host_mtx : 15 ms
[OGL LOG] matrix is not yet sorted, sorting host matrix
[OGL LOG] sort_host_mtx_sparsity_pattern : 22 ms
[OGL LOG] sort_host_mtx : 12 ms
[OGL LOG] init_preconditioner : 0 ms
[OGL LOG] solve : 725 ms
BJompGKOBiCGStab:  Solving for Uy, Initial residual = 0.249997, Final residual = 9.10234e-07, No Iterations 33
[OGL LOG] init_host_sparsity_pattern : 33 ms
[OGL LOG] matrix not stored update host matrix
[OGL LOG] update_host_mtx : 17 ms
[OGL LOG] matrix is not yet sorted, sorting host matrix
[OGL LOG] sort_host_mtx_sparsity_pattern : 22 ms
[OGL LOG] sort_host_mtx : 12 ms
[OGL LOG] init_preconditioner : 0 ms
[OGL LOG] solve : 822 ms
BJompGKOBiCGStab:  Solving for Uz, Initial residual = 0.540962, Final residual = 7.97446e-07, No Iterations 38
[OGL LOG] init_preconditioner : 0 ms
[OGL LOG] solve : 7034 ms
BJompGKOBiCGStab:  Solving for p, Initial residual = 0.606897, Final residual = 9.99682e-07, No Iterations 326
time step continuity errors : sum local = 3.75407e-09, global = -2.79098e-20, cumulative = -6.81154e-20
[OGL LOG] init_preconditioner : 0 ms
[OGL LOG] solve : 7082 ms
BJompGKOBiCGStab:  Solving for p, Initial residual = 0.560875, Final residual = 9.4028e-07, No Iterations 324
time step continuity errors : sum local = 1.82443e-09, global = 3.82057e-20, cumulative = -2.99097e-20
ExecutionTime = 50.06 s  ClockTime = 51 s

Time = 0.008

Courant Number mean: 0.123244 max: 0.890103
[OGL LOG] init_host_sparsity_pattern : 33 ms
[OGL LOG] matrix not stored update host matrix
[OGL LOG] update_host_mtx : 15 ms
[OGL LOG] matrix is not yet sorted, sorting host matrix
[OGL LOG] sort_host_mtx_sparsity_pattern : 22 ms
[OGL LOG] sort_host_mtx : 12 ms
[OGL LOG] init_preconditioner : 0 ms
[OGL LOG] solve : 663 ms
BJompGKOBiCGStab:  Solving for Ux, Initial residual = 0.0341392, Final residual = 9.14254e-07, No Iterations 30
[OGL LOG] init_host_sparsity_pattern : 33 ms
[OGL LOG] matrix not stored update host matrix
[OGL LOG] update_host_mtx : 15 ms
[OGL LOG] matrix is not yet sorted, sorting host matrix
[OGL LOG] sort_host_mtx_sparsity_pattern : 22 ms
[OGL LOG] sort_host_mtx : 12 ms
[OGL LOG] init_preconditioner : 0 ms
[OGL LOG] solve : 737 ms
BJompGKOBiCGStab:  Solving for Uy, Initial residual = 0.132381, Final residual = 6.47542e-07, No Iterations 34
[OGL LOG] init_host_sparsity_pattern : 33 ms
[OGL LOG] matrix not stored update host matrix
[OGL LOG] update_host_mtx : 15 ms
[OGL LOG] matrix is not yet sorted, sorting host matrix
[OGL LOG] sort_host_mtx_sparsity_pattern : 22 ms
[OGL LOG] sort_host_mtx : 12 ms
[OGL LOG] init_preconditioner : 0 ms
[OGL LOG] solve : 843 ms
BJompGKOBiCGStab:  Solving for Uz, Initial residual = 0.471946, Final residual = 3.63273e-07, No Iterations 39
[OGL LOG] init_preconditioner : 0 ms
[OGL LOG] solve : 7353 ms
BJompGKOBiCGStab:  Solving for p, Initial residual = 0.423028, Final residual = 9.3011e-07, No Iterations 341
time step continuity errors : sum local = 2.51633e-09, global = -1.2454e-20, cumulative = -4.23638e-20
[OGL LOG] init_preconditioner : 0 ms
[OGL LOG] solve : 7554 ms
BJompGKOBiCGStab:  Solving for p, Initial residual = 0.368363, Final residual = 6.99766e-07, No Iterations 350
time step continuity errors : sum local = 2.1909e-09, global = -1.48048e-20, cumulative = -5.71685e-20
ExecutionTime = 67.54 s  ClockTime = 68 s

Time = 0.01

Courant Number mean: 0.136096 max: 0.906943
[OGL LOG] init_host_sparsity_pattern : 33 ms
[OGL LOG] matrix not stored update host matrix
[OGL LOG] update_host_mtx : 15 ms
[OGL LOG] matrix is not yet sorted, sorting host matrix
[OGL LOG] sort_host_mtx_sparsity_pattern : 22 ms
[OGL LOG] sort_host_mtx : 12 ms
[OGL LOG] init_preconditioner : 0 ms
[OGL LOG] solve : 641 ms
BJompGKOBiCGStab:  Solving for Ux, Initial residual = 0.0230744, Final residual = 8.40167e-07, No Iterations 29
[OGL LOG] init_host_sparsity_pattern : 33 ms
[OGL LOG] matrix not stored update host matrix
[OGL LOG] update_host_mtx : 15 ms
[OGL LOG] matrix is not yet sorted, sorting host matrix
[OGL LOG] sort_host_mtx_sparsity_pattern : 22 ms
[OGL LOG] sort_host_mtx : 12 ms
[OGL LOG] init_preconditioner : 0 ms
[OGL LOG] solve : 683 ms
BJompGKOBiCGStab:  Solving for Uy, Initial residual = 0.0484053, Final residual = 9.94341e-07, No Iterations 31
[OGL LOG] init_host_sparsity_pattern : 33 ms
[OGL LOG] matrix not stored update host matrix
[OGL LOG] update_host_mtx : 15 ms
[OGL LOG] matrix is not yet sorted, sorting host matrix
[OGL LOG] sort_host_mtx_sparsity_pattern : 22 ms
[OGL LOG] sort_host_mtx : 14 ms
[OGL LOG] init_preconditioner : 0 ms
[OGL LOG] solve : 748 ms
BJompGKOBiCGStab:  Solving for Uz, Initial residual = 0.159175, Final residual = 9.00301e-07, No Iterations 34
[OGL LOG] init_preconditioner : 0 ms
[OGL LOG] solve : 6052 ms
BJompGKOBiCGStab:  Solving for p, Initial residual = 0.361681, Final residual = 5.86038e-07, No Iterations 281
time step continuity errors : sum local = 8.67302e-10, global = 7.7264e-21, cumulative = -4.94421e-20
[OGL LOG] init_preconditioner : 0 ms
[OGL LOG] solve : 5891 ms
BJompGKOBiCGStab:  Solving for p, Initial residual = 0.333178, Final residual = 7.41515e-07, No Iterations 273
time step continuity errors : sum local = 1.51727e-08, global = -1.91119e-20, cumulative = -6.8554e-20
ExecutionTime = 81.9 s  ClockTime = 82 s

End

