/*---------------------------------------------------------------------------*\
  =========                 |
  \\      /  F ield         | OpenFOAM: The Open Source CFD Toolbox
   \\    /   O peration     | Website:  https://openfoam.org
    \\  /    A nd           | Version:  8
     \\/     M anipulation  |
\*---------------------------------------------------------------------------*/
Build  : 8-13d66902f78c
Exec   : icoFoam
Date   : Jul 12 2021
Time   : 13:00:01
Host   : "uc2n402.localdomain"
PID    : 3433888
I/O    : uncollated
Case   : /pfs/data5/home/kit/scc/nq7776/code/OGL_DATA/lidDrivenCavity3D/v0.1-136-g40fef35/f584ccac99/IntelXeonGold6230CPU@2.10GHz/Test_2021-07-12-12:43:44/50/p-U-CG-GKO-none-omp/lidDrivenCavity3D
nProcs : 1
sigFpe : Enabling floating point exception trapping (FOAM_SIGFPE).
fileModificationChecking : Monitoring run-time modified files using timeStampMaster (fileModificationSkew 10)
allowSystemOperations : Allowing user-supplied system call operations

// * * * * * * * * * * * * * * * * * * * * * * * * * * * * * * * * * * * * * //
Create time

Create mesh for time = 0

Reading transportProperties

Reading field p

Reading field U

Reading/calculating face flux field phi


Starting time loop

Time = 0.002

Courant Number mean: 0 max: 0
[OGL LOG] init_host_sparsity_pattern : 35 ms
[OGL LOG] matrix not stored update host matrix
[OGL LOG] update_host_mtx : 18 ms
[OGL LOG] matrix is not yet sorted, compute sorting idxs
[OGL LOG] compute_sort : 987 ms
[OGL LOG] matrix is not yet sorted, sorting host matrix
[OGL LOG] sort_host_mtx_sparsity_pattern : 24 ms
[OGL LOG] sort_host_mtx : 15 ms
[OGL LOG] init_preconditioner : 0 ms
[OGL LOG] solve : 238 ms
noneompGKOBiCGStab:  Solving for Ux, Initial residual = 1, Final residual = 8.72813e-07, No Iterations 41
[OGL LOG] init_host_sparsity_pattern : 37 ms
[OGL LOG] matrix not stored update host matrix
[OGL LOG] update_host_mtx : 18 ms
[OGL LOG] matrix is not yet sorted, sorting host matrix
[OGL LOG] sort_host_mtx_sparsity_pattern : 23 ms
[OGL LOG] sort_host_mtx : 12 ms
[OGL LOG] init_preconditioner : 0 ms
[OGL LOG] solve : 5 ms
noneompGKOBiCGStab:  Solving for Uy, Initial residual = 0, Final residual = 0, No Iterations 0
[OGL LOG] init_host_sparsity_pattern : 34 ms
[OGL LOG] matrix not stored update host matrix
[OGL LOG] update_host_mtx : 15 ms
[OGL LOG] matrix is not yet sorted, sorting host matrix
[OGL LOG] sort_host_mtx_sparsity_pattern : 23 ms
[OGL LOG] sort_host_mtx : 12 ms
[OGL LOG] init_preconditioner : 0 ms
[OGL LOG] solve : 4 ms
noneompGKOBiCGStab:  Solving for Uz, Initial residual = 0, Final residual = 0, No Iterations 0
[OGL LOG] init_host_sparsity_pattern : 33 ms
[OGL LOG] matrix not stored update host matrix
[OGL LOG] update_host_mtx : 18 ms
[OGL LOG] matrix is not yet sorted, sorting host matrix
[OGL LOG] sort_host_mtx_sparsity_pattern : 22 ms
[OGL LOG] sort_host_mtx : 14 ms
[OGL LOG] init_preconditioner : 0 ms
[OGL LOG] solve : 716 ms
noneompGKOCG:  Solving for p, Initial residual = 1, Final residual = 9.36056e-07, No Iterations 444
time step continuity errors : sum local = 1.54131e-09, global = -1.02588e-20, cumulative = -1.02588e-20
[OGL LOG] init_preconditioner : 0 ms
[OGL LOG] solve : 828 ms
noneompGKOCG:  Solving for p, Initial residual = 0.721583, Final residual = 9.63887e-07, No Iterations 440
time step continuity errors : sum local = 2.10431e-09, global = 1.02872e-20, cumulative = 2.84123e-23
ExecutionTime = 117.5 s  ClockTime = 4 s

Time = 0.004

Courant Number mean: 0.0720722 max: 0.726639
[OGL LOG] init_host_sparsity_pattern : 33 ms
[OGL LOG] matrix not stored update host matrix
[OGL LOG] update_host_mtx : 19 ms
[OGL LOG] matrix is not yet sorted, sorting host matrix
[OGL LOG] sort_host_mtx_sparsity_pattern : 28 ms
[OGL LOG] sort_host_mtx : 12 ms
[OGL LOG] init_preconditioner : 0 ms
[OGL LOG] solve : 151 ms
noneompGKOBiCGStab:  Solving for Ux, Initial residual = 0.203465, Final residual = 6.06661e-07, No Iterations 39
[OGL LOG] init_host_sparsity_pattern : 35 ms
[OGL LOG] matrix not stored update host matrix
[OGL LOG] update_host_mtx : 15 ms
[OGL LOG] matrix is not yet sorted, sorting host matrix
[OGL LOG] sort_host_mtx_sparsity_pattern : 21 ms
[OGL LOG] sort_host_mtx : 12 ms
[OGL LOG] init_preconditioner : 0 ms
[OGL LOG] solve : 148 ms
noneompGKOBiCGStab:  Solving for Uy, Initial residual = 0.618431, Final residual = 4.99764e-07, No Iterations 38
[OGL LOG] init_host_sparsity_pattern : 34 ms
[OGL LOG] matrix not stored update host matrix
[OGL LOG] update_host_mtx : 15 ms
[OGL LOG] matrix is not yet sorted, sorting host matrix
[OGL LOG] sort_host_mtx_sparsity_pattern : 21 ms
[OGL LOG] sort_host_mtx : 12 ms
[OGL LOG] init_preconditioner : 0 ms
[OGL LOG] solve : 150 ms
noneompGKOBiCGStab:  Solving for Uz, Initial residual = 0.536266, Final residual = 5.03267e-07, No Iterations 39
[OGL LOG] init_preconditioner : 0 ms
[OGL LOG] solve : 843 ms
noneompGKOCG:  Solving for p, Initial residual = 0.673317, Final residual = 9.92022e-07, No Iterations 433
time step continuity errors : sum local = 2.35294e-09, global = -3.25133e-20, cumulative = -3.24849e-20
[OGL LOG] init_preconditioner : 0 ms
[OGL LOG] solve : 846 ms
noneompGKOCG:  Solving for p, Initial residual = 0.598887, Final residual = 9.85462e-07, No Iterations 433
time step continuity errors : sum local = 2.39897e-09, global = 3.05984e-20, cumulative = -1.88655e-21
ExecutionTime = 256.87 s  ClockTime = 6 s

Time = 0.006

Courant Number mean: 0.107408 max: 0.881754
[OGL LOG] init_host_sparsity_pattern : 33 ms
[OGL LOG] matrix not stored update host matrix
[OGL LOG] update_host_mtx : 16 ms
[OGL LOG] matrix is not yet sorted, sorting host matrix
[OGL LOG] sort_host_mtx_sparsity_pattern : 23 ms
[OGL LOG] sort_host_mtx : 12 ms
[OGL LOG] init_preconditioner : 0 ms
[OGL LOG] solve : 131 ms
noneompGKOBiCGStab:  Solving for Ux, Initial residual = 0.0995686, Final residual = 9.8164e-07, No Iterations 35
[OGL LOG] init_host_sparsity_pattern : 34 ms
[OGL LOG] matrix not stored update host matrix
[OGL LOG] update_host_mtx : 15 ms
[OGL LOG] matrix is not yet sorted, sorting host matrix
[OGL LOG] sort_host_mtx_sparsity_pattern : 21 ms
[OGL LOG] sort_host_mtx : 12 ms
[OGL LOG] init_preconditioner : 0 ms
[OGL LOG] solve : 140 ms
noneompGKOBiCGStab:  Solving for Uy, Initial residual = 0.249969, Final residual = 7.73552e-07, No Iterations 37
[OGL LOG] init_host_sparsity_pattern : 34 ms
[OGL LOG] matrix not stored update host matrix
[OGL LOG] update_host_mtx : 15 ms
[OGL LOG] matrix is not yet sorted, sorting host matrix
[OGL LOG] sort_host_mtx_sparsity_pattern : 21 ms
[OGL LOG] sort_host_mtx : 12 ms
[OGL LOG] init_preconditioner : 0 ms
[OGL LOG] solve : 149 ms
noneompGKOBiCGStab:  Solving for Uz, Initial residual = 0.540953, Final residual = 6.38566e-07, No Iterations 40
[OGL LOG] init_preconditioner : 0 ms
[OGL LOG] solve : 798 ms
noneompGKOCG:  Solving for p, Initial residual = 0.606886, Final residual = 9.17525e-07, No Iterations 437
time step continuity errors : sum local = 1.56238e-09, global = 6.466e-21, cumulative = 4.57945e-21
[OGL LOG] init_preconditioner : 0 ms
[OGL LOG] solve : 807 ms
noneompGKOCG:  Solving for p, Initial residual = 0.560842, Final residual = 9.49002e-07, No Iterations 436
time step continuity errors : sum local = 1.56207e-09, global = -4.76571e-20, cumulative = -4.30777e-20
ExecutionTime = 389.04 s  ClockTime = 9 s

Time = 0.008

Courant Number mean: 0.123244 max: 0.890102
[OGL LOG] init_host_sparsity_pattern : 33 ms
[OGL LOG] matrix not stored update host matrix
[OGL LOG] update_host_mtx : 15 ms
[OGL LOG] matrix is not yet sorted, sorting host matrix
[OGL LOG] sort_host_mtx_sparsity_pattern : 21 ms
[OGL LOG] sort_host_mtx : 12 ms
[OGL LOG] init_preconditioner : 0 ms
[OGL LOG] solve : 118 ms
noneompGKOBiCGStab:  Solving for Ux, Initial residual = 0.0341423, Final residual = 8.36647e-07, No Iterations 31
[OGL LOG] init_host_sparsity_pattern : 34 ms
[OGL LOG] matrix not stored update host matrix
[OGL LOG] update_host_mtx : 15 ms
[OGL LOG] matrix is not yet sorted, sorting host matrix
[OGL LOG] sort_host_mtx_sparsity_pattern : 21 ms
[OGL LOG] sort_host_mtx : 12 ms
[OGL LOG] init_preconditioner : 0 ms
[OGL LOG] solve : 131 ms
noneompGKOBiCGStab:  Solving for Uy, Initial residual = 0.13238, Final residual = 9.33194e-07, No Iterations 35
[OGL LOG] init_host_sparsity_pattern : 34 ms
[OGL LOG] matrix not stored update host matrix
[OGL LOG] update_host_mtx : 15 ms
[OGL LOG] matrix is not yet sorted, sorting host matrix
[OGL LOG] sort_host_mtx_sparsity_pattern : 21 ms
[OGL LOG] sort_host_mtx : 12 ms
[OGL LOG] init_preconditioner : 0 ms
[OGL LOG] solve : 142 ms
noneompGKOBiCGStab:  Solving for Uz, Initial residual = 0.471955, Final residual = 9.29911e-07, No Iterations 38
[OGL LOG] init_preconditioner : 0 ms
[OGL LOG] solve : 838 ms
noneompGKOCG:  Solving for p, Initial residual = 0.423037, Final residual = 9.2357e-07, No Iterations 435
time step continuity errors : sum local = 1.45822e-09, global = -7.24837e-21, cumulative = -5.03261e-20
[OGL LOG] init_preconditioner : 0 ms
[OGL LOG] solve : 839 ms
noneompGKOCG:  Solving for p, Initial residual = 0.368376, Final residual = 9.76838e-07, No Iterations 433
time step continuity errors : sum local = 1.56462e-09, global = -2.07273e-20, cumulative = -7.10533e-20
ExecutionTime = 523.86 s  ClockTime = 11 s

Time = 0.01

Courant Number mean: 0.136096 max: 0.906942
[OGL LOG] init_host_sparsity_pattern : 32 ms
[OGL LOG] matrix not stored update host matrix
[OGL LOG] update_host_mtx : 15 ms
[OGL LOG] matrix is not yet sorted, sorting host matrix
[OGL LOG] sort_host_mtx_sparsity_pattern : 21 ms
[OGL LOG] sort_host_mtx : 12 ms
[OGL LOG] init_preconditioner : 0 ms
[OGL LOG] solve : 110 ms
noneompGKOBiCGStab:  Solving for Ux, Initial residual = 0.0230737, Final residual = 9.74707e-07, No Iterations 29
[OGL LOG] init_host_sparsity_pattern : 34 ms
[OGL LOG] matrix not stored update host matrix
[OGL LOG] update_host_mtx : 15 ms
[OGL LOG] matrix is not yet sorted, sorting host matrix
[OGL LOG] sort_host_mtx_sparsity_pattern : 21 ms
[OGL LOG] sort_host_mtx : 12 ms
[OGL LOG] init_preconditioner : 0 ms
[OGL LOG] solve : 121 ms
noneompGKOBiCGStab:  Solving for Uy, Initial residual = 0.0484114, Final residual = 8.13151e-07, No Iterations 32
[OGL LOG] init_host_sparsity_pattern : 34 ms
[OGL LOG] matrix not stored update host matrix
[OGL LOG] update_host_mtx : 15 ms
[OGL LOG] matrix is not yet sorted, sorting host matrix
[OGL LOG] sort_host_mtx_sparsity_pattern : 21 ms
[OGL LOG] sort_host_mtx : 12 ms
[OGL LOG] init_preconditioner : 0 ms
[OGL LOG] solve : 132 ms
noneompGKOBiCGStab:  Solving for Uz, Initial residual = 0.159032, Final residual = 9.96185e-07, No Iterations 35
[OGL LOG] init_preconditioner : 0 ms
[OGL LOG] solve : 838 ms
noneompGKOCG:  Solving for p, Initial residual = 0.361666, Final residual = 9.96741e-07, No Iterations 433
time step continuity errors : sum local = 1.36187e-09, global = 3.31798e-20, cumulative = -3.78735e-20
[OGL LOG] init_preconditioner : 0 ms
[OGL LOG] solve : 894 ms
noneompGKOCG:  Solving for p, Initial residual = 0.33316, Final residual = 9.43828e-07, No Iterations 433
time step continuity errors : sum local = 1.27805e-09, global = -5.86829e-21, cumulative = -4.37418e-20
ExecutionTime = 660.4 s  ClockTime = 14 s

End

