/*---------------------------------------------------------------------------*\
  =========                 |
  \\      /  F ield         | OpenFOAM: The Open Source CFD Toolbox
   \\    /   O peration     | Website:  https://openfoam.org
    \\  /    A nd           | Version:  8
     \\/     M anipulation  |
\*---------------------------------------------------------------------------*/
Build  : 8-13d66902f78c
Exec   : icoFoam
Date   : Jul 12 2021
Time   : 12:41:09
Host   : "uc2n401.localdomain"
PID    : 2656486
I/O    : uncollated
Case   : /pfs/data5/home/kit/scc/nq7776/code/OGL_DATA/lidDrivenCavity3D/v0.1-136-g40fef35/f584ccac99/IntelXeonGold6230CPU@2.10GHz/Test_2021-07-12-12:39:55/25/p-CG-GKO-none-omp/lidDrivenCavity3D
nProcs : 1
sigFpe : Enabling floating point exception trapping (FOAM_SIGFPE).
fileModificationChecking : Monitoring run-time modified files using timeStampMaster (fileModificationSkew 10)
allowSystemOperations : Allowing user-supplied system call operations

// * * * * * * * * * * * * * * * * * * * * * * * * * * * * * * * * * * * * * //
Create time

Create mesh for time = 0

Reading transportProperties

Reading field p

Reading field U

Reading/calculating face flux field phi


Starting time loop

Time = 0.004

Courant Number mean: 0 max: 0
nonePBiCGStab:  Solving for Ux, Initial residual = 1, Final residual = 0.0337517, No Iterations 5
nonePBiCGStab:  Solving for Uy, Initial residual = 0, Final residual = 0, No Iterations 0
nonePBiCGStab:  Solving for Uz, Initial residual = 0, Final residual = 0, No Iterations 0
[OGL LOG] init_host_sparsity_pattern : 4 ms
[OGL LOG] matrix not stored update host matrix
[OGL LOG] update_host_mtx : 2 ms
[OGL LOG] matrix is not yet sorted, compute sorting idxs
[OGL LOG] compute_sort : 106 ms
[OGL LOG] matrix is not yet sorted, sorting host matrix
[OGL LOG] sort_host_mtx_sparsity_pattern : 3 ms
[OGL LOG] sort_host_mtx : 1 ms
[OGL LOG] init_preconditioner : 0 ms
[OGL LOG] solve : 70 ms
noneompGKOCG:  Solving for p, Initial residual = 1, Final residual = 9.86293e-07, No Iterations 219
time step continuity errors : sum local = 3.91449e-09, global = 2.7936e-20, cumulative = 2.7936e-20
[OGL LOG] init_preconditioner : 0 ms
[OGL LOG] solve : 69 ms
noneompGKOCG:  Solving for p, Initial residual = 0.622285, Final residual = 9.06844e-07, No Iterations 215
time step continuity errors : sum local = 5.26592e-09, global = 1.92335e-20, cumulative = 4.71695e-20
ExecutionTime = 0.52 s  ClockTime = 0 s

Time = 0.008

Courant Number mean: 0.084228 max: 0.621061
nonePBiCGStab:  Solving for Ux, Initial residual = 0.149589, Final residual = 0.00942683, No Iterations 5
nonePBiCGStab:  Solving for Uy, Initial residual = 0.281195, Final residual = 0.0142199, No Iterations 5
nonePBiCGStab:  Solving for Uz, Initial residual = 0.933286, Final residual = 0.0511082, No Iterations 5
[OGL LOG] init_preconditioner : 0 ms
[OGL LOG] solve : 68 ms
noneompGKOCG:  Solving for p, Initial residual = 0.518045, Final residual = 9.14891e-07, No Iterations 212
time step continuity errors : sum local = 5.36127e-09, global = 7.85671e-20, cumulative = 1.25737e-19
[OGL LOG] init_preconditioner : 0 ms
[OGL LOG] solve : 68 ms
noneompGKOCG:  Solving for p, Initial residual = 0.415898, Final residual = 9.92244e-07, No Iterations 210
time step continuity errors : sum local = 6.05747e-09, global = -2.40203e-20, cumulative = 1.01716e-19
ExecutionTime = 0.82 s  ClockTime = 0 s

Time = 0.012

Courant Number mean: 0.124051 max: 0.792234
nonePBiCGStab:  Solving for Ux, Initial residual = 0.0425001, Final residual = 0.00204637, No Iterations 5
nonePBiCGStab:  Solving for Uy, Initial residual = 0.0761453, Final residual = 0.00263683, No Iterations 5
nonePBiCGStab:  Solving for Uz, Initial residual = 0.142708, Final residual = 0.00668453, No Iterations 5
[OGL LOG] init_preconditioner : 0 ms
[OGL LOG] solve : 66 ms
noneompGKOCG:  Solving for p, Initial residual = 0.279188, Final residual = 9.58038e-07, No Iterations 208
time step continuity errors : sum local = 4.10794e-09, global = -6.29357e-20, cumulative = 3.87806e-20
[OGL LOG] init_preconditioner : 0 ms
[OGL LOG] solve : 66 ms
noneompGKOCG:  Solving for p, Initial residual = 0.224051, Final residual = 9.55884e-07, No Iterations 206
time step continuity errors : sum local = 4.01636e-09, global = 8.56122e-20, cumulative = 1.24393e-19
ExecutionTime = 1.1 s  ClockTime = 0 s

Time = 0.016

Courant Number mean: 0.142529 max: 0.824384
nonePBiCGStab:  Solving for Ux, Initial residual = 0.0219032, Final residual = 0.000752461, No Iterations 5
nonePBiCGStab:  Solving for Uy, Initial residual = 0.0474704, Final residual = 0.000975032, No Iterations 5
nonePBiCGStab:  Solving for Uz, Initial residual = 0.0926543, Final residual = 0.00322905, No Iterations 5
[OGL LOG] init_preconditioner : 0 ms
[OGL LOG] solve : 80 ms
noneompGKOCG:  Solving for p, Initial residual = 0.138549, Final residual = 9.96851e-07, No Iterations 200
time step continuity errors : sum local = 4.23569e-09, global = 8.56982e-20, cumulative = 2.10091e-19
[OGL LOG] init_preconditioner : 0 ms
[OGL LOG] solve : 82 ms
noneompGKOCG:  Solving for p, Initial residual = 0.106559, Final residual = 9.97242e-07, No Iterations 198
time step continuity errors : sum local = 4.29539e-09, global = 2.38336e-20, cumulative = 2.33925e-19
ExecutionTime = 1.44 s  ClockTime = 0 s

Time = 0.02

Courant Number mean: 0.154857 max: 0.843613
nonePBiCGStab:  Solving for Ux, Initial residual = 0.0136635, Final residual = 0.000405685, No Iterations 5
nonePBiCGStab:  Solving for Uy, Initial residual = 0.0288036, Final residual = 0.00072801, No Iterations 5
nonePBiCGStab:  Solving for Uz, Initial residual = 0.0551893, Final residual = 0.00171374, No Iterations 5
[OGL LOG] init_preconditioner : 0 ms
[OGL LOG] solve : 82 ms
noneompGKOCG:  Solving for p, Initial residual = 0.0654139, Final residual = 9.93465e-07, No Iterations 197
time step continuity errors : sum local = 4.06176e-09, global = 7.1376e-20, cumulative = 3.05301e-19
[OGL LOG] init_preconditioner : 0 ms
[OGL LOG] solve : 81 ms
noneompGKOCG:  Solving for p, Initial residual = 0.0510736, Final residual = 9.23246e-07, No Iterations 196
time step continuity errors : sum local = 3.77394e-09, global = -1.24144e-20, cumulative = 2.92886e-19
ExecutionTime = 1.79 s  ClockTime = 1 s

End

