/*---------------------------------------------------------------------------*\
  =========                 |
  \\      /  F ield         | OpenFOAM: The Open Source CFD Toolbox
   \\    /   O peration     | Website:  https://openfoam.org
    \\  /    A nd           | Version:  8
     \\/     M anipulation  |
\*---------------------------------------------------------------------------*/
Build  : 8-13d66902f78c
Exec   : icoFoam
Date   : Jul 14 2021
Time   : 00:25:37
Host   : "uc2n553.localdomain"
PID    : 751250
I/O    : uncollated
Case   : /pfs/data5/home/kit/scc/nq7776/code/OGL_DATA/lidDrivenCavity3D/v0.1-136-g40fef35/f584ccac99/IntelXeonGold6230CPU@2.10GHz/Test_2021-07-14-00:17:39/50/p-U-CG-GKO-none-omp/lidDrivenCavity3D
nProcs : 1
sigFpe : Enabling floating point exception trapping (FOAM_SIGFPE).
fileModificationChecking : Monitoring run-time modified files using timeStampMaster (fileModificationSkew 10)
allowSystemOperations : Allowing user-supplied system call operations

// * * * * * * * * * * * * * * * * * * * * * * * * * * * * * * * * * * * * * //
Create time

Create mesh for time = 0

Reading transportProperties

Reading field p

Reading field U

Reading/calculating face flux field phi


Starting time loop

Time = 0.002

Courant Number mean: 0 max: 0
[OGL LOG] init_host_sparsity_pattern : 36 ms
[OGL LOG] matrix not stored update host matrix
[OGL LOG] update_host_mtx : 18 ms
[OGL LOG] matrix is not yet sorted, compute sorting idxs
[OGL LOG] compute_sort : 909 ms
[OGL LOG] matrix is not yet sorted, sorting host matrix
[OGL LOG] sort_host_mtx_sparsity_pattern : 23 ms
[OGL LOG] sort_host_mtx : 14 ms
[OGL LOG] init_preconditioner : 0 ms
[OGL LOG] solve : 326 ms
noneompGKOBiCGStab:  Solving for Ux, Initial residual = 1, Final residual = 8.43389e-07, No Iterations 41
[OGL LOG] init_host_sparsity_pattern : 34 ms
[OGL LOG] matrix not stored update host matrix
[OGL LOG] update_host_mtx : 17 ms
[OGL LOG] matrix is not yet sorted, sorting host matrix
[OGL LOG] sort_host_mtx_sparsity_pattern : 23 ms
[OGL LOG] sort_host_mtx : 12 ms
[OGL LOG] init_preconditioner : 0 ms
[OGL LOG] solve : 9 ms
noneompGKOBiCGStab:  Solving for Uy, Initial residual = 0, Final residual = 0, No Iterations 0
[OGL LOG] init_host_sparsity_pattern : 33 ms
[OGL LOG] matrix not stored update host matrix
[OGL LOG] update_host_mtx : 15 ms
[OGL LOG] matrix is not yet sorted, sorting host matrix
[OGL LOG] sort_host_mtx_sparsity_pattern : 23 ms
[OGL LOG] sort_host_mtx : 12 ms
[OGL LOG] init_preconditioner : 0 ms
[OGL LOG] solve : 8 ms
noneompGKOBiCGStab:  Solving for Uz, Initial residual = 0, Final residual = 0, No Iterations 0
[OGL LOG] init_host_sparsity_pattern : 33 ms
[OGL LOG] matrix not stored update host matrix
[OGL LOG] update_host_mtx : 18 ms
[OGL LOG] matrix is not yet sorted, sorting host matrix
[OGL LOG] sort_host_mtx_sparsity_pattern : 22 ms
[OGL LOG] sort_host_mtx : 13 ms
[OGL LOG] init_preconditioner : 0 ms
[OGL LOG] solve : 1690 ms
noneompGKOCG:  Solving for p, Initial residual = 1, Final residual = 9.02143e-07, No Iterations 444
time step continuity errors : sum local = 1.48545e-09, global = 2.32509e-21, cumulative = 2.32509e-21
[OGL LOG] init_preconditioner : 0 ms
[OGL LOG] solve : 1673 ms
noneompGKOCG:  Solving for p, Initial residual = 0.721583, Final residual = 9.39974e-07, No Iterations 440
time step continuity errors : sum local = 2.0521e-09, global = 1.79942e-20, cumulative = 2.03192e-20
ExecutionTime = 5.6 s  ClockTime = 5 s

Time = 0.004

Courant Number mean: 0.0720722 max: 0.726639
[OGL LOG] init_host_sparsity_pattern : 33 ms
[OGL LOG] matrix not stored update host matrix
[OGL LOG] update_host_mtx : 15 ms
[OGL LOG] matrix is not yet sorted, sorting host matrix
[OGL LOG] sort_host_mtx_sparsity_pattern : 22 ms
[OGL LOG] sort_host_mtx : 12 ms
[OGL LOG] init_preconditioner : 0 ms
[OGL LOG] solve : 277 ms
noneompGKOBiCGStab:  Solving for Ux, Initial residual = 0.203465, Final residual = 7.60924e-07, No Iterations 35
[OGL LOG] init_host_sparsity_pattern : 33 ms
[OGL LOG] matrix not stored update host matrix
[OGL LOG] update_host_mtx : 15 ms
[OGL LOG] matrix is not yet sorted, sorting host matrix
[OGL LOG] sort_host_mtx_sparsity_pattern : 22 ms
[OGL LOG] sort_host_mtx : 12 ms
[OGL LOG] init_preconditioner : 0 ms
[OGL LOG] solve : 310 ms
noneompGKOBiCGStab:  Solving for Uy, Initial residual = 0.618431, Final residual = 7.81818e-07, No Iterations 39
[OGL LOG] init_host_sparsity_pattern : 33 ms
[OGL LOG] matrix not stored update host matrix
[OGL LOG] update_host_mtx : 15 ms
[OGL LOG] matrix is not yet sorted, sorting host matrix
[OGL LOG] sort_host_mtx_sparsity_pattern : 22 ms
[OGL LOG] sort_host_mtx : 12 ms
[OGL LOG] init_preconditioner : 0 ms
[OGL LOG] solve : 288 ms
noneompGKOBiCGStab:  Solving for Uz, Initial residual = 0.536266, Final residual = 9.5065e-07, No Iterations 37
[OGL LOG] init_preconditioner : 0 ms
[OGL LOG] solve : 1653 ms
noneompGKOCG:  Solving for p, Initial residual = 0.673326, Final residual = 9.97492e-07, No Iterations 433
time step continuity errors : sum local = 2.36597e-09, global = -2.32589e-20, cumulative = -2.93967e-21
[OGL LOG] init_preconditioner : 0 ms
[OGL LOG] solve : 1648 ms
noneompGKOCG:  Solving for p, Initial residual = 0.598897, Final residual = 9.78024e-07, No Iterations 433
time step continuity errors : sum local = 2.38093e-09, global = -4.3677e-21, cumulative = -7.30737e-21
ExecutionTime = 10.13 s  ClockTime = 10 s

Time = 0.006

Courant Number mean: 0.107408 max: 0.881754
[OGL LOG] init_host_sparsity_pattern : 33 ms
[OGL LOG] matrix not stored update host matrix
[OGL LOG] update_host_mtx : 15 ms
[OGL LOG] matrix is not yet sorted, sorting host matrix
[OGL LOG] sort_host_mtx_sparsity_pattern : 22 ms
[OGL LOG] sort_host_mtx : 13 ms
[OGL LOG] init_preconditioner : 0 ms
[OGL LOG] solve : 273 ms
noneompGKOBiCGStab:  Solving for Ux, Initial residual = 0.0995685, Final residual = 9.29734e-07, No Iterations 35
[OGL LOG] init_host_sparsity_pattern : 33 ms
[OGL LOG] matrix not stored update host matrix
[OGL LOG] update_host_mtx : 15 ms
[OGL LOG] matrix is not yet sorted, sorting host matrix
[OGL LOG] sort_host_mtx_sparsity_pattern : 22 ms
[OGL LOG] sort_host_mtx : 12 ms
[OGL LOG] init_preconditioner : 0 ms
[OGL LOG] solve : 272 ms
noneompGKOBiCGStab:  Solving for Uy, Initial residual = 0.24997, Final residual = 9.50412e-07, No Iterations 35
[OGL LOG] init_host_sparsity_pattern : 33 ms
[OGL LOG] matrix not stored update host matrix
[OGL LOG] update_host_mtx : 16 ms
[OGL LOG] matrix is not yet sorted, sorting host matrix
[OGL LOG] sort_host_mtx_sparsity_pattern : 22 ms
[OGL LOG] sort_host_mtx : 12 ms
[OGL LOG] init_preconditioner : 0 ms
[OGL LOG] solve : 318 ms
noneompGKOBiCGStab:  Solving for Uz, Initial residual = 0.540976, Final residual = 9.71968e-07, No Iterations 41
[OGL LOG] init_preconditioner : 0 ms
[OGL LOG] solve : 1648 ms
noneompGKOCG:  Solving for p, Initial residual = 0.606888, Final residual = 9.94345e-07, No Iterations 436
time step continuity errors : sum local = 1.69321e-09, global = -5.57578e-21, cumulative = -1.28831e-20
[OGL LOG] init_preconditioner : 0 ms
[OGL LOG] solve : 1656 ms
noneompGKOCG:  Solving for p, Initial residual = 0.560844, Final residual = 9.51834e-07, No Iterations 436
time step continuity errors : sum local = 1.56674e-09, global = -3.78344e-20, cumulative = -5.07176e-20
ExecutionTime = 14.65 s  ClockTime = 15 s

Time = 0.008

Courant Number mean: 0.123244 max: 0.890102
[OGL LOG] init_host_sparsity_pattern : 33 ms
[OGL LOG] matrix not stored update host matrix
[OGL LOG] update_host_mtx : 15 ms
[OGL LOG] matrix is not yet sorted, sorting host matrix
[OGL LOG] sort_host_mtx_sparsity_pattern : 22 ms
[OGL LOG] sort_host_mtx : 12 ms
[OGL LOG] init_preconditioner : 0 ms
[OGL LOG] solve : 246 ms
noneompGKOBiCGStab:  Solving for Ux, Initial residual = 0.0341423, Final residual = 8.79492e-07, No Iterations 31
[OGL LOG] init_host_sparsity_pattern : 33 ms
[OGL LOG] matrix not stored update host matrix
[OGL LOG] update_host_mtx : 15 ms
[OGL LOG] matrix is not yet sorted, sorting host matrix
[OGL LOG] sort_host_mtx_sparsity_pattern : 22 ms
[OGL LOG] sort_host_mtx : 12 ms
[OGL LOG] init_preconditioner : 0 ms
[OGL LOG] solve : 276 ms
noneompGKOBiCGStab:  Solving for Uy, Initial residual = 0.132381, Final residual = 8.6211e-07, No Iterations 35
[OGL LOG] init_host_sparsity_pattern : 34 ms
[OGL LOG] matrix not stored update host matrix
[OGL LOG] update_host_mtx : 15 ms
[OGL LOG] matrix is not yet sorted, sorting host matrix
[OGL LOG] sort_host_mtx_sparsity_pattern : 22 ms
[OGL LOG] sort_host_mtx : 12 ms
[OGL LOG] init_preconditioner : 0 ms
[OGL LOG] solve : 295 ms
noneompGKOBiCGStab:  Solving for Uz, Initial residual = 0.47196, Final residual = 5.75057e-07, No Iterations 38
[OGL LOG] init_preconditioner : 0 ms
[OGL LOG] solve : 1645 ms
noneompGKOCG:  Solving for p, Initial residual = 0.423038, Final residual = 9.17812e-07, No Iterations 435
time step continuity errors : sum local = 1.44913e-09, global = -3.2134e-21, cumulative = -5.3931e-20
[OGL LOG] init_preconditioner : 0 ms
[OGL LOG] solve : 1648 ms
noneompGKOCG:  Solving for p, Initial residual = 0.368377, Final residual = 9.78156e-07, No Iterations 433
time step continuity errors : sum local = 1.56673e-09, global = -2.69279e-20, cumulative = -8.08589e-20
ExecutionTime = 19.12 s  ClockTime = 19 s

Time = 0.01

Courant Number mean: 0.136096 max: 0.906942
[OGL LOG] init_host_sparsity_pattern : 33 ms
[OGL LOG] matrix not stored update host matrix
[OGL LOG] update_host_mtx : 15 ms
[OGL LOG] matrix is not yet sorted, sorting host matrix
[OGL LOG] sort_host_mtx_sparsity_pattern : 22 ms
[OGL LOG] sort_host_mtx : 12 ms
[OGL LOG] init_preconditioner : 0 ms
[OGL LOG] solve : 230 ms
noneompGKOBiCGStab:  Solving for Ux, Initial residual = 0.0230738, Final residual = 9.8154e-07, No Iterations 29
[OGL LOG] init_host_sparsity_pattern : 33 ms
[OGL LOG] matrix not stored update host matrix
[OGL LOG] update_host_mtx : 15 ms
[OGL LOG] matrix is not yet sorted, sorting host matrix
[OGL LOG] sort_host_mtx_sparsity_pattern : 23 ms
[OGL LOG] sort_host_mtx : 12 ms
[OGL LOG] init_preconditioner : 0 ms
[OGL LOG] solve : 251 ms
noneompGKOBiCGStab:  Solving for Uy, Initial residual = 0.0484119, Final residual = 7.96016e-07, No Iterations 32
[OGL LOG] init_host_sparsity_pattern : 33 ms
[OGL LOG] matrix not stored update host matrix
[OGL LOG] update_host_mtx : 16 ms
[OGL LOG] matrix is not yet sorted, sorting host matrix
[OGL LOG] sort_host_mtx_sparsity_pattern : 22 ms
[OGL LOG] sort_host_mtx : 12 ms
[OGL LOG] init_preconditioner : 0 ms
[OGL LOG] solve : 270 ms
noneompGKOBiCGStab:  Solving for Uz, Initial residual = 0.159037, Final residual = 6.75895e-07, No Iterations 35
[OGL LOG] init_preconditioner : 0 ms
[OGL LOG] solve : 1650 ms
noneompGKOCG:  Solving for p, Initial residual = 0.361667, Final residual = 9.26311e-07, No Iterations 434
time step continuity errors : sum local = 1.26565e-09, global = -2.14716e-20, cumulative = -1.02331e-19
[OGL LOG] init_preconditioner : 0 ms
[OGL LOG] solve : 1642 ms
noneompGKOCG:  Solving for p, Initial residual = 0.333161, Final residual = 9.49349e-07, No Iterations 433
time step continuity errors : sum local = 1.28552e-09, global = 2.66011e-20, cumulative = -7.57294e-20
ExecutionTime = 23.52 s  ClockTime = 23 s

End

