/*---------------------------------------------------------------------------*\
  =========                 |
  \\      /  F ield         | OpenFOAM: The Open Source CFD Toolbox
   \\    /   O peration     | Website:  https://openfoam.org
    \\  /    A nd           | Version:  8
     \\/     M anipulation  |
\*---------------------------------------------------------------------------*/
Build  : 8-13d66902f78c
Exec   : icoFoam
Date   : Jul 14 2021
Time   : 01:17:09
Host   : "uc2n399.localdomain"
PID    : 4091454
I/O    : uncollated
Case   : /pfs/data5/home/kit/scc/nq7776/code/OGL_DATA/lidDrivenCavity3D/v0.1-136-g40fef35/f584ccac99/IntelXeonGold6230CPU@2.10GHz/Test_2021-07-14-01:16:21/25/p-U-BiCGStab-GKO-none-omp/lidDrivenCavity3D
nProcs : 1
sigFpe : Enabling floating point exception trapping (FOAM_SIGFPE).
fileModificationChecking : Monitoring run-time modified files using timeStampMaster (fileModificationSkew 10)
allowSystemOperations : Allowing user-supplied system call operations

// * * * * * * * * * * * * * * * * * * * * * * * * * * * * * * * * * * * * * //
Create time

Create mesh for time = 0

Reading transportProperties

Reading field p

Reading field U

Reading/calculating face flux field phi


Starting time loop

Time = 0.004

Courant Number mean: 0 max: 0
[OGL LOG] init_host_sparsity_pattern : 4 ms
[OGL LOG] matrix not stored update host matrix
[OGL LOG] update_host_mtx : 2 ms
[OGL LOG] matrix is not yet sorted, compute sorting idxs
[OGL LOG] compute_sort : 98 ms
[OGL LOG] matrix is not yet sorted, sorting host matrix
[OGL LOG] sort_host_mtx_sparsity_pattern : 2 ms
[OGL LOG] sort_host_mtx : 1 ms
[OGL LOG] init_preconditioner : 0 ms
[OGL LOG] solve : 29 ms
noneompGKOBiCGStab:  Solving for Ux, Initial residual = 1, Final residual = 7.65409e-07, No Iterations 28
[OGL LOG] init_host_sparsity_pattern : 4 ms
[OGL LOG] matrix not stored update host matrix
[OGL LOG] update_host_mtx : 2 ms
[OGL LOG] matrix is not yet sorted, sorting host matrix
[OGL LOG] sort_host_mtx_sparsity_pattern : 2 ms
[OGL LOG] sort_host_mtx : 1 ms
[OGL LOG] init_preconditioner : 0 ms
[OGL LOG] solve : 1 ms
noneompGKOBiCGStab:  Solving for Uy, Initial residual = 0, Final residual = 0, No Iterations 0
[OGL LOG] init_host_sparsity_pattern : 4 ms
[OGL LOG] matrix not stored update host matrix
[OGL LOG] update_host_mtx : 1 ms
[OGL LOG] matrix is not yet sorted, sorting host matrix
[OGL LOG] sort_host_mtx_sparsity_pattern : 2 ms
[OGL LOG] sort_host_mtx : 1 ms
[OGL LOG] init_preconditioner : 0 ms
[OGL LOG] solve : 1 ms
noneompGKOBiCGStab:  Solving for Uz, Initial residual = 0, Final residual = 0, No Iterations 0
[OGL LOG] init_host_sparsity_pattern : 4 ms
[OGL LOG] matrix not stored update host matrix
[OGL LOG] update_host_mtx : 1 ms
[OGL LOG] matrix is not yet sorted, sorting host matrix
[OGL LOG] sort_host_mtx_sparsity_pattern : 2 ms
[OGL LOG] sort_host_mtx : 1 ms
[OGL LOG] init_preconditioner : 0 ms
[OGL LOG] solve : 170 ms
noneompGKOBiCGStab:  Solving for p, Initial residual = 1, Final residual = 8.85803e-07, No Iterations 175
time step continuity errors : sum local = 1.12323e-08, global = -5.98081e-20, cumulative = -5.98081e-20
[OGL LOG] init_preconditioner : 0 ms
[OGL LOG] solve : 173 ms
noneompGKOBiCGStab:  Solving for p, Initial residual = 0.644085, Final residual = 7.67945e-07, No Iterations 171
time step continuity errors : sum local = 2.69469e-08, global = -4.42786e-20, cumulative = -1.04087e-19
ExecutionTime = 0.63 s  ClockTime = 1 s

Time = 0.008

Courant Number mean: 0.0870974 max: 0.619854
[OGL LOG] init_host_sparsity_pattern : 4 ms
[OGL LOG] matrix not stored update host matrix
[OGL LOG] update_host_mtx : 1 ms
[OGL LOG] matrix is not yet sorted, sorting host matrix
[OGL LOG] sort_host_mtx_sparsity_pattern : 2 ms
[OGL LOG] sort_host_mtx : 1 ms
[OGL LOG] init_preconditioner : 0 ms
[OGL LOG] solve : 26 ms
noneompGKOBiCGStab:  Solving for Ux, Initial residual = 0.238941, Final residual = 6.81759e-07, No Iterations 25
[OGL LOG] init_host_sparsity_pattern : 4 ms
[OGL LOG] matrix not stored update host matrix
[OGL LOG] update_host_mtx : 1 ms
[OGL LOG] matrix is not yet sorted, sorting host matrix
[OGL LOG] sort_host_mtx_sparsity_pattern : 2 ms
[OGL LOG] sort_host_mtx : 1 ms
[OGL LOG] init_preconditioner : 0 ms
[OGL LOG] solve : 27 ms
noneompGKOBiCGStab:  Solving for Uy, Initial residual = 0.615476, Final residual = 9.88661e-07, No Iterations 27
[OGL LOG] init_host_sparsity_pattern : 4 ms
[OGL LOG] matrix not stored update host matrix
[OGL LOG] update_host_mtx : 1 ms
[OGL LOG] matrix is not yet sorted, sorting host matrix
[OGL LOG] sort_host_mtx_sparsity_pattern : 2 ms
[OGL LOG] sort_host_mtx : 1 ms
[OGL LOG] init_preconditioner : 0 ms
[OGL LOG] solve : 24 ms
noneompGKOBiCGStab:  Solving for Uz, Initial residual = 0.391969, Final residual = 9.25525e-07, No Iterations 24
[OGL LOG] init_preconditioner : 0 ms
[OGL LOG] solve : 170 ms
noneompGKOBiCGStab:  Solving for p, Initial residual = 0.527356, Final residual = 8.29046e-07, No Iterations 166
time step continuity errors : sum local = 1.70854e-08, global = -3.40534e-20, cumulative = -1.3814e-19
[OGL LOG] init_preconditioner : 0 ms
[OGL LOG] solve : 161 ms
noneompGKOBiCGStab:  Solving for p, Initial residual = 0.437516, Final residual = 7.83325e-08, No Iterations 160
time step continuity errors : sum local = 9.26897e-10, global = 3.04516e-21, cumulative = -1.35095e-19
ExecutionTime = 1.08 s  ClockTime = 1 s

Time = 0.012

Courant Number mean: 0.127403 max: 0.798793
[OGL LOG] init_host_sparsity_pattern : 4 ms
[OGL LOG] matrix not stored update host matrix
[OGL LOG] update_host_mtx : 1 ms
[OGL LOG] matrix is not yet sorted, sorting host matrix
[OGL LOG] sort_host_mtx_sparsity_pattern : 2 ms
[OGL LOG] sort_host_mtx : 1 ms
[OGL LOG] init_preconditioner : 0 ms
[OGL LOG] solve : 23 ms
noneompGKOBiCGStab:  Solving for Ux, Initial residual = 0.0920557, Final residual = 9.86915e-07, No Iterations 22
[OGL LOG] init_host_sparsity_pattern : 4 ms
[OGL LOG] matrix not stored update host matrix
[OGL LOG] update_host_mtx : 1 ms
[OGL LOG] matrix is not yet sorted, sorting host matrix
[OGL LOG] sort_host_mtx_sparsity_pattern : 2 ms
[OGL LOG] sort_host_mtx : 1 ms
[OGL LOG] init_preconditioner : 0 ms
[OGL LOG] solve : 22 ms
noneompGKOBiCGStab:  Solving for Uy, Initial residual = 0.145844, Final residual = 9.76297e-07, No Iterations 22
[OGL LOG] init_host_sparsity_pattern : 4 ms
[OGL LOG] matrix not stored update host matrix
[OGL LOG] update_host_mtx : 1 ms
[OGL LOG] matrix is not yet sorted, sorting host matrix
[OGL LOG] sort_host_mtx_sparsity_pattern : 2 ms
[OGL LOG] sort_host_mtx : 1 ms
[OGL LOG] init_preconditioner : 0 ms
[OGL LOG] solve : 24 ms
noneompGKOBiCGStab:  Solving for Uz, Initial residual = 0.339752, Final residual = 9.49328e-07, No Iterations 24
[OGL LOG] init_preconditioner : 0 ms
[OGL LOG] solve : 168 ms
noneompGKOBiCGStab:  Solving for p, Initial residual = 0.305736, Final residual = 9.59299e-07, No Iterations 168
time step continuity errors : sum local = 8.57315e-09, global = 4.73003e-21, cumulative = -1.30365e-19
[OGL LOG] init_preconditioner : 0 ms
[OGL LOG] solve : 168 ms
noneompGKOBiCGStab:  Solving for p, Initial residual = 0.265164, Final residual = 8.54435e-07, No Iterations 167
time step continuity errors : sum local = 1.59829e-08, global = 1.1367e-19, cumulative = -1.66948e-20
ExecutionTime = 1.53 s  ClockTime = 1 s

Time = 0.016

Courant Number mean: 0.145254 max: 0.82722
[OGL LOG] init_host_sparsity_pattern : 4 ms
[OGL LOG] matrix not stored update host matrix
[OGL LOG] update_host_mtx : 1 ms
[OGL LOG] matrix is not yet sorted, sorting host matrix
[OGL LOG] sort_host_mtx_sparsity_pattern : 2 ms
[OGL LOG] sort_host_mtx : 1 ms
[OGL LOG] init_preconditioner : 0 ms
[OGL LOG] solve : 19 ms
noneompGKOBiCGStab:  Solving for Ux, Initial residual = 0.0235069, Final residual = 9.57642e-07, No Iterations 19
[OGL LOG] init_host_sparsity_pattern : 4 ms
[OGL LOG] matrix not stored update host matrix
[OGL LOG] update_host_mtx : 2 ms
[OGL LOG] matrix is not yet sorted, sorting host matrix
[OGL LOG] sort_host_mtx_sparsity_pattern : 2 ms
[OGL LOG] sort_host_mtx : 1 ms
[OGL LOG] init_preconditioner : 0 ms
[OGL LOG] solve : 23 ms
noneompGKOBiCGStab:  Solving for Uy, Initial residual = 0.0608559, Final residual = 8.97519e-07, No Iterations 22
[OGL LOG] init_host_sparsity_pattern : 4 ms
[OGL LOG] matrix not stored update host matrix
[OGL LOG] update_host_mtx : 2 ms
[OGL LOG] matrix is not yet sorted, sorting host matrix
[OGL LOG] sort_host_mtx_sparsity_pattern : 2 ms
[OGL LOG] sort_host_mtx : 1 ms
[OGL LOG] init_preconditioner : 0 ms
[OGL LOG] solve : 24 ms
noneompGKOBiCGStab:  Solving for Uz, Initial residual = 0.184476, Final residual = 8.03041e-07, No Iterations 23
[OGL LOG] init_preconditioner : 0 ms
[OGL LOG] solve : 172 ms
noneompGKOBiCGStab:  Solving for p, Initial residual = 0.239455, Final residual = 8.0259e-07, No Iterations 172
time step continuity errors : sum local = 8.14875e-09, global = 2.70788e-20, cumulative = 1.0384e-20
[OGL LOG] init_preconditioner : 0 ms
[OGL LOG] solve : 155 ms
noneompGKOBiCGStab:  Solving for p, Initial residual = 0.222252, Final residual = 9.5034e-07, No Iterations 154
time step continuity errors : sum local = 9.13967e-09, global = -2.31444e-20, cumulative = -1.27604e-20
ExecutionTime = 1.96 s  ClockTime = 2 s

Time = 0.02

Courant Number mean: 0.157058 max: 0.845845
[OGL LOG] init_host_sparsity_pattern : 4 ms
[OGL LOG] matrix not stored update host matrix
[OGL LOG] update_host_mtx : 1 ms
[OGL LOG] matrix is not yet sorted, sorting host matrix
[OGL LOG] sort_host_mtx_sparsity_pattern : 2 ms
[OGL LOG] sort_host_mtx : 1 ms
[OGL LOG] init_preconditioner : 0 ms
[OGL LOG] solve : 18 ms
noneompGKOBiCGStab:  Solving for Ux, Initial residual = 0.0150185, Final residual = 9.60801e-07, No Iterations 18
[OGL LOG] init_host_sparsity_pattern : 4 ms
[OGL LOG] matrix not stored update host matrix
[OGL LOG] update_host_mtx : 1 ms
[OGL LOG] matrix is not yet sorted, sorting host matrix
[OGL LOG] sort_host_mtx_sparsity_pattern : 2 ms
[OGL LOG] sort_host_mtx : 1 ms
[OGL LOG] init_preconditioner : 0 ms
[OGL LOG] solve : 20 ms
noneompGKOBiCGStab:  Solving for Uy, Initial residual = 0.0280964, Final residual = 9.90691e-07, No Iterations 20
[OGL LOG] init_host_sparsity_pattern : 4 ms
[OGL LOG] matrix not stored update host matrix
[OGL LOG] update_host_mtx : 1 ms
[OGL LOG] matrix is not yet sorted, sorting host matrix
[OGL LOG] sort_host_mtx_sparsity_pattern : 2 ms
[OGL LOG] sort_host_mtx : 1 ms
[OGL LOG] init_preconditioner : 0 ms
[OGL LOG] solve : 21 ms
noneompGKOBiCGStab:  Solving for Uz, Initial residual = 0.0757764, Final residual = 9.72545e-07, No Iterations 21
[OGL LOG] init_preconditioner : 0 ms
[OGL LOG] solve : 154 ms
noneompGKOBiCGStab:  Solving for p, Initial residual = 0.234836, Final residual = 8.85144e-07, No Iterations 159
time step continuity errors : sum local = 1.70565e-08, global = -2.12761e-20, cumulative = -3.40365e-20
[OGL LOG] init_preconditioner : 0 ms
[OGL LOG] solve : 159 ms
noneompGKOBiCGStab:  Solving for p, Initial residual = 0.233069, Final residual = 7.2676e-07, No Iterations 158
time step continuity errors : sum local = 2.38206e-08, global = -9.26035e-20, cumulative = -1.2664e-19
ExecutionTime = 2.39 s  ClockTime = 2 s

End

