/*---------------------------------------------------------------------------*\
  =========                 |
  \\      /  F ield         | OpenFOAM: The Open Source CFD Toolbox
   \\    /   O peration     | Website:  https://openfoam.org
    \\  /    A nd           | Version:  8
     \\/     M anipulation  |
\*---------------------------------------------------------------------------*/
Build  : 8-13d66902f78c
Exec   : icoFoam
Date   : Jul 12 2021
Time   : 13:27:04
Host   : "uc2n400.localdomain"
PID    : 3894997
I/O    : uncollated
Case   : /pfs/data5/home/kit/scc/nq7776/code/OGL_DATA/lidDrivenCavity3D/v0.1-136-g40fef35/f584ccac99/IntelXeonGold6230CPU@2.10GHz/Test_2021-07-12-12:50:00/75/p-U-BiCGStab-GKO-none-omp/lidDrivenCavity3D
nProcs : 1
sigFpe : Enabling floating point exception trapping (FOAM_SIGFPE).
fileModificationChecking : Monitoring run-time modified files using timeStampMaster (fileModificationSkew 10)
allowSystemOperations : Allowing user-supplied system call operations

// * * * * * * * * * * * * * * * * * * * * * * * * * * * * * * * * * * * * * //
Create time

Create mesh for time = 0

Reading transportProperties

Reading field p

Reading field U

Reading/calculating face flux field phi


Starting time loop

Time = 0.00133333

Courant Number mean: 0 max: 0
[OGL LOG] init_host_sparsity_pattern : 121 ms
[OGL LOG] matrix not stored update host matrix
[OGL LOG] update_host_mtx : 61 ms
[OGL LOG] matrix is not yet sorted, compute sorting idxs
[OGL LOG] compute_sort : 3636 ms
[OGL LOG] matrix is not yet sorted, sorting host matrix
[OGL LOG] sort_host_mtx_sparsity_pattern : 77 ms
[OGL LOG] sort_host_mtx : 51 ms
[OGL LOG] init_preconditioner : 0 ms
[OGL LOG] solve : 919 ms
noneompGKOBiCGStab:  Solving for Ux, Initial residual = 1, Final residual = 3.51283e-07, No Iterations 51
[OGL LOG] init_host_sparsity_pattern : 118 ms
[OGL LOG] matrix not stored update host matrix
[OGL LOG] update_host_mtx : 61 ms
[OGL LOG] matrix is not yet sorted, sorting host matrix
[OGL LOG] sort_host_mtx_sparsity_pattern : 81 ms
[OGL LOG] sort_host_mtx : 44 ms
[OGL LOG] init_preconditioner : 0 ms
[OGL LOG] solve : 22 ms
noneompGKOBiCGStab:  Solving for Uy, Initial residual = 0, Final residual = 0, No Iterations 0
[OGL LOG] init_host_sparsity_pattern : 112 ms
[OGL LOG] matrix not stored update host matrix
[OGL LOG] update_host_mtx : 53 ms
[OGL LOG] matrix is not yet sorted, sorting host matrix
[OGL LOG] sort_host_mtx_sparsity_pattern : 80 ms
[OGL LOG] sort_host_mtx : 43 ms
[OGL LOG] init_preconditioner : 0 ms
[OGL LOG] solve : 19 ms
noneompGKOBiCGStab:  Solving for Uz, Initial residual = 0, Final residual = 0, No Iterations 0
[OGL LOG] init_host_sparsity_pattern : 112 ms
[OGL LOG] matrix not stored update host matrix
[OGL LOG] update_host_mtx : 62 ms
[OGL LOG] matrix is not yet sorted, sorting host matrix
[OGL LOG] sort_host_mtx_sparsity_pattern : 80 ms
[OGL LOG] sort_host_mtx : 43 ms
[OGL LOG] init_preconditioner : 0 ms
[OGL LOG] solve : 10197 ms
noneompGKOBiCGStab:  Solving for p, Initial residual = 1, Final residual = 9.01179e-07, No Iterations 566
time step continuity errors : sum local = 1.4745e-08, global = -1.94558e-21, cumulative = -1.94558e-21
[OGL LOG] init_preconditioner : 0 ms
[OGL LOG] solve : 8906 ms
noneompGKOBiCGStab:  Solving for p, Initial residual = 0.759334, Final residual = 2.90363e-07, No Iterations 516
time step continuity errors : sum local = 2.72101e-07, global = -3.76898e-21, cumulative = -5.71456e-21
ExecutionTime = 47.02 s  ClockTime = 27 s

Time = 0.00266667

Courant Number mean: 0.063177 max: 0.775366
[OGL LOG] init_host_sparsity_pattern : 112 ms
[OGL LOG] matrix not stored update host matrix
[OGL LOG] update_host_mtx : 54 ms
[OGL LOG] matrix is not yet sorted, sorting host matrix
[OGL LOG] sort_host_mtx_sparsity_pattern : 76 ms
[OGL LOG] sort_host_mtx : 44 ms
[OGL LOG] init_preconditioner : 0 ms
[OGL LOG] solve : 809 ms
noneompGKOBiCGStab:  Solving for Ux, Initial residual = 0.183072, Final residual = 6.23842e-07, No Iterations 45
[OGL LOG] init_host_sparsity_pattern : 112 ms
[OGL LOG] matrix not stored update host matrix
[OGL LOG] update_host_mtx : 54 ms
[OGL LOG] matrix is not yet sorted, sorting host matrix
[OGL LOG] sort_host_mtx_sparsity_pattern : 72 ms
[OGL LOG] sort_host_mtx : 43 ms
[OGL LOG] init_preconditioner : 0 ms
[OGL LOG] solve : 837 ms
noneompGKOBiCGStab:  Solving for Uy, Initial residual = 0.619591, Final residual = 9.18723e-07, No Iterations 47
[OGL LOG] init_host_sparsity_pattern : 112 ms
[OGL LOG] matrix not stored update host matrix
[OGL LOG] update_host_mtx : 53 ms
[OGL LOG] matrix is not yet sorted, sorting host matrix
[OGL LOG] sort_host_mtx_sparsity_pattern : 72 ms
[OGL LOG] sort_host_mtx : 43 ms
[OGL LOG] init_preconditioner : 0 ms
[OGL LOG] solve : 846 ms
noneompGKOBiCGStab:  Solving for Uz, Initial residual = 0.606084, Final residual = 5.78011e-07, No Iterations 47
[OGL LOG] init_preconditioner : 0 ms
[OGL LOG] solve : 9310 ms
noneompGKOBiCGStab:  Solving for p, Initial residual = 0.749122, Final residual = 7.20987e-07, No Iterations 524
time step continuity errors : sum local = 2.89395e-08, global = 1.62139e-20, cumulative = 1.04993e-20
[OGL LOG] init_preconditioner : 0 ms
[OGL LOG] solve : 9563 ms
noneompGKOBiCGStab:  Solving for p, Initial residual = 0.683861, Final residual = 7.97719e-07, No Iterations 537
time step continuity errors : sum local = 6.24764e-08, global = 6.75041e-21, cumulative = 1.72498e-20
ExecutionTime = 90.95 s  ClockTime = 50 s

Time = 0.004

Courant Number mean: 0.095148 max: 0.917101
[OGL LOG] init_host_sparsity_pattern : 112 ms
[OGL LOG] matrix not stored update host matrix
[OGL LOG] update_host_mtx : 55 ms
[OGL LOG] matrix is not yet sorted, sorting host matrix
[OGL LOG] sort_host_mtx_sparsity_pattern : 80 ms
[OGL LOG] sort_host_mtx : 44 ms
[OGL LOG] init_preconditioner : 0 ms
[OGL LOG] solve : 765 ms
noneompGKOBiCGStab:  Solving for Ux, Initial residual = 0.102007, Final residual = 6.58194e-07, No Iterations 43
[OGL LOG] init_host_sparsity_pattern : 112 ms
[OGL LOG] matrix not stored update host matrix
[OGL LOG] update_host_mtx : 53 ms
[OGL LOG] matrix is not yet sorted, sorting host matrix
[OGL LOG] sort_host_mtx_sparsity_pattern : 73 ms
[OGL LOG] sort_host_mtx : 43 ms
[OGL LOG] init_preconditioner : 0 ms
[OGL LOG] solve : 807 ms
noneompGKOBiCGStab:  Solving for Uy, Initial residual = 0.335301, Final residual = 6.50539e-07, No Iterations 45
[OGL LOG] init_host_sparsity_pattern : 112 ms
[OGL LOG] matrix not stored update host matrix
[OGL LOG] update_host_mtx : 53 ms
[OGL LOG] matrix is not yet sorted, sorting host matrix
[OGL LOG] sort_host_mtx_sparsity_pattern : 73 ms
[OGL LOG] sort_host_mtx : 43 ms
[OGL LOG] init_preconditioner : 0 ms
[OGL LOG] solve : 824 ms
noneompGKOBiCGStab:  Solving for Uz, Initial residual = 0.923845, Final residual = 7.21305e-07, No Iterations 46
[OGL LOG] init_preconditioner : 0 ms
[OGL LOG] solve : 9433 ms
noneompGKOBiCGStab:  Solving for p, Initial residual = 0.754758, Final residual = 5.05059e-07, No Iterations 532
time step continuity errors : sum local = 1.19339e-07, global = -1.17336e-20, cumulative = 5.51618e-21
[OGL LOG] init_preconditioner : 0 ms
[OGL LOG] solve : 9855 ms
noneompGKOBiCGStab:  Solving for p, Initial residual = 0.716966, Final residual = 9.60212e-07, No Iterations 553
time step continuity errors : sum local = 6.88951e-09, global = 1.86264e-21, cumulative = 7.37883e-21
ExecutionTime = 135.52 s  ClockTime = 73 s

Time = 0.00533333

Courant Number mean: 0.109256 max: 0.913436
[OGL LOG] init_host_sparsity_pattern : 114 ms
[OGL LOG] matrix not stored update host matrix
[OGL LOG] update_host_mtx : 55 ms
[OGL LOG] matrix is not yet sorted, sorting host matrix
[OGL LOG] sort_host_mtx_sparsity_pattern : 86 ms
[OGL LOG] sort_host_mtx : 46 ms
[OGL LOG] init_preconditioner : 0 ms
[OGL LOG] solve : 678 ms
noneompGKOBiCGStab:  Solving for Ux, Initial residual = 0.044715, Final residual = 9.67388e-07, No Iterations 39
[OGL LOG] init_host_sparsity_pattern : 114 ms
[OGL LOG] matrix not stored update host matrix
[OGL LOG] update_host_mtx : 53 ms
[OGL LOG] matrix is not yet sorted, sorting host matrix
[OGL LOG] sort_host_mtx_sparsity_pattern : 72 ms
[OGL LOG] sort_host_mtx : 43 ms
[OGL LOG] init_preconditioner : 0 ms
[OGL LOG] solve : 817 ms
noneompGKOBiCGStab:  Solving for Uy, Initial residual = 0.197594, Final residual = 5.67322e-07, No Iterations 45
[OGL LOG] init_host_sparsity_pattern : 112 ms
[OGL LOG] matrix not stored update host matrix
[OGL LOG] update_host_mtx : 53 ms
[OGL LOG] matrix is not yet sorted, sorting host matrix
[OGL LOG] sort_host_mtx_sparsity_pattern : 72 ms
[OGL LOG] sort_host_mtx : 43 ms
[OGL LOG] init_preconditioner : 0 ms
[OGL LOG] solve : 790 ms
noneompGKOBiCGStab:  Solving for Uz, Initial residual = 0.734719, Final residual = 9.39168e-07, No Iterations 43
[OGL LOG] init_preconditioner : 0 ms
[OGL LOG] solve : 9288 ms
noneompGKOBiCGStab:  Solving for p, Initial residual = 0.61746, Final residual = 1.4357e-07, No Iterations 522
time step continuity errors : sum local = 7.74322e-08, global = -6.9854e-21, cumulative = 3.93424e-22
[OGL LOG] init_preconditioner : 0 ms
[OGL LOG] solve : 9721 ms
noneompGKOBiCGStab:  Solving for p, Initial residual = 0.554812, Final residual = 6.49475e-07, No Iterations 546
time step continuity errors : sum local = 1.71553e-07, global = -1.41952e-20, cumulative = -1.38018e-20
ExecutionTime = 179.34 s  ClockTime = 95 s

Time = 0.00666667

Courant Number mean: 0.122086 max: 0.929085
[OGL LOG] init_host_sparsity_pattern : 112 ms
[OGL LOG] matrix not stored update host matrix
[OGL LOG] update_host_mtx : 54 ms
[OGL LOG] matrix is not yet sorted, sorting host matrix
[OGL LOG] sort_host_mtx_sparsity_pattern : 80 ms
[OGL LOG] sort_host_mtx : 44 ms
[OGL LOG] init_preconditioner : 0 ms
[OGL LOG] solve : 718 ms
noneompGKOBiCGStab:  Solving for Ux, Initial residual = 0.0318944, Final residual = 8.38653e-07, No Iterations 39
[OGL LOG] init_host_sparsity_pattern : 112 ms
[OGL LOG] matrix not stored update host matrix
[OGL LOG] update_host_mtx : 53 ms
[OGL LOG] matrix is not yet sorted, sorting host matrix
[OGL LOG] sort_host_mtx_sparsity_pattern : 72 ms
[OGL LOG] sort_host_mtx : 43 ms
[OGL LOG] init_preconditioner : 0 ms
[OGL LOG] solve : 780 ms
noneompGKOBiCGStab:  Solving for Uy, Initial residual = 0.0805831, Final residual = 9.95319e-07, No Iterations 43
[OGL LOG] init_host_sparsity_pattern : 112 ms
[OGL LOG] matrix not stored update host matrix
[OGL LOG] update_host_mtx : 53 ms
[OGL LOG] matrix is not yet sorted, sorting host matrix
[OGL LOG] sort_host_mtx_sparsity_pattern : 73 ms
[OGL LOG] sort_host_mtx : 43 ms
[OGL LOG] init_preconditioner : 0 ms
[OGL LOG] solve : 880 ms
noneompGKOBiCGStab:  Solving for Uz, Initial residual = 0.514001, Final residual = 8.6434e-07, No Iterations 48
[OGL LOG] init_preconditioner : 0 ms
[OGL LOG] solve : 9721 ms
noneompGKOBiCGStab:  Solving for p, Initial residual = 0.592034, Final residual = 7.98372e-07, No Iterations 555
time step continuity errors : sum local = 4.16545e-08, global = 1.05684e-21, cumulative = -1.2745e-20
[OGL LOG] init_preconditioner : 0 ms
[OGL LOG] solve : 10249 ms
noneompGKOBiCGStab:  Solving for p, Initial residual = 0.543177, Final residual = 4.64482e-07, No Iterations 574
time step continuity errors : sum local = 1.59561e-08, global = -1.91877e-20, cumulative = -3.19327e-20
ExecutionTime = 225.27 s  ClockTime = 119 s

End

