/*---------------------------------------------------------------------------*\
  =========                 |
  \\      /  F ield         | OpenFOAM: The Open Source CFD Toolbox
   \\    /   O peration     | Website:  https://openfoam.org
    \\  /    A nd           | Version:  8
     \\/     M anipulation  |
\*---------------------------------------------------------------------------*/
Build  : 8-13d66902f78c
Exec   : icoFoam
Date   : Jul 14 2021
Time   : 01:21:57
Host   : "uc2n553.localdomain"
PID    : 756570
I/O    : uncollated
Case   : /pfs/data5/home/kit/scc/nq7776/code/OGL_DATA/lidDrivenCavity3D/v0.1-136-g40fef35/f584ccac99/IntelXeonGold6230CPU@2.10GHz/Test_2021-07-14-00:17:39/100/p-U-CG-GKO-none-omp/lidDrivenCavity3D
nProcs : 1
sigFpe : Enabling floating point exception trapping (FOAM_SIGFPE).
fileModificationChecking : Monitoring run-time modified files using timeStampMaster (fileModificationSkew 10)
allowSystemOperations : Allowing user-supplied system call operations

// * * * * * * * * * * * * * * * * * * * * * * * * * * * * * * * * * * * * * //
Create time

Create mesh for time = 0

Reading transportProperties

Reading field p

Reading field U

Reading/calculating face flux field phi


Starting time loop

Time = 0.001

Courant Number mean: 0 max: 0
[OGL LOG] init_host_sparsity_pattern : 294 ms
[OGL LOG] matrix not stored update host matrix
[OGL LOG] update_host_mtx : 146 ms
[OGL LOG] matrix is not yet sorted, compute sorting idxs
[OGL LOG] compute_sort : 8408 ms
[OGL LOG] matrix is not yet sorted, sorting host matrix
[OGL LOG] sort_host_mtx_sparsity_pattern : 185 ms
[OGL LOG] sort_host_mtx : 125 ms
[OGL LOG] init_preconditioner : 0 ms
[OGL LOG] solve : 3721 ms
noneompGKOBiCGStab:  Solving for Ux, Initial residual = 1, Final residual = 8.92714e-07, No Iterations 56
[OGL LOG] init_host_sparsity_pattern : 278 ms
[OGL LOG] matrix not stored update host matrix
[OGL LOG] update_host_mtx : 145 ms
[OGL LOG] matrix is not yet sorted, sorting host matrix
[OGL LOG] sort_host_mtx_sparsity_pattern : 193 ms
[OGL LOG] sort_host_mtx : 132 ms
[OGL LOG] init_preconditioner : 0 ms
[OGL LOG] solve : 99 ms
noneompGKOBiCGStab:  Solving for Uy, Initial residual = 0, Final residual = 0, No Iterations 0
[OGL LOG] init_host_sparsity_pattern : 267 ms
[OGL LOG] matrix not stored update host matrix
[OGL LOG] update_host_mtx : 145 ms
[OGL LOG] matrix is not yet sorted, sorting host matrix
[OGL LOG] sort_host_mtx_sparsity_pattern : 193 ms
[OGL LOG] sort_host_mtx : 124 ms
[OGL LOG] init_preconditioner : 0 ms
[OGL LOG] solve : 100 ms
noneompGKOBiCGStab:  Solving for Uz, Initial residual = 0, Final residual = 0, No Iterations 0
[OGL LOG] init_host_sparsity_pattern : 287 ms
[OGL LOG] matrix not stored update host matrix
[OGL LOG] update_host_mtx : 147 ms
[OGL LOG] matrix is not yet sorted, sorting host matrix
[OGL LOG] sort_host_mtx_sparsity_pattern : 191 ms
[OGL LOG] sort_host_mtx : 124 ms
[OGL LOG] init_preconditioner : 0 ms
[OGL LOG] solve : 29215 ms
noneompGKOCG:  Solving for p, Initial residual = 1, Final residual = 9.84208e-07, No Iterations 900
time step continuity errors : sum local = 5.90082e-10, global = -8.95303e-21, cumulative = -8.95303e-21
[OGL LOG] init_preconditioner : 0 ms
[OGL LOG] solve : 29115 ms
noneompGKOCG:  Solving for p, Initial residual = 0.783585, Final residual = 9.5502e-07, No Iterations 893
time step continuity errors : sum local = 7.1584e-10, global = 7.31783e-21, cumulative = -1.6352e-21
ExecutionTime = 78.33 s  ClockTime = 78 s

Time = 0.002

Courant Number mean: 0.0571435 max: 0.804774
[OGL LOG] init_host_sparsity_pattern : 275 ms
[OGL LOG] matrix not stored update host matrix
[OGL LOG] update_host_mtx : 127 ms
[OGL LOG] matrix is not yet sorted, sorting host matrix
[OGL LOG] sort_host_mtx_sparsity_pattern : 195 ms
[OGL LOG] sort_host_mtx : 125 ms
[OGL LOG] init_preconditioner : 0 ms
[OGL LOG] solve : 3574 ms
noneompGKOBiCGStab:  Solving for Ux, Initial residual = 0.169075, Final residual = 5.6465e-07, No Iterations 54
[OGL LOG] init_host_sparsity_pattern : 267 ms
[OGL LOG] matrix not stored update host matrix
[OGL LOG] update_host_mtx : 126 ms
[OGL LOG] matrix is not yet sorted, sorting host matrix
[OGL LOG] sort_host_mtx_sparsity_pattern : 194 ms
[OGL LOG] sort_host_mtx : 125 ms
[OGL LOG] init_preconditioner : 0 ms
[OGL LOG] solve : 3572 ms
noneompGKOBiCGStab:  Solving for Uy, Initial residual = 0.620181, Final residual = 9.74724e-07, No Iterations 54
[OGL LOG] init_host_sparsity_pattern : 266 ms
[OGL LOG] matrix not stored update host matrix
[OGL LOG] update_host_mtx : 126 ms
[OGL LOG] matrix is not yet sorted, sorting host matrix
[OGL LOG] sort_host_mtx_sparsity_pattern : 202 ms
[OGL LOG] sort_host_mtx : 125 ms
[OGL LOG] init_preconditioner : 0 ms
[OGL LOG] solve : 3931 ms
noneompGKOBiCGStab:  Solving for Uz, Initial residual = 0.646977, Final residual = 9.30435e-07, No Iterations 59
[OGL LOG] init_preconditioner : 0 ms
[OGL LOG] solve : 28776 ms
noneompGKOCG:  Solving for p, Initial residual = 0.798451, Final residual = 9.80553e-07, No Iterations 884
time step continuity errors : sum local = 9.9712e-10, global = 4.76405e-21, cumulative = 3.12885e-21
[OGL LOG] init_preconditioner : 0 ms
[OGL LOG] solve : 28369 ms
noneompGKOCG:  Solving for p, Initial residual = 0.738605, Final residual = 9.64516e-07, No Iterations 872
time step continuity errors : sum local = 1.00192e-09, global = 1.2448e-21, cumulative = 4.37365e-21
ExecutionTime = 149.66 s  ClockTime = 150 s

Time = 0.003

Courant Number mean: 0.0867391 max: 0.944826
[OGL LOG] init_host_sparsity_pattern : 267 ms
[OGL LOG] matrix not stored update host matrix
[OGL LOG] update_host_mtx : 127 ms
[OGL LOG] matrix is not yet sorted, sorting host matrix
[OGL LOG] sort_host_mtx_sparsity_pattern : 193 ms
[OGL LOG] sort_host_mtx : 124 ms
[OGL LOG] init_preconditioner : 0 ms
[OGL LOG] solve : 3286 ms
noneompGKOBiCGStab:  Solving for Ux, Initial residual = 0.102638, Final residual = 9.89405e-07, No Iterations 49
[OGL LOG] init_host_sparsity_pattern : 267 ms
[OGL LOG] matrix not stored update host matrix
[OGL LOG] update_host_mtx : 126 ms
[OGL LOG] matrix is not yet sorted, sorting host matrix
[OGL LOG] sort_host_mtx_sparsity_pattern : 193 ms
[OGL LOG] sort_host_mtx : 125 ms
[OGL LOG] init_preconditioner : 0 ms
[OGL LOG] solve : 3639 ms
noneompGKOBiCGStab:  Solving for Uy, Initial residual = 0.396946, Final residual = 6.69483e-07, No Iterations 55
[OGL LOG] init_host_sparsity_pattern : 266 ms
[OGL LOG] matrix not stored update host matrix
[OGL LOG] update_host_mtx : 135 ms
[OGL LOG] matrix is not yet sorted, sorting host matrix
[OGL LOG] sort_host_mtx_sparsity_pattern : 194 ms
[OGL LOG] sort_host_mtx : 124 ms
[OGL LOG] init_preconditioner : 0 ms
[OGL LOG] solve : 3385 ms
noneompGKOBiCGStab:  Solving for Uz, Initial residual = 1.00087, Final residual = 9.73899e-07, No Iterations 51
[OGL LOG] init_preconditioner : 0 ms
[OGL LOG] solve : 28917 ms
noneompGKOCG:  Solving for p, Initial residual = 0.832647, Final residual = 9.52824e-07, No Iterations 890
time step continuity errors : sum local = 9.17871e-10, global = -3.18027e-21, cumulative = 1.19338e-21
[OGL LOG] init_preconditioner : 0 ms
[OGL LOG] solve : 28869 ms
noneompGKOCG:  Solving for p, Initial residual = 0.802905, Final residual = 9.82875e-07, No Iterations 888
time step continuity errors : sum local = 9.23146e-10, global = 1.64265e-20, cumulative = 1.76198e-20
ExecutionTime = 220.86 s  ClockTime = 221 s

Time = 0.004

Courant Number mean: 0.0995267 max: 0.926351
[OGL LOG] init_host_sparsity_pattern : 266 ms
[OGL LOG] matrix not stored update host matrix
[OGL LOG] update_host_mtx : 126 ms
[OGL LOG] matrix is not yet sorted, sorting host matrix
[OGL LOG] sort_host_mtx_sparsity_pattern : 194 ms
[OGL LOG] sort_host_mtx : 125 ms
[OGL LOG] init_preconditioner : 0 ms
[OGL LOG] solve : 2862 ms
noneompGKOBiCGStab:  Solving for Ux, Initial residual = 0.0541604, Final residual = 8.87363e-07, No Iterations 43
[OGL LOG] init_host_sparsity_pattern : 267 ms
[OGL LOG] matrix not stored update host matrix
[OGL LOG] update_host_mtx : 126 ms
[OGL LOG] matrix is not yet sorted, sorting host matrix
[OGL LOG] sort_host_mtx_sparsity_pattern : 193 ms
[OGL LOG] sort_host_mtx : 125 ms
[OGL LOG] init_preconditioner : 0 ms
[OGL LOG] solve : 3258 ms
noneompGKOBiCGStab:  Solving for Uy, Initial residual = 0.255021, Final residual = 8.75835e-07, No Iterations 49
[OGL LOG] init_host_sparsity_pattern : 266 ms
[OGL LOG] matrix not stored update host matrix
[OGL LOG] update_host_mtx : 126 ms
[OGL LOG] matrix is not yet sorted, sorting host matrix
[OGL LOG] sort_host_mtx_sparsity_pattern : 193 ms
[OGL LOG] sort_host_mtx : 125 ms
[OGL LOG] init_preconditioner : 0 ms
[OGL LOG] solve : 3383 ms
noneompGKOBiCGStab:  Solving for Uz, Initial residual = 0.873007, Final residual = 9.90628e-07, No Iterations 51
[OGL LOG] init_preconditioner : 0 ms
[OGL LOG] solve : 29045 ms
noneompGKOCG:  Solving for p, Initial residual = 0.750171, Final residual = 9.59243e-07, No Iterations 889
time step continuity errors : sum local = 8.53592e-10, global = 1.82442e-20, cumulative = 3.58641e-20
[OGL LOG] init_preconditioner : 0 ms
[OGL LOG] solve : 28805 ms
noneompGKOCG:  Solving for p, Initial residual = 0.685317, Final residual = 9.85407e-07, No Iterations 886
time step continuity errors : sum local = 8.93469e-10, global = 5.93767e-21, cumulative = 4.18017e-20
ExecutionTime = 291.15 s  ClockTime = 292 s

Time = 0.005

Courant Number mean: 0.112163 max: 0.946348
[OGL LOG] init_host_sparsity_pattern : 268 ms
[OGL LOG] matrix not stored update host matrix
[OGL LOG] update_host_mtx : 138 ms
[OGL LOG] matrix is not yet sorted, sorting host matrix
[OGL LOG] sort_host_mtx_sparsity_pattern : 194 ms
[OGL LOG] sort_host_mtx : 125 ms
[OGL LOG] init_preconditioner : 0 ms
[OGL LOG] solve : 3182 ms
noneompGKOBiCGStab:  Solving for Ux, Initial residual = 0.0411813, Final residual = 6.72361e-07, No Iterations 48
[OGL LOG] init_host_sparsity_pattern : 276 ms
[OGL LOG] matrix not stored update host matrix
[OGL LOG] update_host_mtx : 130 ms
[OGL LOG] matrix is not yet sorted, sorting host matrix
[OGL LOG] sort_host_mtx_sparsity_pattern : 194 ms
[OGL LOG] sort_host_mtx : 125 ms
[OGL LOG] init_preconditioner : 0 ms
[OGL LOG] solve : 3186 ms
noneompGKOBiCGStab:  Solving for Uy, Initial residual = 0.131859, Final residual = 5.24899e-07, No Iterations 48
[OGL LOG] init_host_sparsity_pattern : 267 ms
[OGL LOG] matrix not stored update host matrix
[OGL LOG] update_host_mtx : 130 ms
[OGL LOG] matrix is not yet sorted, sorting host matrix
[OGL LOG] sort_host_mtx_sparsity_pattern : 194 ms
[OGL LOG] sort_host_mtx : 125 ms
[OGL LOG] init_preconditioner : 0 ms
[OGL LOG] solve : 3576 ms
noneompGKOBiCGStab:  Solving for Uz, Initial residual = 0.871779, Final residual = 9.95451e-07, No Iterations 54
[OGL LOG] init_preconditioner : 0 ms
[OGL LOG] solve : 29215 ms
noneompGKOCG:  Solving for p, Initial residual = 0.760002, Final residual = 9.97956e-07, No Iterations 895
time step continuity errors : sum local = 7.5457e-10, global = 1.10034e-20, cumulative = 5.28052e-20
[OGL LOG] init_preconditioner : 0 ms
[OGL LOG] solve : 29275 ms
noneompGKOCG:  Solving for p, Initial residual = 0.713347, Final residual = 9.69738e-07, No Iterations 894
time step continuity errors : sum local = 7.21529e-10, global = 3.95398e-21, cumulative = 5.67591e-20
ExecutionTime = 362.93 s  ClockTime = 364 s

End

