/*---------------------------------------------------------------------------*\
  =========                 |
  \\      /  F ield         | OpenFOAM: The Open Source CFD Toolbox
   \\    /   O peration     | Website:  https://openfoam.org
    \\  /    A nd           | Version:  8
     \\/     M anipulation  |
\*---------------------------------------------------------------------------*/
Build  : 8-13d66902f78c
Exec   : icoFoam
Date   : Jul 12 2021
Time   : 13:07:37
Host   : "uc2n400.localdomain"
PID    : 3893236
I/O    : uncollated
Case   : /pfs/data5/home/kit/scc/nq7776/code/OGL_DATA/lidDrivenCavity3D/v0.1-136-g40fef35/f584ccac99/IntelXeonGold6230CPU@2.10GHz/Test_2021-07-12-12:50:00/50/p-U-BiCGStab-GKO-none-omp/lidDrivenCavity3D
nProcs : 1
sigFpe : Enabling floating point exception trapping (FOAM_SIGFPE).
fileModificationChecking : Monitoring run-time modified files using timeStampMaster (fileModificationSkew 10)
allowSystemOperations : Allowing user-supplied system call operations

// * * * * * * * * * * * * * * * * * * * * * * * * * * * * * * * * * * * * * //
Create time

Create mesh for time = 0

Reading transportProperties

Reading field p

Reading field U

Reading/calculating face flux field phi


Starting time loop

Time = 0.002

Courant Number mean: 0 max: 0
[OGL LOG] init_host_sparsity_pattern : 35 ms
[OGL LOG] matrix not stored update host matrix
[OGL LOG] update_host_mtx : 18 ms
[OGL LOG] matrix is not yet sorted, compute sorting idxs
[OGL LOG] compute_sort : 987 ms
[OGL LOG] matrix is not yet sorted, sorting host matrix
[OGL LOG] sort_host_mtx_sparsity_pattern : 24 ms
[OGL LOG] sort_host_mtx : 15 ms
[OGL LOG] init_preconditioner : 0 ms
[OGL LOG] solve : 119 ms
noneompGKOBiCGStab:  Solving for Ux, Initial residual = 1, Final residual = 8.72813e-07, No Iterations 41
[OGL LOG] init_host_sparsity_pattern : 34 ms
[OGL LOG] matrix not stored update host matrix
[OGL LOG] update_host_mtx : 18 ms
[OGL LOG] matrix is not yet sorted, sorting host matrix
[OGL LOG] sort_host_mtx_sparsity_pattern : 23 ms
[OGL LOG] sort_host_mtx : 12 ms
[OGL LOG] init_preconditioner : 0 ms
[OGL LOG] solve : 4 ms
noneompGKOBiCGStab:  Solving for Uy, Initial residual = 0, Final residual = 0, No Iterations 0
[OGL LOG] init_host_sparsity_pattern : 33 ms
[OGL LOG] matrix not stored update host matrix
[OGL LOG] update_host_mtx : 15 ms
[OGL LOG] matrix is not yet sorted, sorting host matrix
[OGL LOG] sort_host_mtx_sparsity_pattern : 23 ms
[OGL LOG] sort_host_mtx : 12 ms
[OGL LOG] init_preconditioner : 0 ms
[OGL LOG] solve : 3 ms
noneompGKOBiCGStab:  Solving for Uz, Initial residual = 0, Final residual = 0, No Iterations 0
[OGL LOG] init_host_sparsity_pattern : 33 ms
[OGL LOG] matrix not stored update host matrix
[OGL LOG] update_host_mtx : 18 ms
[OGL LOG] matrix is not yet sorted, sorting host matrix
[OGL LOG] sort_host_mtx_sparsity_pattern : 22 ms
[OGL LOG] sort_host_mtx : 14 ms
[OGL LOG] init_preconditioner : 0 ms
[OGL LOG] solve : 1061 ms
noneompGKOBiCGStab:  Solving for p, Initial residual = 1, Final residual = 8.71457e-07, No Iterations 359
time step continuity errors : sum local = 3.56916e-08, global = -1.9683e-20, cumulative = -1.9683e-20
[OGL LOG] init_preconditioner : 0 ms
[OGL LOG] solve : 1078 ms
noneompGKOBiCGStab:  Solving for p, Initial residual = 0.721588, Final residual = 9.756e-07, No Iterations 348
time step continuity errors : sum local = 1.44342e-08, global = 2.53951e-20, cumulative = 5.71215e-21
ExecutionTime = 75.71 s  ClockTime = 4 s

Time = 0.004

Courant Number mean: 0.0720722 max: 0.726639
[OGL LOG] init_host_sparsity_pattern : 33 ms
[OGL LOG] matrix not stored update host matrix
[OGL LOG] update_host_mtx : 16 ms
[OGL LOG] matrix is not yet sorted, sorting host matrix
[OGL LOG] sort_host_mtx_sparsity_pattern : 24 ms
[OGL LOG] sort_host_mtx : 12 ms
[OGL LOG] init_preconditioner : 0 ms
[OGL LOG] solve : 129 ms
noneompGKOBiCGStab:  Solving for Ux, Initial residual = 0.203469, Final residual = 9.11057e-07, No Iterations 37
[OGL LOG] init_host_sparsity_pattern : 34 ms
[OGL LOG] matrix not stored update host matrix
[OGL LOG] update_host_mtx : 15 ms
[OGL LOG] matrix is not yet sorted, sorting host matrix
[OGL LOG] sort_host_mtx_sparsity_pattern : 21 ms
[OGL LOG] sort_host_mtx : 12 ms
[OGL LOG] init_preconditioner : 0 ms
[OGL LOG] solve : 137 ms
noneompGKOBiCGStab:  Solving for Uy, Initial residual = 0.618427, Final residual = 7.16236e-07, No Iterations 39
[OGL LOG] init_host_sparsity_pattern : 34 ms
[OGL LOG] matrix not stored update host matrix
[OGL LOG] update_host_mtx : 15 ms
[OGL LOG] matrix is not yet sorted, sorting host matrix
[OGL LOG] sort_host_mtx_sparsity_pattern : 21 ms
[OGL LOG] sort_host_mtx : 12 ms
[OGL LOG] init_preconditioner : 0 ms
[OGL LOG] solve : 147 ms
noneompGKOBiCGStab:  Solving for Uz, Initial residual = 0.536426, Final residual = 7.76424e-07, No Iterations 41
[OGL LOG] init_preconditioner : 0 ms
[OGL LOG] solve : 1052 ms
noneompGKOBiCGStab:  Solving for p, Initial residual = 0.673316, Final residual = 7.26598e-07, No Iterations 339
time step continuity errors : sum local = 3.44912e-09, global = 2.21375e-20, cumulative = 2.78497e-20
[OGL LOG] init_preconditioner : 0 ms
[OGL LOG] solve : 1043 ms
noneompGKOBiCGStab:  Solving for p, Initial residual = 0.59888, Final residual = 4.95913e-07, No Iterations 349
time step continuity errors : sum local = 1.03502e-07, global = 3.46453e-20, cumulative = 6.2495e-20
ExecutionTime = 157.32 s  ClockTime = 7 s

Time = 0.006

Courant Number mean: 0.107408 max: 0.881755
[OGL LOG] init_host_sparsity_pattern : 33 ms
[OGL LOG] matrix not stored update host matrix
[OGL LOG] update_host_mtx : 17 ms
[OGL LOG] matrix is not yet sorted, sorting host matrix
[OGL LOG] sort_host_mtx_sparsity_pattern : 26 ms
[OGL LOG] sort_host_mtx : 15 ms
[OGL LOG] init_preconditioner : 0 ms
[OGL LOG] solve : 100 ms
noneompGKOBiCGStab:  Solving for Ux, Initial residual = 0.0995782, Final residual = 9.90361e-07, No Iterations 34
[OGL LOG] init_host_sparsity_pattern : 33 ms
[OGL LOG] matrix not stored update host matrix
[OGL LOG] update_host_mtx : 15 ms
[OGL LOG] matrix is not yet sorted, sorting host matrix
[OGL LOG] sort_host_mtx_sparsity_pattern : 22 ms
[OGL LOG] sort_host_mtx : 12 ms
[OGL LOG] init_preconditioner : 0 ms
[OGL LOG] solve : 104 ms
noneompGKOBiCGStab:  Solving for Uy, Initial residual = 0.249946, Final residual = 9.83649e-07, No Iterations 36
[OGL LOG] init_host_sparsity_pattern : 33 ms
[OGL LOG] matrix not stored update host matrix
[OGL LOG] update_host_mtx : 15 ms
[OGL LOG] matrix is not yet sorted, sorting host matrix
[OGL LOG] sort_host_mtx_sparsity_pattern : 22 ms
[OGL LOG] sort_host_mtx : 12 ms
[OGL LOG] init_preconditioner : 0 ms
[OGL LOG] solve : 117 ms
noneompGKOBiCGStab:  Solving for Uz, Initial residual = 0.541511, Final residual = 6.94828e-07, No Iterations 40
[OGL LOG] init_preconditioner : 0 ms
[OGL LOG] solve : 1177 ms
noneompGKOBiCGStab:  Solving for p, Initial residual = 0.6069, Final residual = 3.82203e-07, No Iterations 390
time step continuity errors : sum local = 2.89227e-08, global = -1.0504e-20, cumulative = 5.1991e-20
[OGL LOG] init_preconditioner : 0 ms
[OGL LOG] solve : 993 ms
noneompGKOBiCGStab:  Solving for p, Initial residual = 0.560833, Final residual = 6.04252e-07, No Iterations 353
time step continuity errors : sum local = 3.18016e-08, global = 4.1836e-20, cumulative = 9.3827e-20
ExecutionTime = 238.3 s  ClockTime = 10 s

Time = 0.008

Courant Number mean: 0.123244 max: 0.890102
[OGL LOG] init_host_sparsity_pattern : 32 ms
[OGL LOG] matrix not stored update host matrix
[OGL LOG] update_host_mtx : 16 ms
[OGL LOG] matrix is not yet sorted, sorting host matrix
[OGL LOG] sort_host_mtx_sparsity_pattern : 25 ms
[OGL LOG] sort_host_mtx : 12 ms
[OGL LOG] init_preconditioner : 0 ms
[OGL LOG] solve : 93 ms
noneompGKOBiCGStab:  Solving for Ux, Initial residual = 0.034146, Final residual = 8.84517e-07, No Iterations 31
[OGL LOG] init_host_sparsity_pattern : 33 ms
[OGL LOG] matrix not stored update host matrix
[OGL LOG] update_host_mtx : 15 ms
[OGL LOG] matrix is not yet sorted, sorting host matrix
[OGL LOG] sort_host_mtx_sparsity_pattern : 21 ms
[OGL LOG] sort_host_mtx : 12 ms
[OGL LOG] init_preconditioner : 0 ms
[OGL LOG] solve : 105 ms
noneompGKOBiCGStab:  Solving for Uy, Initial residual = 0.132382, Final residual = 6.6376e-07, No Iterations 36
[OGL LOG] init_host_sparsity_pattern : 33 ms
[OGL LOG] matrix not stored update host matrix
[OGL LOG] update_host_mtx : 15 ms
[OGL LOG] matrix is not yet sorted, sorting host matrix
[OGL LOG] sort_host_mtx_sparsity_pattern : 21 ms
[OGL LOG] sort_host_mtx : 12 ms
[OGL LOG] init_preconditioner : 0 ms
[OGL LOG] solve : 121 ms
noneompGKOBiCGStab:  Solving for Uz, Initial residual = 0.472572, Final residual = 7.19184e-07, No Iterations 41
[OGL LOG] init_preconditioner : 0 ms
[OGL LOG] solve : 1020 ms
noneompGKOBiCGStab:  Solving for p, Initial residual = 0.42306, Final residual = 9.12699e-07, No Iterations 354
time step continuity errors : sum local = 4.01491e-08, global = -3.84846e-21, cumulative = 8.99785e-20
[OGL LOG] init_preconditioner : 0 ms
[OGL LOG] solve : 684 ms
noneompGKOBiCGStab:  Solving for p, Initial residual = 0.368404, Final residual = 9.98999e-07, No Iterations 240
time step continuity errors : sum local = 3.13848e-09, global = -2.98876e-20, cumulative = 6.0091e-20
ExecutionTime = 304.33 s  ClockTime = 13 s

Time = 0.01

Courant Number mean: 0.136096 max: 0.906943
[OGL LOG] init_host_sparsity_pattern : 33 ms
[OGL LOG] matrix not stored update host matrix
[OGL LOG] update_host_mtx : 15 ms
[OGL LOG] matrix is not yet sorted, sorting host matrix
[OGL LOG] sort_host_mtx_sparsity_pattern : 21 ms
[OGL LOG] sort_host_mtx : 12 ms
[OGL LOG] init_preconditioner : 0 ms
[OGL LOG] solve : 89 ms
noneompGKOBiCGStab:  Solving for Ux, Initial residual = 0.0230686, Final residual = 7.68932e-07, No Iterations 30
[OGL LOG] init_host_sparsity_pattern : 34 ms
[OGL LOG] matrix not stored update host matrix
[OGL LOG] update_host_mtx : 15 ms
[OGL LOG] matrix is not yet sorted, sorting host matrix
[OGL LOG] sort_host_mtx_sparsity_pattern : 21 ms
[OGL LOG] sort_host_mtx : 12 ms
[OGL LOG] init_preconditioner : 0 ms
[OGL LOG] solve : 94 ms
noneompGKOBiCGStab:  Solving for Uy, Initial residual = 0.0484371, Final residual = 8.4096e-07, No Iterations 32
[OGL LOG] init_host_sparsity_pattern : 34 ms
[OGL LOG] matrix not stored update host matrix
[OGL LOG] update_host_mtx : 15 ms
[OGL LOG] matrix is not yet sorted, sorting host matrix
[OGL LOG] sort_host_mtx_sparsity_pattern : 21 ms
[OGL LOG] sort_host_mtx : 12 ms
[OGL LOG] init_preconditioner : 0 ms
[OGL LOG] solve : 104 ms
noneompGKOBiCGStab:  Solving for Uz, Initial residual = 0.159197, Final residual = 9.40455e-07, No Iterations 36
[OGL LOG] init_preconditioner : 0 ms
[OGL LOG] solve : 963 ms
noneompGKOBiCGStab:  Solving for p, Initial residual = 0.361656, Final residual = 7.91529e-07, No Iterations 325
time step continuity errors : sum local = 1.26519e-08, global = 3.10778e-20, cumulative = 9.11688e-20
[OGL LOG] init_preconditioner : 0 ms
[OGL LOG] solve : 936 ms
noneompGKOBiCGStab:  Solving for p, Initial residual = 0.333128, Final residual = 8.66914e-07, No Iterations 327
time step continuity errors : sum local = 1.46039e-08, global = 3.25698e-21, cumulative = 9.44258e-20
ExecutionTime = 375.59 s  ClockTime = 15 s

End

