/*---------------------------------------------------------------------------*\
  =========                 |
  \\      /  F ield         | OpenFOAM: The Open Source CFD Toolbox
   \\    /   O peration     | Website:  https://openfoam.org
    \\  /    A nd           | Version:  8
     \\/     M anipulation  |
\*---------------------------------------------------------------------------*/
Build  : 8-13d66902f78c
Exec   : icoFoam
Date   : Jul 04 2021
Time   : 09:21:38
Host   : "uc2n445.localdomain"
PID    : 2195355
I/O    : uncollated
Case   : /pfs/data5/home/kit/scc/nq7776/code/OGL_DATA/lidDrivenCavity3D/v0.1-136-g40fef35/f584ccac99/IntelXeonGold6230CPU@2.10GHz/Test_2021-07-04-08:13:47/75/p-BiCGStab-GKO-BJ-omp/lidDrivenCavity3D
nProcs : 1
sigFpe : Enabling floating point exception trapping (FOAM_SIGFPE).
fileModificationChecking : Monitoring run-time modified files using timeStampMaster (fileModificationSkew 10)
allowSystemOperations : Allowing user-supplied system call operations

// * * * * * * * * * * * * * * * * * * * * * * * * * * * * * * * * * * * * * //
Create time

Create mesh for time = 0

Reading transportProperties

Reading field p

Reading field U

Reading/calculating face flux field phi


Starting time loop

Time = 0.00133333

Courant Number mean: 0 max: 0
nonePBiCGStab:  Solving for Ux, Initial residual = 1, Final residual = 0.0730231, No Iterations 5
nonePBiCGStab:  Solving for Uy, Initial residual = 0, Final residual = 0, No Iterations 0
nonePBiCGStab:  Solving for Uz, Initial residual = 0, Final residual = 0, No Iterations 0
[OGL LOG] init_host_sparsity_pattern : 124 ms
[OGL LOG] matrix not stored update host matrix
[OGL LOG] update_host_mtx : 61 ms
[OGL LOG] matrix is not yet sorted, compute sorting idxs
[OGL LOG] compute_sort : 3635 ms
[OGL LOG] matrix is not yet sorted, sorting host matrix
[OGL LOG] sort_host_mtx_sparsity_pattern : 81 ms
[OGL LOG] sort_host_mtx : 53 ms
[OGL LOG] init_preconditioner : 33 ms
[OGL LOG] solve : 10175 ms
BJompGKOBiCGStab:  Solving for p, Initial residual = 1, Final residual = 4.64271e-07, No Iterations 415
time step continuity errors : sum local = 3.75427e-09, global = 5.36811e-21, cumulative = 5.36811e-21
[OGL LOG] init_preconditioner : 0 ms
[OGL LOG] solve : 9835 ms
BJompGKOBiCGStab:  Solving for p, Initial residual = 0.697113, Final residual = 9.18802e-07, No Iterations 412
time step continuity errors : sum local = 7.98331e-08, global = -1.72854e-21, cumulative = 3.63957e-21
ExecutionTime = 85.92 s  ClockTime = 26 s

Time = 0.00266667

Courant Number mean: 0.0508076 max: 0.767232
nonePBiCGStab:  Solving for Ux, Initial residual = 0.140596, Final residual = 0.0324552, No Iterations 5
nonePBiCGStab:  Solving for Uy, Initial residual = 0.41364, Final residual = 0.092342, No Iterations 5
nonePBiCGStab:  Solving for Uz, Initial residual = 0.982855, Final residual = 0.250048, No Iterations 5
[OGL LOG] init_preconditioner : 0 ms
[OGL LOG] solve : 9600 ms
BJompGKOBiCGStab:  Solving for p, Initial residual = 0.746882, Final residual = 9.84454e-07, No Iterations 393
time step continuity errors : sum local = 2.19303e-09, global = -8.19826e-22, cumulative = 2.81974e-21
[OGL LOG] init_preconditioner : 0 ms
[OGL LOG] solve : 9396 ms
BJompGKOBiCGStab:  Solving for p, Initial residual = 0.668105, Final residual = 8.70208e-07, No Iterations 388
time step continuity errors : sum local = 1.49747e-09, global = 8.31444e-21, cumulative = 1.11342e-20
ExecutionTime = 162.29 s  ClockTime = 45 s

Time = 0.004

Courant Number mean: 0.079613 max: 0.886021
nonePBiCGStab:  Solving for Ux, Initial residual = 0.0584483, Final residual = 0.0111477, No Iterations 5
nonePBiCGStab:  Solving for Uy, Initial residual = 0.17197, Final residual = 0.0398927, No Iterations 5
nonePBiCGStab:  Solving for Uz, Initial residual = 0.610586, Final residual = 0.14214, No Iterations 5
[OGL LOG] init_preconditioner : 0 ms
[OGL LOG] solve : 10110 ms
BJompGKOBiCGStab:  Solving for p, Initial residual = 0.730354, Final residual = 6.06996e-07, No Iterations 421
time step continuity errors : sum local = 4.53257e-09, global = 1.28691e-20, cumulative = 2.40033e-20
[OGL LOG] init_preconditioner : 0 ms
[OGL LOG] solve : 10010 ms
BJompGKOBiCGStab:  Solving for p, Initial residual = 0.660907, Final residual = 7.28946e-07, No Iterations 420
time step continuity errors : sum local = 1.38478e-09, global = -1.30904e-20, cumulative = 1.0913e-20
ExecutionTime = 243.17 s  ClockTime = 66 s

Time = 0.00533333

Courant Number mean: 0.09481 max: 0.902547
nonePBiCGStab:  Solving for Ux, Initial residual = 0.0345934, Final residual = 0.00682927, No Iterations 5
nonePBiCGStab:  Solving for Uy, Initial residual = 0.119555, Final residual = 0.0298193, No Iterations 5
nonePBiCGStab:  Solving for Uz, Initial residual = 0.386194, Final residual = 0.0807252, No Iterations 5
[OGL LOG] init_preconditioner : 0 ms
[OGL LOG] solve : 5731 ms
BJompGKOBiCGStab:  Solving for p, Initial residual = 0.609798, Final residual = 9.04912e-07, No Iterations 242
time step continuity errors : sum local = 1.60019e-09, global = -6.62974e-21, cumulative = 4.28324e-21
[OGL LOG] init_preconditioner : 0 ms
[OGL LOG] solve : 9537 ms
BJompGKOBiCGStab:  Solving for p, Initial residual = 0.52111, Final residual = 6.09503e-07, No Iterations 395
time step continuity errors : sum local = 1.53632e-09, global = 1.33028e-20, cumulative = 1.7586e-20
ExecutionTime = 304.64 s  ClockTime = 82 s

Time = 0.00666667

Courant Number mean: 0.107176 max: 0.916756
nonePBiCGStab:  Solving for Ux, Initial residual = 0.0257314, Final residual = 0.00503106, No Iterations 5
nonePBiCGStab:  Solving for Uy, Initial residual = 0.0750499, Final residual = 0.0208241, No Iterations 5
nonePBiCGStab:  Solving for Uz, Initial residual = 0.212643, Final residual = 0.0494935, No Iterations 5
[OGL LOG] init_preconditioner : 0 ms
[OGL LOG] solve : 8113 ms
BJompGKOBiCGStab:  Solving for p, Initial residual = 0.629313, Final residual = 9.50937e-07, No Iterations 338
time step continuity errors : sum local = 8.25678e-08, global = -5.91372e-21, cumulative = 1.16723e-20
[OGL LOG] init_preconditioner : 0 ms
[OGL LOG] solve : 8619 ms
BJompGKOBiCGStab:  Solving for p, Initial residual = 0.552186, Final residual = 3.14811e-07, No Iterations 356
time step continuity errors : sum local = 5.05627e-09, global = 1.72768e-20, cumulative = 2.89491e-20
ExecutionTime = 371.95 s  ClockTime = 99 s

End

