/*---------------------------------------------------------------------------*\
  =========                 |
  \\      /  F ield         | OpenFOAM: The Open Source CFD Toolbox
   \\    /   O peration     | Website:  https://openfoam.org
    \\  /    A nd           | Version:  8
     \\/     M anipulation  |
\*---------------------------------------------------------------------------*/
Build  : 8-13d66902f78c
Exec   : icoFoam
Date   : Jul 04 2021
Time   : 07:38:17
Host   : "uc2n420.localdomain"
PID    : 1120803
I/O    : uncollated
Case   : /pfs/data5/home/kit/scc/nq7776/code/OGL_DATA/lidDrivenCavity3D/v0.1-136-g40fef35/f584ccac99/IntelXeonGold6230CPU@2.10GHz/Test_2021-07-04-07:18:41/75/p-BiCGStab-GKO-none-omp/lidDrivenCavity3D
nProcs : 1
sigFpe : Enabling floating point exception trapping (FOAM_SIGFPE).
fileModificationChecking : Monitoring run-time modified files using timeStampMaster (fileModificationSkew 10)
allowSystemOperations : Allowing user-supplied system call operations

// * * * * * * * * * * * * * * * * * * * * * * * * * * * * * * * * * * * * * //
Create time

Create mesh for time = 0

Reading transportProperties

Reading field p

Reading field U

Reading/calculating face flux field phi


Starting time loop

Time = 0.00133333

Courant Number mean: 0 max: 0
nonePBiCGStab:  Solving for Ux, Initial residual = 1, Final residual = 0.0730231, No Iterations 5
nonePBiCGStab:  Solving for Uy, Initial residual = 0, Final residual = 0, No Iterations 0
nonePBiCGStab:  Solving for Uz, Initial residual = 0, Final residual = 0, No Iterations 0
[OGL LOG] init_host_sparsity_pattern : 123 ms
[OGL LOG] matrix not stored update host matrix
[OGL LOG] update_host_mtx : 62 ms
[OGL LOG] matrix is not yet sorted, compute sorting idxs
[OGL LOG] compute_sort : 3646 ms
[OGL LOG] matrix is not yet sorted, sorting host matrix
[OGL LOG] sort_host_mtx_sparsity_pattern : 80 ms
[OGL LOG] sort_host_mtx : 52 ms
[OGL LOG] init_preconditioner : 0 ms
[OGL LOG] solve : 14067 ms
noneompGKOBiCGStab:  Solving for p, Initial residual = 1, Final residual = 9.08386e-07, No Iterations 522
time step continuity errors : sum local = 1.11903e-09, global = -2.02615e-21, cumulative = -2.02615e-21
[OGL LOG] init_preconditioner : 0 ms
[OGL LOG] solve : 14240 ms
noneompGKOBiCGStab:  Solving for p, Initial residual = 0.697109, Final residual = 9.05543e-07, No Iterations 527
time step continuity errors : sum local = 2.45932e-09, global = -7.05994e-21, cumulative = -9.0861e-21
ExecutionTime = 34.26 s  ClockTime = 34 s

Time = 0.00266667

Courant Number mean: 0.0508075 max: 0.767232
nonePBiCGStab:  Solving for Ux, Initial residual = 0.140594, Final residual = 0.0324538, No Iterations 5
nonePBiCGStab:  Solving for Uy, Initial residual = 0.413642, Final residual = 0.0923282, No Iterations 5
nonePBiCGStab:  Solving for Uz, Initial residual = 0.983182, Final residual = 0.249897, No Iterations 5
[OGL LOG] init_preconditioner : 0 ms
[OGL LOG] solve : 14194 ms
noneompGKOBiCGStab:  Solving for p, Initial residual = 0.746894, Final residual = 1.7325e-08, No Iterations 527
time step continuity errors : sum local = 1.57742e-08, global = 1.09394e-20, cumulative = 1.85329e-21
[OGL LOG] init_preconditioner : 0 ms
[OGL LOG] solve : 14668 ms
noneompGKOBiCGStab:  Solving for p, Initial residual = 0.668119, Final residual = 8.72059e-07, No Iterations 544
time step continuity errors : sum local = 4.99934e-08, global = 2.02634e-20, cumulative = 2.21167e-20
ExecutionTime = 63.53 s  ClockTime = 64 s

Time = 0.004

Courant Number mean: 0.0796135 max: 0.886021
nonePBiCGStab:  Solving for Ux, Initial residual = 0.0584372, Final residual = 0.0111435, No Iterations 5
nonePBiCGStab:  Solving for Uy, Initial residual = 0.172022, Final residual = 0.0399109, No Iterations 5
nonePBiCGStab:  Solving for Uz, Initial residual = 0.609242, Final residual = 0.141488, No Iterations 5
[OGL LOG] init_preconditioner : 0 ms
[OGL LOG] solve : 14827 ms
noneompGKOBiCGStab:  Solving for p, Initial residual = 0.730376, Final residual = 2.34508e-07, No Iterations 551
time step continuity errors : sum local = 9.55242e-09, global = 2.15734e-20, cumulative = 4.36901e-20
[OGL LOG] init_preconditioner : 0 ms
[OGL LOG] solve : 14387 ms
noneompGKOBiCGStab:  Solving for p, Initial residual = 0.661009, Final residual = 7.68853e-07, No Iterations 535
time step continuity errors : sum local = 2.48776e-09, global = -1.26192e-20, cumulative = 3.1071e-20
ExecutionTime = 93.15 s  ClockTime = 93 s

Time = 0.00533333

Courant Number mean: 0.09481 max: 0.902546
nonePBiCGStab:  Solving for Ux, Initial residual = 0.0345856, Final residual = 0.00682893, No Iterations 5
nonePBiCGStab:  Solving for Uy, Initial residual = 0.11957, Final residual = 0.0298221, No Iterations 5
nonePBiCGStab:  Solving for Uz, Initial residual = 0.386546, Final residual = 0.0806622, No Iterations 5
[OGL LOG] init_preconditioner : 0 ms
[OGL LOG] solve : 14082 ms
noneompGKOBiCGStab:  Solving for p, Initial residual = 0.609824, Final residual = 9.15406e-07, No Iterations 522
time step continuity errors : sum local = 2.2084e-09, global = -9.70686e-21, cumulative = 2.13641e-20
[OGL LOG] init_preconditioner : 0 ms
[OGL LOG] solve : 9063 ms
noneompGKOBiCGStab:  Solving for p, Initial residual = 0.521136, Final residual = 8.59452e-07, No Iterations 336
time step continuity errors : sum local = 1.19413e-09, global = -5.61121e-22, cumulative = 2.0803e-20
ExecutionTime = 116.71 s  ClockTime = 117 s

Time = 0.00666667

Courant Number mean: 0.107176 max: 0.916755
nonePBiCGStab:  Solving for Ux, Initial residual = 0.0257325, Final residual = 0.00503139, No Iterations 5
nonePBiCGStab:  Solving for Uy, Initial residual = 0.075053, Final residual = 0.0208238, No Iterations 5
nonePBiCGStab:  Solving for Uz, Initial residual = 0.212701, Final residual = 0.0494927, No Iterations 5
[OGL LOG] init_preconditioner : 0 ms
[OGL LOG] solve : 11995 ms
noneompGKOBiCGStab:  Solving for p, Initial residual = 0.629338, Final residual = 9.75346e-07, No Iterations 446
time step continuity errors : sum local = 1.00492e-09, global = 5.04953e-21, cumulative = 2.58525e-20
[OGL LOG] init_preconditioner : 0 ms
[OGL LOG] solve : 12928 ms
noneompGKOBiCGStab:  Solving for p, Initial residual = 0.552183, Final residual = 5.77213e-07, No Iterations 480
time step continuity errors : sum local = 1.19569e-08, global = -1.60389e-20, cumulative = 9.81365e-21
ExecutionTime = 142.05 s  ClockTime = 142 s

End

