/*---------------------------------------------------------------------------*\
  =========                 |
  \\      /  F ield         | OpenFOAM: The Open Source CFD Toolbox
   \\    /   O peration     | Website:  https://openfoam.org
    \\  /    A nd           | Version:  8
     \\/     M anipulation  |
\*---------------------------------------------------------------------------*/
Build  : 8-13d66902f78c
Exec   : icoFoam
Date   : Jul 04 2021
Time   : 09:13:17
Host   : "uc2n415.localdomain"
PID    : 2609001
I/O    : uncollated
Case   : /pfs/data5/home/kit/scc/nq7776/code/OGL_DATA/lidDrivenCavity3D/v0.1-136-g40fef35/f584ccac99/IntelXeonGold6230CPU@2.10GHz/Test_2021-07-04-08:36:30/75/p-U-BiCGStab-GKO-none-omp/lidDrivenCavity3D
nProcs : 1
sigFpe : Enabling floating point exception trapping (FOAM_SIGFPE).
fileModificationChecking : Monitoring run-time modified files using timeStampMaster (fileModificationSkew 10)
allowSystemOperations : Allowing user-supplied system call operations

// * * * * * * * * * * * * * * * * * * * * * * * * * * * * * * * * * * * * * //
Create time

Create mesh for time = 0

Reading transportProperties

Reading field p

Reading field U

Reading/calculating face flux field phi


Starting time loop

Time = 0.00133333

Courant Number mean: 0 max: 0
[OGL LOG] init_host_sparsity_pattern : 120 ms
[OGL LOG] matrix not stored update host matrix
[OGL LOG] update_host_mtx : 61 ms
[OGL LOG] matrix is not yet sorted, compute sorting idxs
[OGL LOG] compute_sort : 3637 ms
[OGL LOG] matrix is not yet sorted, sorting host matrix
[OGL LOG] sort_host_mtx_sparsity_pattern : 79 ms
[OGL LOG] sort_host_mtx : 52 ms
[OGL LOG] init_preconditioner : 0 ms
[OGL LOG] solve : 915 ms
noneompGKOBiCGStab:  Solving for Ux, Initial residual = 1, Final residual = 3.51283e-07, No Iterations 51
[OGL LOG] init_host_sparsity_pattern : 117 ms
[OGL LOG] matrix not stored update host matrix
[OGL LOG] update_host_mtx : 61 ms
[OGL LOG] matrix is not yet sorted, sorting host matrix
[OGL LOG] sort_host_mtx_sparsity_pattern : 80 ms
[OGL LOG] sort_host_mtx : 43 ms
[OGL LOG] init_preconditioner : 0 ms
[OGL LOG] solve : 20 ms
noneompGKOBiCGStab:  Solving for Uy, Initial residual = 0, Final residual = 0, No Iterations 0
[OGL LOG] init_host_sparsity_pattern : 112 ms
[OGL LOG] matrix not stored update host matrix
[OGL LOG] update_host_mtx : 53 ms
[OGL LOG] matrix is not yet sorted, sorting host matrix
[OGL LOG] sort_host_mtx_sparsity_pattern : 80 ms
[OGL LOG] sort_host_mtx : 44 ms
[OGL LOG] init_preconditioner : 0 ms
[OGL LOG] solve : 18 ms
noneompGKOBiCGStab:  Solving for Uz, Initial residual = 0, Final residual = 0, No Iterations 0
[OGL LOG] init_host_sparsity_pattern : 115 ms
[OGL LOG] matrix not stored update host matrix
[OGL LOG] update_host_mtx : 64 ms
[OGL LOG] matrix is not yet sorted, sorting host matrix
[OGL LOG] sort_host_mtx_sparsity_pattern : 81 ms
[OGL LOG] sort_host_mtx : 43 ms
[OGL LOG] init_preconditioner : 0 ms
[OGL LOG] solve : 9994 ms
noneompGKOBiCGStab:  Solving for p, Initial residual = 1, Final residual = 9.01179e-07, No Iterations 566
time step continuity errors : sum local = 1.34601e-08, global = -1.94503e-21, cumulative = -1.94503e-21
[OGL LOG] init_preconditioner : 0 ms
[OGL LOG] solve : 9967 ms
noneompGKOBiCGStab:  Solving for p, Initial residual = 0.759332, Final residual = 8.30056e-07, No Iterations 575
time step continuity errors : sum local = 1.52041e-08, global = 1.50699e-23, cumulative = -1.92996e-21
ExecutionTime = 48.77 s  ClockTime = 28 s

Time = 0.00266667

Courant Number mean: 0.0631769 max: 0.775367
[OGL LOG] init_host_sparsity_pattern : 113 ms
[OGL LOG] matrix not stored update host matrix
[OGL LOG] update_host_mtx : 54 ms
[OGL LOG] matrix is not yet sorted, sorting host matrix
[OGL LOG] sort_host_mtx_sparsity_pattern : 81 ms
[OGL LOG] sort_host_mtx : 44 ms
[OGL LOG] init_preconditioner : 0 ms
[OGL LOG] solve : 775 ms
noneompGKOBiCGStab:  Solving for Ux, Initial residual = 0.183041, Final residual = 8.35684e-07, No Iterations 43
[OGL LOG] init_host_sparsity_pattern : 112 ms
[OGL LOG] matrix not stored update host matrix
[OGL LOG] update_host_mtx : 53 ms
[OGL LOG] matrix is not yet sorted, sorting host matrix
[OGL LOG] sort_host_mtx_sparsity_pattern : 73 ms
[OGL LOG] sort_host_mtx : 43 ms
[OGL LOG] init_preconditioner : 0 ms
[OGL LOG] solve : 827 ms
noneompGKOBiCGStab:  Solving for Uy, Initial residual = 0.619621, Final residual = 8.26088e-07, No Iterations 46
[OGL LOG] init_host_sparsity_pattern : 112 ms
[OGL LOG] matrix not stored update host matrix
[OGL LOG] update_host_mtx : 53 ms
[OGL LOG] matrix is not yet sorted, sorting host matrix
[OGL LOG] sort_host_mtx_sparsity_pattern : 72 ms
[OGL LOG] sort_host_mtx : 44 ms
[OGL LOG] init_preconditioner : 0 ms
[OGL LOG] solve : 861 ms
noneompGKOBiCGStab:  Solving for Uz, Initial residual = 0.604975, Final residual = 9.23341e-07, No Iterations 48
[OGL LOG] init_preconditioner : 0 ms
[OGL LOG] solve : 9245 ms
noneompGKOBiCGStab:  Solving for p, Initial residual = 0.749128, Final residual = 3.53634e-07, No Iterations 522
time step continuity errors : sum local = 6.38076e-07, global = -7.01938e-21, cumulative = -8.94934e-21
[OGL LOG] init_preconditioner : 0 ms
[OGL LOG] solve : 9016 ms
noneompGKOBiCGStab:  Solving for p, Initial residual = 0.684101, Final residual = 9.23268e-07, No Iterations 506
time step continuity errors : sum local = 2.43999e-07, global = -6.85334e-21, cumulative = -1.58027e-20
ExecutionTime = 91.43 s  ClockTime = 50 s

Time = 0.004

Courant Number mean: 0.0951463 max: 0.917098
[OGL LOG] init_host_sparsity_pattern : 112 ms
[OGL LOG] matrix not stored update host matrix
[OGL LOG] update_host_mtx : 56 ms
[OGL LOG] matrix is not yet sorted, sorting host matrix
[OGL LOG] sort_host_mtx_sparsity_pattern : 85 ms
[OGL LOG] sort_host_mtx : 43 ms
[OGL LOG] init_preconditioner : 0 ms
[OGL LOG] solve : 780 ms
noneompGKOBiCGStab:  Solving for Ux, Initial residual = 0.102074, Final residual = 5.61073e-07, No Iterations 43
[OGL LOG] init_host_sparsity_pattern : 112 ms
[OGL LOG] matrix not stored update host matrix
[OGL LOG] update_host_mtx : 53 ms
[OGL LOG] matrix is not yet sorted, sorting host matrix
[OGL LOG] sort_host_mtx_sparsity_pattern : 72 ms
[OGL LOG] sort_host_mtx : 43 ms
[OGL LOG] init_preconditioner : 0 ms
[OGL LOG] solve : 922 ms
noneompGKOBiCGStab:  Solving for Uy, Initial residual = 0.335039, Final residual = 7.8726e-07, No Iterations 51
[OGL LOG] init_host_sparsity_pattern : 114 ms
[OGL LOG] matrix not stored update host matrix
[OGL LOG] update_host_mtx : 53 ms
[OGL LOG] matrix is not yet sorted, sorting host matrix
[OGL LOG] sort_host_mtx_sparsity_pattern : 72 ms
[OGL LOG] sort_host_mtx : 43 ms
[OGL LOG] init_preconditioner : 0 ms
[OGL LOG] solve : 842 ms
noneompGKOBiCGStab:  Solving for Uz, Initial residual = 0.919879, Final residual = 4.94118e-07, No Iterations 46
[OGL LOG] init_preconditioner : 0 ms
[OGL LOG] solve : 9126 ms
noneompGKOBiCGStab:  Solving for p, Initial residual = 0.754758, Final residual = 8.9376e-07, No Iterations 515
time step continuity errors : sum local = 5.27127e-09, global = 3.70088e-22, cumulative = -1.54326e-20
[OGL LOG] init_preconditioner : 0 ms
[OGL LOG] solve : 9410 ms
noneompGKOBiCGStab:  Solving for p, Initial residual = 0.716728, Final residual = 2.91697e-07, No Iterations 530
time step continuity errors : sum local = 3.67571e-08, global = -9.94205e-21, cumulative = -2.53746e-20
ExecutionTime = 134.78 s  ClockTime = 73 s

Time = 0.00533333

Courant Number mean: 0.109258 max: 0.913438
[OGL LOG] init_host_sparsity_pattern : 113 ms
[OGL LOG] matrix not stored update host matrix
[OGL LOG] update_host_mtx : 55 ms
[OGL LOG] matrix is not yet sorted, sorting host matrix
[OGL LOG] sort_host_mtx_sparsity_pattern : 73 ms
[OGL LOG] sort_host_mtx : 43 ms
[OGL LOG] init_preconditioner : 0 ms
[OGL LOG] solve : 716 ms
noneompGKOBiCGStab:  Solving for Ux, Initial residual = 0.0447931, Final residual = 9.93648e-07, No Iterations 39
[OGL LOG] init_host_sparsity_pattern : 112 ms
[OGL LOG] matrix not stored update host matrix
[OGL LOG] update_host_mtx : 53 ms
[OGL LOG] matrix is not yet sorted, sorting host matrix
[OGL LOG] sort_host_mtx_sparsity_pattern : 73 ms
[OGL LOG] sort_host_mtx : 43 ms
[OGL LOG] init_preconditioner : 0 ms
[OGL LOG] solve : 845 ms
noneompGKOBiCGStab:  Solving for Uy, Initial residual = 0.197623, Final residual = 8.92495e-07, No Iterations 46
[OGL LOG] init_host_sparsity_pattern : 114 ms
[OGL LOG] matrix not stored update host matrix
[OGL LOG] update_host_mtx : 57 ms
[OGL LOG] matrix is not yet sorted, sorting host matrix
[OGL LOG] sort_host_mtx_sparsity_pattern : 72 ms
[OGL LOG] sort_host_mtx : 43 ms
[OGL LOG] init_preconditioner : 0 ms
[OGL LOG] solve : 851 ms
noneompGKOBiCGStab:  Solving for Uz, Initial residual = 0.741165, Final residual = 7.59403e-07, No Iterations 47
[OGL LOG] init_preconditioner : 0 ms
[OGL LOG] solve : 8796 ms
noneompGKOBiCGStab:  Solving for p, Initial residual = 0.617596, Final residual = 4.70511e-07, No Iterations 493
time step continuity errors : sum local = 4.05467e-07, global = -1.92799e-20, cumulative = -4.46545e-20
[OGL LOG] init_preconditioner : 0 ms
[OGL LOG] solve : 9050 ms
noneompGKOBiCGStab:  Solving for p, Initial residual = 0.554834, Final residual = 7.66459e-07, No Iterations 509
time step continuity errors : sum local = 6.18335e-09, global = -4.67888e-20, cumulative = -9.14433e-20
ExecutionTime = 176.5 s  ClockTime = 94 s

Time = 0.00666667

Courant Number mean: 0.122085 max: 0.929086
[OGL LOG] init_host_sparsity_pattern : 111 ms
[OGL LOG] matrix not stored update host matrix
[OGL LOG] update_host_mtx : 54 ms
[OGL LOG] matrix is not yet sorted, sorting host matrix
[OGL LOG] sort_host_mtx_sparsity_pattern : 79 ms
[OGL LOG] sort_host_mtx : 43 ms
[OGL LOG] init_preconditioner : 0 ms
[OGL LOG] solve : 690 ms
noneompGKOBiCGStab:  Solving for Ux, Initial residual = 0.0319083, Final residual = 5.42335e-07, No Iterations 38
[OGL LOG] init_host_sparsity_pattern : 112 ms
[OGL LOG] matrix not stored update host matrix
[OGL LOG] update_host_mtx : 53 ms
[OGL LOG] matrix is not yet sorted, sorting host matrix
[OGL LOG] sort_host_mtx_sparsity_pattern : 72 ms
[OGL LOG] sort_host_mtx : 43 ms
[OGL LOG] init_preconditioner : 0 ms
[OGL LOG] solve : 797 ms
noneompGKOBiCGStab:  Solving for Uy, Initial residual = 0.0806349, Final residual = 3.4737e-07, No Iterations 44
[OGL LOG] init_host_sparsity_pattern : 112 ms
[OGL LOG] matrix not stored update host matrix
[OGL LOG] update_host_mtx : 53 ms
[OGL LOG] matrix is not yet sorted, sorting host matrix
[OGL LOG] sort_host_mtx_sparsity_pattern : 72 ms
[OGL LOG] sort_host_mtx : 44 ms
[OGL LOG] init_preconditioner : 0 ms
[OGL LOG] solve : 817 ms
noneompGKOBiCGStab:  Solving for Uz, Initial residual = 0.514312, Final residual = 9.9691e-07, No Iterations 45
[OGL LOG] init_preconditioner : 0 ms
[OGL LOG] solve : 9669 ms
noneompGKOBiCGStab:  Solving for p, Initial residual = 0.59218, Final residual = 3.09865e-07, No Iterations 543
time step continuity errors : sum local = 1.83022e-07, global = 3.65131e-22, cumulative = -9.10782e-20
[OGL LOG] init_preconditioner : 0 ms
[OGL LOG] solve : 10076 ms
noneompGKOBiCGStab:  Solving for p, Initial residual = 0.543347, Final residual = 5.51202e-07, No Iterations 566
time step continuity errors : sum local = 8.44706e-09, global = -1.72323e-20, cumulative = -1.0831e-19
ExecutionTime = 221.77 s  ClockTime = 117 s

End

