/*---------------------------------------------------------------------------*\
  =========                 |
  \\      /  F ield         | OpenFOAM: The Open Source CFD Toolbox
   \\    /   O peration     | Website:  https://openfoam.org
    \\  /    A nd           | Version:  8
     \\/     M anipulation  |
\*---------------------------------------------------------------------------*/
Build  : 8-13d66902f78c
Exec   : icoFoam
Date   : Jul 04 2021
Time   : 08:09:42
Host   : "uc2n390.localdomain"
PID    : 2105572
I/O    : uncollated
Case   : /pfs/data5/home/kit/scc/nq7776/code/OGL_DATA/lidDrivenCavity3D/v0.1-136-g40fef35/f584ccac99/IntelXeonGold6230CPU@2.10GHz/Test_2021-07-04-07:26:56/75/p-IR-GKO-none-omp/lidDrivenCavity3D
nProcs : 1
sigFpe : Enabling floating point exception trapping (FOAM_SIGFPE).
fileModificationChecking : Monitoring run-time modified files using timeStampMaster (fileModificationSkew 10)
allowSystemOperations : Allowing user-supplied system call operations

// * * * * * * * * * * * * * * * * * * * * * * * * * * * * * * * * * * * * * //
Create time

Create mesh for time = 0

Reading transportProperties

Reading field p

Reading field U

Reading/calculating face flux field phi


Starting time loop

Time = 0.00133333

Courant Number mean: 0 max: 0
nonePBiCGStab:  Solving for Ux, Initial residual = 1, Final residual = 0.0730231, No Iterations 5
nonePBiCGStab:  Solving for Uy, Initial residual = 0, Final residual = 0, No Iterations 0
nonePBiCGStab:  Solving for Uz, Initial residual = 0, Final residual = 0, No Iterations 0
[OGL LOG] init_host_sparsity_pattern : 123 ms
[OGL LOG] matrix not stored update host matrix
[OGL LOG] update_host_mtx : 62 ms
[OGL LOG] matrix is not yet sorted, compute sorting idxs
[OGL LOG] compute_sort : 3640 ms
[OGL LOG] matrix is not yet sorted, sorting host matrix
[OGL LOG] sort_host_mtx_sparsity_pattern : 81 ms
[OGL LOG] sort_host_mtx : 53 ms
[OGL LOG] init_preconditioner : 0 ms
[OGL LOG] solve : 4189 ms
noneompGKOIR:  Solving for p, Initial residual = 1, Final residual = 1.46702e-07, No Iterations 4
time step continuity errors : sum local = 9.32293e-11, global = 2.6452e-21, cumulative = 2.6452e-21
[OGL LOG] init_preconditioner : 0 ms
[OGL LOG] solve : 4112 ms
noneompGKOIR:  Solving for p, Initial residual = 0.697106, Final residual = 6.97336e-08, No Iterations 4
time step continuity errors : sum local = 6.1814e-11, global = 9.9801e-24, cumulative = 2.65518e-21
ExecutionTime = 72.42 s  ClockTime = 14 s

Time = 0.00266667

Courant Number mean: 0.0508075 max: 0.767232
nonePBiCGStab:  Solving for Ux, Initial residual = 0.140592, Final residual = 0.0324525, No Iterations 5
nonePBiCGStab:  Solving for Uy, Initial residual = 0.413642, Final residual = 0.0923278, No Iterations 5
nonePBiCGStab:  Solving for Uz, Initial residual = 0.983213, Final residual = 0.249884, No Iterations 5
[OGL LOG] init_preconditioner : 0 ms
[OGL LOG] solve : 3627 ms
noneompGKOIR:  Solving for p, Initial residual = 0.746898, Final residual = 3.62753e-08, No Iterations 4
time step continuity errors : sum local = 4.88455e-11, global = -1.16574e-20, cumulative = -9.00219e-21
[OGL LOG] init_preconditioner : 0 ms
[OGL LOG] solve : 3597 ms
noneompGKOIR:  Solving for p, Initial residual = 0.668136, Final residual = 2.97515e-08, No Iterations 4
time step continuity errors : sum local = 4.08656e-11, global = -1.19025e-20, cumulative = -2.09047e-20
ExecutionTime = 130.65 s  ClockTime = 22 s

Time = 0.004

Courant Number mean: 0.0796134 max: 0.886021
nonePBiCGStab:  Solving for Ux, Initial residual = 0.0584505, Final residual = 0.011149, No Iterations 5
nonePBiCGStab:  Solving for Uy, Initial residual = 0.171953, Final residual = 0.0398782, No Iterations 5
nonePBiCGStab:  Solving for Uz, Initial residual = 0.610941, Final residual = 0.142315, No Iterations 5
[OGL LOG] init_preconditioner : 0 ms
[OGL LOG] solve : 3797 ms
noneompGKOIR:  Solving for p, Initial residual = 0.730362, Final residual = 2.8585e-08, No Iterations 4
time step continuity errors : sum local = 2.86039e-11, global = 5.59389e-21, cumulative = -1.53108e-20
[OGL LOG] init_preconditioner : 0 ms
[OGL LOG] solve : 3823 ms
noneompGKOIR:  Solving for p, Initial residual = 0.660896, Final residual = 2.41084e-08, No Iterations 4
time step continuity errors : sum local = 2.34493e-11, global = -1.93238e-20, cumulative = -3.46346e-20
ExecutionTime = 192.01 s  ClockTime = 30 s

Time = 0.00533333

Courant Number mean: 0.0948105 max: 0.902547
nonePBiCGStab:  Solving for Ux, Initial residual = 0.0345946, Final residual = 0.00682907, No Iterations 5
nonePBiCGStab:  Solving for Uy, Initial residual = 0.11955, Final residual = 0.0298199, No Iterations 5
nonePBiCGStab:  Solving for Uz, Initial residual = 0.386282, Final residual = 0.0806798, No Iterations 5
[OGL LOG] init_preconditioner : 0 ms
[OGL LOG] solve : 3661 ms
noneompGKOIR:  Solving for p, Initial residual = 0.609798, Final residual = 2.15732e-08, No Iterations 4
time step continuity errors : sum local = 2.13213e-11, global = -6.36407e-21, cumulative = -4.09987e-20
[OGL LOG] init_preconditioner : 0 ms
[OGL LOG] solve : 3698 ms
noneompGKOIR:  Solving for p, Initial residual = 0.521107, Final residual = 1.97194e-08, No Iterations 4
time step continuity errors : sum local = 1.98898e-11, global = 5.54756e-21, cumulative = -3.54511e-20
ExecutionTime = 251.42 s  ClockTime = 38 s

Time = 0.00666667

Courant Number mean: 0.107177 max: 0.916755
nonePBiCGStab:  Solving for Ux, Initial residual = 0.0257329, Final residual = 0.00503149, No Iterations 5
nonePBiCGStab:  Solving for Uy, Initial residual = 0.0750464, Final residual = 0.0208209, No Iterations 5
nonePBiCGStab:  Solving for Uz, Initial residual = 0.21273, Final residual = 0.049546, No Iterations 5
[OGL LOG] init_preconditioner : 0 ms
[OGL LOG] solve : 3435 ms
noneompGKOIR:  Solving for p, Initial residual = 0.629326, Final residual = 2.1299e-08, No Iterations 4
time step continuity errors : sum local = 1.80301e-11, global = -3.18369e-20, cumulative = -6.7288e-20
[OGL LOG] init_preconditioner : 0 ms
[OGL LOG] solve : 3421 ms
noneompGKOIR:  Solving for p, Initial residual = 0.55216, Final residual = 1.72685e-08, No Iterations 4
time step continuity errors : sum local = 1.44113e-11, global = -9.72904e-21, cumulative = -7.70171e-20
ExecutionTime = 306.68 s  ClockTime = 45 s

End

