/*---------------------------------------------------------------------------*\
  =========                 |
  \\      /  F ield         | OpenFOAM: The Open Source CFD Toolbox
   \\    /   O peration     | Website:  https://openfoam.org
    \\  /    A nd           | Version:  8
     \\/     M anipulation  |
\*---------------------------------------------------------------------------*/
Build  : 8-13d66902f78c
Exec   : icoFoam
Date   : Jul 04 2021
Time   : 09:20:25
Host   : "uc2n410.localdomain"
PID    : 1313646
I/O    : uncollated
Case   : /pfs/data5/home/kit/scc/nq7776/code/OGL_DATA/lidDrivenCavity3D/v0.1-136-g40fef35/f584ccac99/IntelXeonGold6230CPU@2.10GHz/Test_2021-07-04-09:17:50/75/p-U-CG-OF-none-reference/lidDrivenCavity3D
nProcs : 1
sigFpe : Enabling floating point exception trapping (FOAM_SIGFPE).
fileModificationChecking : Monitoring run-time modified files using timeStampMaster (fileModificationSkew 10)
allowSystemOperations : Allowing user-supplied system call operations

// * * * * * * * * * * * * * * * * * * * * * * * * * * * * * * * * * * * * * //
Create time

Create mesh for time = 0

Reading transportProperties

Reading field p

Reading field U

Reading/calculating face flux field phi


Starting time loop

Time = 0.00133333

Courant Number mean: 0 max: 0
nonePBiCGStab:  Solving for Ux, Initial residual = 1, Final residual = 9.72494e-07, No Iterations 51
nonePBiCGStab:  Solving for Uy, Initial residual = 0, Final residual = 0, No Iterations 0
nonePBiCGStab:  Solving for Uz, Initial residual = 0, Final residual = 0, No Iterations 0
nonePCG:  Solving for p, Initial residual = 1, Final residual = 9.27385e-07, No Iterations 671
time step continuity errors : sum local = 8.47062e-10, global = 7.73693e-22, cumulative = 7.73693e-22
nonePCG:  Solving for p, Initial residual = 0.759327, Final residual = 8.87175e-07, No Iterations 667
time step continuity errors : sum local = 1.03735e-09, global = 8.48494e-21, cumulative = 9.25863e-21
ExecutionTime = 9.27 s  ClockTime = 9 s

Time = 0.00266667

Courant Number mean: 0.0631769 max: 0.775367
nonePBiCGStab:  Solving for Ux, Initial residual = 0.146103, Final residual = 3.70127e-07, No Iterations 44
nonePBiCGStab:  Solving for Uy, Initial residual = 0.397313, Final residual = 9.89365e-07, No Iterations 44
nonePBiCGStab:  Solving for Uz, Initial residual = 0.986937, Final residual = 4.5555e-07, No Iterations 51
nonePCG:  Solving for p, Initial residual = 0.749206, Final residual = 9.77813e-07, No Iterations 644
time step continuity errors : sum local = 1.3927e-09, global = -2.96661e-21, cumulative = 6.29202e-21
nonePCG:  Solving for p, Initial residual = 0.683647, Final residual = 9.70092e-07, No Iterations 642
time step continuity errors : sum local = 1.41246e-09, global = 5.0582e-22, cumulative = 6.79784e-21
ExecutionTime = 17.66 s  ClockTime = 18 s

Time = 0.004

Courant Number mean: 0.0951461 max: 0.917173
nonePBiCGStab:  Solving for Ux, Initial residual = 0.0611257, Final residual = 8.37298e-07, No Iterations 40
nonePBiCGStab:  Solving for Uy, Initial residual = 0.173981, Final residual = 6.54297e-07, No Iterations 41
nonePBiCGStab:  Solving for Uz, Initial residual = 0.741976, Final residual = 8.12085e-07, No Iterations 46
nonePCG:  Solving for p, Initial residual = 0.753008, Final residual = 9.70202e-07, No Iterations 659
time step continuity errors : sum local = 1.13268e-09, global = -2.2948e-20, cumulative = -1.61501e-20
nonePCG:  Solving for p, Initial residual = 0.714888, Final residual = 9.35423e-07, No Iterations 658
time step continuity errors : sum local = 1.05931e-09, global = -1.83735e-20, cumulative = -3.45236e-20
ExecutionTime = 26.1 s  ClockTime = 26 s

Time = 0.00533333

Courant Number mean: 0.109258 max: 0.913422
nonePBiCGStab:  Solving for Ux, Initial residual = 0.0319944, Final residual = 9.69673e-07, No Iterations 39
nonePBiCGStab:  Solving for Uy, Initial residual = 0.12411, Final residual = 9.42866e-07, No Iterations 40
nonePBiCGStab:  Solving for Uz, Initial residual = 0.472225, Final residual = 7.31554e-07, No Iterations 51
nonePCG:  Solving for p, Initial residual = 0.606736, Final residual = 9.65644e-07, No Iterations 653
time step continuity errors : sum local = 9.7755e-10, global = -1.58233e-20, cumulative = -5.03469e-20
nonePCG:  Solving for p, Initial residual = 0.541028, Final residual = 9.52674e-07, No Iterations 652
time step continuity errors : sum local = 9.7886e-10, global = -4.80403e-21, cumulative = -5.51509e-20
ExecutionTime = 34.53 s  ClockTime = 35 s

Time = 0.00666667

Courant Number mean: 0.122084 max: 0.92884
nonePBiCGStab:  Solving for Ux, Initial residual = 0.023822, Final residual = 6.23021e-07, No Iterations 38
nonePBiCGStab:  Solving for Uy, Initial residual = 0.0607728, Final residual = 8.35151e-07, No Iterations 40
nonePBiCGStab:  Solving for Uz, Initial residual = 0.303721, Final residual = 9.7845e-07, No Iterations 42
nonePCG:  Solving for p, Initial residual = 0.569035, Final residual = 9.67734e-07, No Iterations 653
time step continuity errors : sum local = 7.70582e-10, global = 1.13137e-21, cumulative = -5.40196e-20
nonePCG:  Solving for p, Initial residual = 0.517173, Final residual = 9.37973e-07, No Iterations 652
time step continuity errors : sum local = 7.37184e-10, global = 1.64194e-20, cumulative = -3.76002e-20
ExecutionTime = 42.82 s  ClockTime = 43 s

End

