/*---------------------------------------------------------------------------*\
  =========                 |
  \\      /  F ield         | OpenFOAM: The Open Source CFD Toolbox
   \\    /   O peration     | Website:  https://openfoam.org
    \\  /    A nd           | Version:  8
     \\/     M anipulation  |
\*---------------------------------------------------------------------------*/
Build  : 8-13d66902f78c
Exec   : icoFoam
Date   : Jul 04 2021
Time   : 09:37:47
Host   : "uc2n445.localdomain"
PID    : 2196402
I/O    : uncollated
Case   : /pfs/data5/home/kit/scc/nq7776/code/OGL_DATA/lidDrivenCavity3D/v0.1-136-g40fef35/f584ccac99/IntelXeonGold6230CPU@2.10GHz/Test_2021-07-04-08:13:47/75/p-BiCGStab-GKO-BJ-omp/lidDrivenCavity3D
nProcs : 1
sigFpe : Enabling floating point exception trapping (FOAM_SIGFPE).
fileModificationChecking : Monitoring run-time modified files using timeStampMaster (fileModificationSkew 10)
allowSystemOperations : Allowing user-supplied system call operations

// * * * * * * * * * * * * * * * * * * * * * * * * * * * * * * * * * * * * * //
Create time

Create mesh for time = 0

Reading transportProperties

Reading field p

Reading field U

Reading/calculating face flux field phi


Starting time loop

Time = 0.00133333

Courant Number mean: 0 max: 0
nonePBiCGStab:  Solving for Ux, Initial residual = 1, Final residual = 0.0730231, No Iterations 5
nonePBiCGStab:  Solving for Uy, Initial residual = 0, Final residual = 0, No Iterations 0
nonePBiCGStab:  Solving for Uz, Initial residual = 0, Final residual = 0, No Iterations 0
[OGL LOG] init_host_sparsity_pattern : 124 ms
[OGL LOG] matrix not stored update host matrix
[OGL LOG] update_host_mtx : 62 ms
[OGL LOG] matrix is not yet sorted, compute sorting idxs
[OGL LOG] compute_sort : 3654 ms
[OGL LOG] matrix is not yet sorted, sorting host matrix
[OGL LOG] sort_host_mtx_sparsity_pattern : 80 ms
[OGL LOG] sort_host_mtx : 51 ms
[OGL LOG] init_preconditioner : 18 ms
[OGL LOG] solve : 5767 ms
BJompGKOBiCGStab:  Solving for p, Initial residual = 1, Final residual = 4.64271e-07, No Iterations 415
time step continuity errors : sum local = 2.15177e-08, global = 5.36783e-21, cumulative = 5.36783e-21
[OGL LOG] init_preconditioner : 0 ms
[OGL LOG] solve : 5809 ms
BJompGKOBiCGStab:  Solving for p, Initial residual = 0.697116, Final residual = 7.60809e-07, No Iterations 426
time step continuity errors : sum local = 4.29287e-08, global = -1.04894e-20, cumulative = -5.12158e-21
ExecutionTime = 191.08 s  ClockTime = 18 s

Time = 0.00266667

Courant Number mean: 0.0508076 max: 0.767232
nonePBiCGStab:  Solving for Ux, Initial residual = 0.140596, Final residual = 0.0324555, No Iterations 5
nonePBiCGStab:  Solving for Uy, Initial residual = 0.413641, Final residual = 0.0923545, No Iterations 5
nonePBiCGStab:  Solving for Uz, Initial residual = 0.982937, Final residual = 0.25008, No Iterations 5
[OGL LOG] init_preconditioner : 0 ms
[OGL LOG] solve : 5027 ms
BJompGKOBiCGStab:  Solving for p, Initial residual = 0.746871, Final residual = 7.27354e-07, No Iterations 392
time step continuity errors : sum local = 1.39093e-07, global = -7.1184e-21, cumulative = -1.224e-20
[OGL LOG] init_preconditioner : 0 ms
[OGL LOG] solve : 5173 ms
BJompGKOBiCGStab:  Solving for p, Initial residual = 0.668123, Final residual = 4.71611e-07, No Iterations 400
time step continuity errors : sum local = 8.93478e-08, global = 1.44003e-20, cumulative = 2.16029e-21
ExecutionTime = 354.33 s  ClockTime = 29 s

Time = 0.004

Courant Number mean: 0.0796129 max: 0.886021
nonePBiCGStab:  Solving for Ux, Initial residual = 0.0584453, Final residual = 0.0111464, No Iterations 5
nonePBiCGStab:  Solving for Uy, Initial residual = 0.171992, Final residual = 0.0399134, No Iterations 5
nonePBiCGStab:  Solving for Uz, Initial residual = 0.610096, Final residual = 0.142361, No Iterations 5
[OGL LOG] init_preconditioner : 0 ms
[OGL LOG] solve : 5059 ms
BJompGKOBiCGStab:  Solving for p, Initial residual = 0.730363, Final residual = 9.00143e-07, No Iterations 403
time step continuity errors : sum local = 1.10327e-08, global = -7.22024e-21, cumulative = -5.05995e-21
[OGL LOG] init_preconditioner : 0 ms
[OGL LOG] solve : 5025 ms
BJompGKOBiCGStab:  Solving for p, Initial residual = 0.660918, Final residual = 8.15154e-07, No Iterations 409
time step continuity errors : sum local = 2.64833e-08, global = -2.57381e-20, cumulative = -3.0798e-20
ExecutionTime = 515.92 s  ClockTime = 39 s

Time = 0.00533333

Courant Number mean: 0.0948098 max: 0.902546
nonePBiCGStab:  Solving for Ux, Initial residual = 0.0345936, Final residual = 0.00683012, No Iterations 5
nonePBiCGStab:  Solving for Uy, Initial residual = 0.119557, Final residual = 0.0298347, No Iterations 5
nonePBiCGStab:  Solving for Uz, Initial residual = 0.385915, Final residual = 0.0809424, No Iterations 5
[OGL LOG] init_preconditioner : 0 ms
[OGL LOG] solve : 5215 ms
BJompGKOBiCGStab:  Solving for p, Initial residual = 0.609825, Final residual = 9.92825e-07, No Iterations 410
time step continuity errors : sum local = 1.21916e-09, global = 9.66174e-21, cumulative = -2.11363e-20
[OGL LOG] init_preconditioner : 0 ms
[OGL LOG] solve : 5346 ms
BJompGKOBiCGStab:  Solving for p, Initial residual = 0.521147, Final residual = 8.27497e-07, No Iterations 419
time step continuity errors : sum local = 6.78583e-09, global = 1.94765e-20, cumulative = -1.65973e-21
ExecutionTime = 685.11 s  ClockTime = 50 s

Time = 0.00666667

Courant Number mean: 0.107176 max: 0.916757
nonePBiCGStab:  Solving for Ux, Initial residual = 0.0257284, Final residual = 0.00503025, No Iterations 5
nonePBiCGStab:  Solving for Uy, Initial residual = 0.0750539, Final residual = 0.0208406, No Iterations 5
nonePBiCGStab:  Solving for Uz, Initial residual = 0.212733, Final residual = 0.049566, No Iterations 5
[OGL LOG] init_preconditioner : 0 ms
[OGL LOG] solve : 4221 ms
BJompGKOBiCGStab:  Solving for p, Initial residual = 0.629325, Final residual = 7.36946e-07, No Iterations 336
time step continuity errors : sum local = 4.11667e-08, global = 1.2107e-21, cumulative = -4.49026e-22
[OGL LOG] init_preconditioner : 0 ms
[OGL LOG] solve : 4492 ms
BJompGKOBiCGStab:  Solving for p, Initial residual = 0.552171, Final residual = 8.61271e-07, No Iterations 352
time step continuity errors : sum local = 1.14793e-08, global = -6.33067e-21, cumulative = -6.7797e-21
ExecutionTime = 824.81 s  ClockTime = 59 s

End

