/*---------------------------------------------------------------------------*\
  =========                 |
  \\      /  F ield         | OpenFOAM: The Open Source CFD Toolbox
   \\    /   O peration     | Website:  https://openfoam.org
    \\  /    A nd           | Version:  8
     \\/     M anipulation  |
\*---------------------------------------------------------------------------*/
Build  : 8-13d66902f78c
Exec   : icoFoam
Date   : Jul 04 2021
Time   : 09:57:46
Host   : "uc2n423.localdomain"
PID    : 2486043
I/O    : uncollated
Case   : /pfs/data5/home/kit/scc/nq7776/code/OGL_DATA/lidDrivenCavity3D/v0.1-136-g40fef35/f584ccac99/IntelXeonGold6230CPU@2.10GHz/Test_2021-07-04-08:58:23/75/p-U-BiCGStab-GKO-BJ-omp/lidDrivenCavity3D
nProcs : 1
sigFpe : Enabling floating point exception trapping (FOAM_SIGFPE).
fileModificationChecking : Monitoring run-time modified files using timeStampMaster (fileModificationSkew 10)
allowSystemOperations : Allowing user-supplied system call operations

// * * * * * * * * * * * * * * * * * * * * * * * * * * * * * * * * * * * * * //
Create time

Create mesh for time = 0

Reading transportProperties

Reading field p

Reading field U

Reading/calculating face flux field phi


Starting time loop

Time = 0.00133333

Courant Number mean: 0 max: 0
[OGL LOG] init_host_sparsity_pattern : 121 ms
[OGL LOG] matrix not stored update host matrix
[OGL LOG] update_host_mtx : 61 ms
[OGL LOG] matrix is not yet sorted, compute sorting idxs
[OGL LOG] compute_sort : 3646 ms
[OGL LOG] matrix is not yet sorted, sorting host matrix
[OGL LOG] sort_host_mtx_sparsity_pattern : 78 ms
[OGL LOG] sort_host_mtx : 51 ms
[OGL LOG] init_preconditioner : 61 ms
[OGL LOG] solve : 1666 ms
BJompGKOBiCGStab:  Solving for Ux, Initial residual = 1, Final residual = 8.57454e-07, No Iterations 40
[OGL LOG] init_host_sparsity_pattern : 124 ms
[OGL LOG] matrix not stored update host matrix
[OGL LOG] update_host_mtx : 75 ms
[OGL LOG] matrix is not yet sorted, sorting host matrix
[OGL LOG] sort_host_mtx_sparsity_pattern : 81 ms
[OGL LOG] sort_host_mtx : 43 ms
[OGL LOG] init_preconditioner : 58 ms
[OGL LOG] solve : 33 ms
BJompGKOBiCGStab:  Solving for Uy, Initial residual = 0, Final residual = 0, No Iterations 0
[OGL LOG] init_host_sparsity_pattern : 112 ms
[OGL LOG] matrix not stored update host matrix
[OGL LOG] update_host_mtx : 53 ms
[OGL LOG] matrix is not yet sorted, sorting host matrix
[OGL LOG] sort_host_mtx_sparsity_pattern : 77 ms
[OGL LOG] sort_host_mtx : 48 ms
[OGL LOG] init_preconditioner : 60 ms
[OGL LOG] solve : 65 ms
BJompGKOBiCGStab:  Solving for Uz, Initial residual = 0, Final residual = 0, No Iterations 0
[OGL LOG] init_host_sparsity_pattern : 113 ms
[OGL LOG] matrix not stored update host matrix
[OGL LOG] update_host_mtx : 62 ms
[OGL LOG] matrix is not yet sorted, sorting host matrix
[OGL LOG] sort_host_mtx_sparsity_pattern : 88 ms
[OGL LOG] sort_host_mtx : 43 ms
[OGL LOG] init_preconditioner : 59 ms
[OGL LOG] solve : 17520 ms
BJompGKOBiCGStab:  Solving for p, Initial residual = 1, Final residual = 8.79525e-07, No Iterations 436
time step continuity errors : sum local = 1.3376e-09, global = 1.43223e-21, cumulative = 1.43223e-21
[OGL LOG] init_preconditioner : 0 ms
[OGL LOG] solve : 17123 ms
BJompGKOBiCGStab:  Solving for p, Initial residual = 0.759327, Final residual = 9.31e-07, No Iterations 427
time step continuity errors : sum local = 1.83497e-07, global = 9.79875e-21, cumulative = 1.1231e-20
ExecutionTime = 80.34 s  ClockTime = 44 s

Time = 0.00266667

Courant Number mean: 0.0631769 max: 0.775367
[OGL LOG] init_host_sparsity_pattern : 112 ms
[OGL LOG] matrix not stored update host matrix
[OGL LOG] update_host_mtx : 56 ms
[OGL LOG] matrix is not yet sorted, sorting host matrix
[OGL LOG] sort_host_mtx_sparsity_pattern : 80 ms
[OGL LOG] sort_host_mtx : 43 ms
[OGL LOG] init_preconditioner : 0 ms
[OGL LOG] solve : 1326 ms
BJompGKOBiCGStab:  Solving for Ux, Initial residual = 0.183057, Final residual = 8.36442e-07, No Iterations 32
[OGL LOG] init_host_sparsity_pattern : 111 ms
[OGL LOG] matrix not stored update host matrix
[OGL LOG] update_host_mtx : 53 ms
[OGL LOG] matrix is not yet sorted, sorting host matrix
[OGL LOG] sort_host_mtx_sparsity_pattern : 73 ms
[OGL LOG] sort_host_mtx : 43 ms
[OGL LOG] init_preconditioner : 0 ms
[OGL LOG] solve : 1626 ms
BJompGKOBiCGStab:  Solving for Uy, Initial residual = 0.619605, Final residual = 9.47458e-07, No Iterations 39
[OGL LOG] init_host_sparsity_pattern : 116 ms
[OGL LOG] matrix not stored update host matrix
[OGL LOG] update_host_mtx : 60 ms
[OGL LOG] matrix is not yet sorted, sorting host matrix
[OGL LOG] sort_host_mtx_sparsity_pattern : 73 ms
[OGL LOG] sort_host_mtx : 43 ms
[OGL LOG] init_preconditioner : 0 ms
[OGL LOG] solve : 1704 ms
BJompGKOBiCGStab:  Solving for Uz, Initial residual = 0.605583, Final residual = 9.53674e-07, No Iterations 42
[OGL LOG] init_preconditioner : 0 ms
[OGL LOG] solve : 15542 ms
BJompGKOBiCGStab:  Solving for p, Initial residual = 0.749118, Final residual = 9.17811e-07, No Iterations 388
time step continuity errors : sum local = 2.28286e-09, global = 2.85712e-20, cumulative = 3.98022e-20
[OGL LOG] init_preconditioner : 0 ms
[OGL LOG] solve : 15751 ms
BJompGKOBiCGStab:  Solving for p, Initial residual = 0.68387, Final residual = 8.58609e-07, No Iterations 394
time step continuity errors : sum local = 2.00173e-06, global = 1.73937e-21, cumulative = 4.15416e-20
ExecutionTime = 153.49 s  ClockTime = 81 s

Time = 0.004

Courant Number mean: 0.0951479 max: 0.917101
[OGL LOG] init_host_sparsity_pattern : 112 ms
[OGL LOG] matrix not stored update host matrix
[OGL LOG] update_host_mtx : 55 ms
[OGL LOG] matrix is not yet sorted, sorting host matrix
[OGL LOG] sort_host_mtx_sparsity_pattern : 79 ms
[OGL LOG] sort_host_mtx : 43 ms
[OGL LOG] init_preconditioner : 0 ms
[OGL LOG] solve : 1455 ms
BJompGKOBiCGStab:  Solving for Ux, Initial residual = 0.102273, Final residual = 9.25984e-07, No Iterations 35
[OGL LOG] init_host_sparsity_pattern : 112 ms
[OGL LOG] matrix not stored update host matrix
[OGL LOG] update_host_mtx : 53 ms
[OGL LOG] matrix is not yet sorted, sorting host matrix
[OGL LOG] sort_host_mtx_sparsity_pattern : 73 ms
[OGL LOG] sort_host_mtx : 43 ms
[OGL LOG] init_preconditioner : 0 ms
[OGL LOG] solve : 1539 ms
BJompGKOBiCGStab:  Solving for Uy, Initial residual = 0.334667, Final residual = 3.34595e-07, No Iterations 38
[OGL LOG] init_host_sparsity_pattern : 112 ms
[OGL LOG] matrix not stored update host matrix
[OGL LOG] update_host_mtx : 53 ms
[OGL LOG] matrix is not yet sorted, sorting host matrix
[OGL LOG] sort_host_mtx_sparsity_pattern : 73 ms
[OGL LOG] sort_host_mtx : 43 ms
[OGL LOG] init_preconditioner : 0 ms
[OGL LOG] solve : 1566 ms
BJompGKOBiCGStab:  Solving for Uz, Initial residual = 0.918709, Final residual = 9.73062e-07, No Iterations 38
[OGL LOG] init_preconditioner : 0 ms
[OGL LOG] solve : 17592 ms
BJompGKOBiCGStab:  Solving for p, Initial residual = 0.754724, Final residual = 8.59739e-07, No Iterations 441
time step continuity errors : sum local = 1.58298e-09, global = -2.1065e-21, cumulative = 3.94351e-20
[OGL LOG] init_preconditioner : 0 ms
[OGL LOG] solve : 15448 ms
BJompGKOBiCGStab:  Solving for p, Initial residual = 0.716404, Final residual = 5.40348e-07, No Iterations 387
time step continuity errors : sum local = 9.0758e-10, global = -6.58479e-21, cumulative = 3.28503e-20
ExecutionTime = 229.92 s  ClockTime = 120 s

Time = 0.00533333

Courant Number mean: 0.109266 max: 0.913424
[OGL LOG] init_host_sparsity_pattern : 111 ms
[OGL LOG] matrix not stored update host matrix
[OGL LOG] update_host_mtx : 58 ms
[OGL LOG] matrix is not yet sorted, sorting host matrix
[OGL LOG] sort_host_mtx_sparsity_pattern : 80 ms
[OGL LOG] sort_host_mtx : 43 ms
[OGL LOG] init_preconditioner : 0 ms
[OGL LOG] solve : 1406 ms
BJompGKOBiCGStab:  Solving for Ux, Initial residual = 0.0450075, Final residual = 8.14362e-07, No Iterations 34
[OGL LOG] init_host_sparsity_pattern : 111 ms
[OGL LOG] matrix not stored update host matrix
[OGL LOG] update_host_mtx : 53 ms
[OGL LOG] matrix is not yet sorted, sorting host matrix
[OGL LOG] sort_host_mtx_sparsity_pattern : 73 ms
[OGL LOG] sort_host_mtx : 43 ms
[OGL LOG] init_preconditioner : 0 ms
[OGL LOG] solve : 1518 ms
BJompGKOBiCGStab:  Solving for Uy, Initial residual = 0.197849, Final residual = 9.71104e-07, No Iterations 37
[OGL LOG] init_host_sparsity_pattern : 112 ms
[OGL LOG] matrix not stored update host matrix
[OGL LOG] update_host_mtx : 53 ms
[OGL LOG] matrix is not yet sorted, sorting host matrix
[OGL LOG] sort_host_mtx_sparsity_pattern : 73 ms
[OGL LOG] sort_host_mtx : 43 ms
[OGL LOG] init_preconditioner : 0 ms
[OGL LOG] solve : 1582 ms
BJompGKOBiCGStab:  Solving for Uz, Initial residual = 0.753556, Final residual = 7.43779e-07, No Iterations 39
[OGL LOG] init_preconditioner : 0 ms
[OGL LOG] solve : 16756 ms
BJompGKOBiCGStab:  Solving for p, Initial residual = 0.618185, Final residual = 6.16713e-07, No Iterations 418
time step continuity errors : sum local = 2.121e-09, global = -3.33548e-21, cumulative = 2.95148e-20
[OGL LOG] init_preconditioner : 0 ms
[OGL LOG] solve : 15780 ms
BJompGKOBiCGStab:  Solving for p, Initial residual = 0.555132, Final residual = 9.60535e-07, No Iterations 394
time step continuity errors : sum local = 1.68731e-09, global = -1.6563e-20, cumulative = 1.29518e-20
ExecutionTime = 305.21 s  ClockTime = 158 s

Time = 0.00666667

Courant Number mean: 0.122088 max: 0.929092
[OGL LOG] init_host_sparsity_pattern : 115 ms
[OGL LOG] matrix not stored update host matrix
[OGL LOG] update_host_mtx : 53 ms
[OGL LOG] matrix is not yet sorted, sorting host matrix
[OGL LOG] sort_host_mtx_sparsity_pattern : 79 ms
[OGL LOG] sort_host_mtx : 43 ms
[OGL LOG] init_preconditioner : 0 ms
[OGL LOG] solve : 1054 ms
BJompGKOBiCGStab:  Solving for Ux, Initial residual = 0.0319389, Final residual = 6.42471e-07, No Iterations 26
[OGL LOG] init_host_sparsity_pattern : 112 ms
[OGL LOG] matrix not stored update host matrix
[OGL LOG] update_host_mtx : 53 ms
[OGL LOG] matrix is not yet sorted, sorting host matrix
[OGL LOG] sort_host_mtx_sparsity_pattern : 73 ms
[OGL LOG] sort_host_mtx : 43 ms
[OGL LOG] init_preconditioner : 0 ms
[OGL LOG] solve : 1434 ms
BJompGKOBiCGStab:  Solving for Uy, Initial residual = 0.0811822, Final residual = 7.07161e-07, No Iterations 35
[OGL LOG] init_host_sparsity_pattern : 112 ms
[OGL LOG] matrix not stored update host matrix
[OGL LOG] update_host_mtx : 53 ms
[OGL LOG] matrix is not yet sorted, sorting host matrix
[OGL LOG] sort_host_mtx_sparsity_pattern : 73 ms
[OGL LOG] sort_host_mtx : 43 ms
[OGL LOG] init_preconditioner : 0 ms
[OGL LOG] solve : 1493 ms
BJompGKOBiCGStab:  Solving for Uz, Initial residual = 0.528676, Final residual = 5.98781e-07, No Iterations 37
[OGL LOG] init_preconditioner : 0 ms
[OGL LOG] solve : 17457 ms
BJompGKOBiCGStab:  Solving for p, Initial residual = 0.59276, Final residual = 9.95363e-07, No Iterations 436
time step continuity errors : sum local = 9.04587e-10, global = 2.8675e-20, cumulative = 4.16268e-20
[OGL LOG] init_preconditioner : 0 ms
[OGL LOG] solve : 18386 ms
BJompGKOBiCGStab:  Solving for p, Initial residual = 0.543434, Final residual = 9.57878e-07, No Iterations 458
time step continuity errors : sum local = 8.4687e-10, global = 1.09572e-22, cumulative = 4.17363e-20
ExecutionTime = 386.03 s  ClockTime = 199 s

End

