/*---------------------------------------------------------------------------*\
  =========                 |
  \\      /  F ield         | OpenFOAM: The Open Source CFD Toolbox
   \\    /   O peration     | Website:  https://openfoam.org
    \\  /    A nd           | Version:  8
     \\/     M anipulation  |
\*---------------------------------------------------------------------------*/
Build  : 8-13d66902f78c
Exec   : icoFoam
Date   : Jul 04 2021
Time   : 09:44:56
Host   : "uc2n415.localdomain"
PID    : 2611145
I/O    : uncollated
Case   : /pfs/data5/home/kit/scc/nq7776/code/OGL_DATA/lidDrivenCavity3D/v0.1-136-g40fef35/f584ccac99/IntelXeonGold6230CPU@2.10GHz/Test_2021-07-04-08:36:30/75/p-U-BiCGStab-GKO-none-omp/lidDrivenCavity3D
nProcs : 1
sigFpe : Enabling floating point exception trapping (FOAM_SIGFPE).
fileModificationChecking : Monitoring run-time modified files using timeStampMaster (fileModificationSkew 10)
allowSystemOperations : Allowing user-supplied system call operations

// * * * * * * * * * * * * * * * * * * * * * * * * * * * * * * * * * * * * * //
Create time

Create mesh for time = 0

Reading transportProperties

Reading field p

Reading field U

Reading/calculating face flux field phi


Starting time loop

Time = 0.00133333

Courant Number mean: 0 max: 0
[OGL LOG] init_host_sparsity_pattern : 120 ms
[OGL LOG] matrix not stored update host matrix
[OGL LOG] update_host_mtx : 61 ms
[OGL LOG] matrix is not yet sorted, compute sorting idxs
[OGL LOG] compute_sort : 3627 ms
[OGL LOG] matrix is not yet sorted, sorting host matrix
[OGL LOG] sort_host_mtx_sparsity_pattern : 77 ms
[OGL LOG] sort_host_mtx : 52 ms
[OGL LOG] init_preconditioner : 0 ms
[OGL LOG] solve : 642 ms
noneompGKOBiCGStab:  Solving for Ux, Initial residual = 1, Final residual = 3.51283e-07, No Iterations 51
[OGL LOG] init_host_sparsity_pattern : 117 ms
[OGL LOG] matrix not stored update host matrix
[OGL LOG] update_host_mtx : 62 ms
[OGL LOG] matrix is not yet sorted, sorting host matrix
[OGL LOG] sort_host_mtx_sparsity_pattern : 81 ms
[OGL LOG] sort_host_mtx : 43 ms
[OGL LOG] init_preconditioner : 0 ms
[OGL LOG] solve : 16 ms
noneompGKOBiCGStab:  Solving for Uy, Initial residual = 0, Final residual = 0, No Iterations 0
[OGL LOG] init_host_sparsity_pattern : 112 ms
[OGL LOG] matrix not stored update host matrix
[OGL LOG] update_host_mtx : 53 ms
[OGL LOG] matrix is not yet sorted, sorting host matrix
[OGL LOG] sort_host_mtx_sparsity_pattern : 81 ms
[OGL LOG] sort_host_mtx : 43 ms
[OGL LOG] init_preconditioner : 0 ms
[OGL LOG] solve : 15 ms
noneompGKOBiCGStab:  Solving for Uz, Initial residual = 0, Final residual = 0, No Iterations 0
[OGL LOG] init_host_sparsity_pattern : 118 ms
[OGL LOG] matrix not stored update host matrix
[OGL LOG] update_host_mtx : 62 ms
[OGL LOG] matrix is not yet sorted, sorting host matrix
[OGL LOG] sort_host_mtx_sparsity_pattern : 80 ms
[OGL LOG] sort_host_mtx : 43 ms
[OGL LOG] init_preconditioner : 0 ms
[OGL LOG] solve : 5654 ms
noneompGKOBiCGStab:  Solving for p, Initial residual = 1, Final residual = 9.01179e-07, No Iterations 566
time step continuity errors : sum local = 4.51714e-08, global = -1.9351e-21, cumulative = -1.9351e-21
[OGL LOG] init_preconditioner : 0 ms
[OGL LOG] solve : 4811 ms
noneompGKOBiCGStab:  Solving for p, Initial residual = 0.759335, Final residual = 6.47784e-07, No Iterations 511
time step continuity errors : sum local = 6.23519e-07, global = 1.38496e-21, cumulative = -5.50141e-22
ExecutionTime = 363.76 s  ClockTime = 18 s

Time = 0.00266667

Courant Number mean: 0.0631774 max: 0.775366
[OGL LOG] init_host_sparsity_pattern : 113 ms
[OGL LOG] matrix not stored update host matrix
[OGL LOG] update_host_mtx : 61 ms
[OGL LOG] matrix is not yet sorted, sorting host matrix
[OGL LOG] sort_host_mtx_sparsity_pattern : 93 ms
[OGL LOG] sort_host_mtx : 43 ms
[OGL LOG] init_preconditioner : 0 ms
[OGL LOG] solve : 448 ms
noneompGKOBiCGStab:  Solving for Ux, Initial residual = 0.183128, Final residual = 8.47303e-07, No Iterations 42
[OGL LOG] init_host_sparsity_pattern : 112 ms
[OGL LOG] matrix not stored update host matrix
[OGL LOG] update_host_mtx : 54 ms
[OGL LOG] matrix is not yet sorted, sorting host matrix
[OGL LOG] sort_host_mtx_sparsity_pattern : 74 ms
[OGL LOG] sort_host_mtx : 44 ms
[OGL LOG] init_preconditioner : 0 ms
[OGL LOG] solve : 514 ms
noneompGKOBiCGStab:  Solving for Uy, Initial residual = 0.619543, Final residual = 7.40598e-07, No Iterations 46
[OGL LOG] init_host_sparsity_pattern : 118 ms
[OGL LOG] matrix not stored update host matrix
[OGL LOG] update_host_mtx : 65 ms
[OGL LOG] matrix is not yet sorted, sorting host matrix
[OGL LOG] sort_host_mtx_sparsity_pattern : 76 ms
[OGL LOG] sort_host_mtx : 43 ms
[OGL LOG] init_preconditioner : 0 ms
[OGL LOG] solve : 501 ms
noneompGKOBiCGStab:  Solving for Uz, Initial residual = 0.608235, Final residual = 6.31874e-07, No Iterations 47
[OGL LOG] init_preconditioner : 0 ms
[OGL LOG] solve : 5232 ms
noneompGKOBiCGStab:  Solving for p, Initial residual = 0.749145, Final residual = 8.52152e-07, No Iterations 518
time step continuity errors : sum local = 1.50765e-07, global = -1.53401e-20, cumulative = -1.58902e-20
[OGL LOG] init_preconditioner : 0 ms
[OGL LOG] solve : 5239 ms
noneompGKOBiCGStab:  Solving for p, Initial residual = 0.683827, Final residual = 3.17105e-07, No Iterations 528
time step continuity errors : sum local = 6.38329e-08, global = -2.81285e-20, cumulative = -4.40187e-20
ExecutionTime = 746.95 s  ClockTime = 32 s

Time = 0.004

Courant Number mean: 0.0951522 max: 0.917107
[OGL LOG] init_host_sparsity_pattern : 112 ms
[OGL LOG] matrix not stored update host matrix
[OGL LOG] update_host_mtx : 54 ms
[OGL LOG] matrix is not yet sorted, sorting host matrix
[OGL LOG] sort_host_mtx_sparsity_pattern : 73 ms
[OGL LOG] sort_host_mtx : 44 ms
[OGL LOG] init_preconditioner : 0 ms
[OGL LOG] solve : 452 ms
noneompGKOBiCGStab:  Solving for Ux, Initial residual = 0.102095, Final residual = 9.6747e-07, No Iterations 44
[OGL LOG] init_host_sparsity_pattern : 116 ms
[OGL LOG] matrix not stored update host matrix
[OGL LOG] update_host_mtx : 56 ms
[OGL LOG] matrix is not yet sorted, sorting host matrix
[OGL LOG] sort_host_mtx_sparsity_pattern : 72 ms
[OGL LOG] sort_host_mtx : 43 ms
[OGL LOG] init_preconditioner : 0 ms
[OGL LOG] solve : 454 ms
noneompGKOBiCGStab:  Solving for Uy, Initial residual = 0.335161, Final residual = 7.48917e-07, No Iterations 43
[OGL LOG] init_host_sparsity_pattern : 112 ms
[OGL LOG] matrix not stored update host matrix
[OGL LOG] update_host_mtx : 69 ms
[OGL LOG] matrix is not yet sorted, sorting host matrix
[OGL LOG] sort_host_mtx_sparsity_pattern : 77 ms
[OGL LOG] sort_host_mtx : 43 ms
[OGL LOG] init_preconditioner : 0 ms
[OGL LOG] solve : 500 ms
noneompGKOBiCGStab:  Solving for Uz, Initial residual = 0.927511, Final residual = 6.72107e-07, No Iterations 50
[OGL LOG] init_preconditioner : 0 ms
[OGL LOG] solve : 6012 ms
noneompGKOBiCGStab:  Solving for p, Initial residual = 0.754821, Final residual = 3.91816e-07, No Iterations 580
time step continuity errors : sum local = 3.75284e-07, global = -7.50099e-21, cumulative = -5.15197e-20
[OGL LOG] init_preconditioner : 0 ms
[OGL LOG] solve : 6016 ms
noneompGKOBiCGStab:  Solving for p, Initial residual = 0.716884, Final residual = 8.93429e-07, No Iterations 584
time step continuity errors : sum local = 1.83709e-08, global = 2.1761e-20, cumulative = -2.97587e-20
ExecutionTime = 1178.02 s  ClockTime = 46 s

Time = 0.00533333

Courant Number mean: 0.109257 max: 0.913435
[OGL LOG] init_host_sparsity_pattern : 113 ms
[OGL LOG] matrix not stored update host matrix
[OGL LOG] update_host_mtx : 53 ms
[OGL LOG] matrix is not yet sorted, sorting host matrix
[OGL LOG] sort_host_mtx_sparsity_pattern : 73 ms
[OGL LOG] sort_host_mtx : 43 ms
[OGL LOG] init_preconditioner : 0 ms
[OGL LOG] solve : 382 ms
noneompGKOBiCGStab:  Solving for Ux, Initial residual = 0.0447152, Final residual = 8.34934e-07, No Iterations 39
[OGL LOG] init_host_sparsity_pattern : 112 ms
[OGL LOG] matrix not stored update host matrix
[OGL LOG] update_host_mtx : 53 ms
[OGL LOG] matrix is not yet sorted, sorting host matrix
[OGL LOG] sort_host_mtx_sparsity_pattern : 73 ms
[OGL LOG] sort_host_mtx : 43 ms
[OGL LOG] init_preconditioner : 0 ms
[OGL LOG] solve : 432 ms
noneompGKOBiCGStab:  Solving for Uy, Initial residual = 0.19761, Final residual = 9.75375e-07, No Iterations 42
[OGL LOG] init_host_sparsity_pattern : 112 ms
[OGL LOG] matrix not stored update host matrix
[OGL LOG] update_host_mtx : 53 ms
[OGL LOG] matrix is not yet sorted, sorting host matrix
[OGL LOG] sort_host_mtx_sparsity_pattern : 73 ms
[OGL LOG] sort_host_mtx : 43 ms
[OGL LOG] init_preconditioner : 0 ms
[OGL LOG] solve : 479 ms
noneompGKOBiCGStab:  Solving for Uz, Initial residual = 0.735663, Final residual = 4.39731e-07, No Iterations 47
[OGL LOG] init_preconditioner : 0 ms
[OGL LOG] solve : 5388 ms
noneompGKOBiCGStab:  Solving for p, Initial residual = 0.61741, Final residual = 7.81807e-07, No Iterations 528
time step continuity errors : sum local = 9.82112e-09, global = 5.36704e-21, cumulative = -2.43917e-20
[OGL LOG] init_preconditioner : 0 ms
[OGL LOG] solve : 6170 ms
noneompGKOBiCGStab:  Solving for p, Initial residual = 0.554776, Final residual = 4.6137e-08, No Iterations 599
time step continuity errors : sum local = 2.93169e-08, global = -1.31665e-21, cumulative = -2.57083e-20
ExecutionTime = 1590.43 s  ClockTime = 60 s

Time = 0.00666667

Courant Number mean: 0.122085 max: 0.929083
[OGL LOG] init_host_sparsity_pattern : 112 ms
[OGL LOG] matrix not stored update host matrix
[OGL LOG] update_host_mtx : 54 ms
[OGL LOG] matrix is not yet sorted, sorting host matrix
[OGL LOG] sort_host_mtx_sparsity_pattern : 80 ms
[OGL LOG] sort_host_mtx : 43 ms
[OGL LOG] init_preconditioner : 0 ms
[OGL LOG] solve : 436 ms
noneompGKOBiCGStab:  Solving for Ux, Initial residual = 0.0319035, Final residual = 9.93799e-07, No Iterations 42
[OGL LOG] init_host_sparsity_pattern : 114 ms
[OGL LOG] matrix not stored update host matrix
[OGL LOG] update_host_mtx : 53 ms
[OGL LOG] matrix is not yet sorted, sorting host matrix
[OGL LOG] sort_host_mtx_sparsity_pattern : 73 ms
[OGL LOG] sort_host_mtx : 43 ms
[OGL LOG] init_preconditioner : 0 ms
[OGL LOG] solve : 445 ms
noneompGKOBiCGStab:  Solving for Uy, Initial residual = 0.080553, Final residual = 7.45126e-07, No Iterations 44
[OGL LOG] init_host_sparsity_pattern : 112 ms
[OGL LOG] matrix not stored update host matrix
[OGL LOG] update_host_mtx : 53 ms
[OGL LOG] matrix is not yet sorted, sorting host matrix
[OGL LOG] sort_host_mtx_sparsity_pattern : 73 ms
[OGL LOG] sort_host_mtx : 43 ms
[OGL LOG] init_preconditioner : 0 ms
[OGL LOG] solve : 486 ms
noneompGKOBiCGStab:  Solving for Uz, Initial residual = 0.514001, Final residual = 8.19733e-07, No Iterations 47
[OGL LOG] init_preconditioner : 0 ms
[OGL LOG] solve : 5201 ms
noneompGKOBiCGStab:  Solving for p, Initial residual = 0.592057, Final residual = 8.03027e-07, No Iterations 525
time step continuity errors : sum local = 5.78389e-08, global = 7.0245e-21, cumulative = -1.86838e-20
[OGL LOG] init_preconditioner : 0 ms
[OGL LOG] solve : 5259 ms
noneompGKOBiCGStab:  Solving for p, Initial residual = 0.543144, Final residual = 5.46267e-07, No Iterations 540
time step continuity errors : sum local = 9.03388e-10, global = 5.76526e-21, cumulative = -1.29186e-20
ExecutionTime = 1970.19 s  ClockTime = 74 s

End

