/*---------------------------------------------------------------------------*\
  =========                 |
  \\      /  F ield         | OpenFOAM: The Open Source CFD Toolbox
   \\    /   O peration     | Website:  https://openfoam.org
    \\  /    A nd           | Version:  8
     \\/     M anipulation  |
\*---------------------------------------------------------------------------*/
Build  : 8-13d66902f78c
Exec   : icoFoam
Date   : Jul 04 2021
Time   : 08:17:27
Host   : "uc2n420.localdomain"
PID    : 1123509
I/O    : uncollated
Case   : /pfs/data5/home/kit/scc/nq7776/code/OGL_DATA/lidDrivenCavity3D/v0.1-136-g40fef35/f584ccac99/IntelXeonGold6230CPU@2.10GHz/Test_2021-07-04-07:18:41/75/p-BiCGStab-GKO-none-omp/lidDrivenCavity3D
nProcs : 1
sigFpe : Enabling floating point exception trapping (FOAM_SIGFPE).
fileModificationChecking : Monitoring run-time modified files using timeStampMaster (fileModificationSkew 10)
allowSystemOperations : Allowing user-supplied system call operations

// * * * * * * * * * * * * * * * * * * * * * * * * * * * * * * * * * * * * * //
Create time

Create mesh for time = 0

Reading transportProperties

Reading field p

Reading field U

Reading/calculating face flux field phi


Starting time loop

Time = 0.00133333

Courant Number mean: 0 max: 0
nonePBiCGStab:  Solving for Ux, Initial residual = 1, Final residual = 0.0730231, No Iterations 5
nonePBiCGStab:  Solving for Uy, Initial residual = 0, Final residual = 0, No Iterations 0
nonePBiCGStab:  Solving for Uz, Initial residual = 0, Final residual = 0, No Iterations 0
[OGL LOG] init_host_sparsity_pattern : 123 ms
[OGL LOG] matrix not stored update host matrix
[OGL LOG] update_host_mtx : 62 ms
[OGL LOG] matrix is not yet sorted, compute sorting idxs
[OGL LOG] compute_sort : 3664 ms
[OGL LOG] matrix is not yet sorted, sorting host matrix
[OGL LOG] sort_host_mtx_sparsity_pattern : 81 ms
[OGL LOG] sort_host_mtx : 53 ms
[OGL LOG] init_preconditioner : 0 ms
[OGL LOG] solve : 5325 ms
noneompGKOBiCGStab:  Solving for p, Initial residual = 1, Final residual = 9.08386e-07, No Iterations 522
time step continuity errors : sum local = 1.11903e-09, global = -2.02615e-21, cumulative = -2.02615e-21
[OGL LOG] init_preconditioner : 0 ms
[OGL LOG] solve : 5016 ms
noneompGKOBiCGStab:  Solving for p, Initial residual = 0.697109, Final residual = 9.05543e-07, No Iterations 527
time step continuity errors : sum local = 5.54969e-09, global = -7.07607e-21, cumulative = -9.10223e-21
ExecutionTime = 336.32 s  ClockTime = 17 s

Time = 0.00266667

Courant Number mean: 0.0508075 max: 0.767232
nonePBiCGStab:  Solving for Ux, Initial residual = 0.140594, Final residual = 0.0324538, No Iterations 5
nonePBiCGStab:  Solving for Uy, Initial residual = 0.413642, Final residual = 0.0923281, No Iterations 5
nonePBiCGStab:  Solving for Uz, Initial residual = 0.983174, Final residual = 0.249894, No Iterations 5
[OGL LOG] init_preconditioner : 0 ms
[OGL LOG] solve : 5381 ms
noneompGKOBiCGStab:  Solving for p, Initial residual = 0.746893, Final residual = 8.93272e-07, No Iterations 539
time step continuity errors : sum local = 9.85327e-09, global = 3.30446e-21, cumulative = -5.79776e-21
[OGL LOG] init_preconditioner : 0 ms
[OGL LOG] solve : 5219 ms
noneompGKOBiCGStab:  Solving for p, Initial residual = 0.668131, Final residual = 5.995e-07, No Iterations 559
time step continuity errors : sum local = 1.55474e-07, global = 1.13487e-20, cumulative = 5.55093e-21
ExecutionTime = 675.32 s  ClockTime = 28 s

Time = 0.004

Courant Number mean: 0.0796134 max: 0.886021
nonePBiCGStab:  Solving for Ux, Initial residual = 0.0584444, Final residual = 0.0111466, No Iterations 5
nonePBiCGStab:  Solving for Uy, Initial residual = 0.171982, Final residual = 0.0398942, No Iterations 5
nonePBiCGStab:  Solving for Uz, Initial residual = 0.609949, Final residual = 0.142004, No Iterations 5
[OGL LOG] init_preconditioner : 0 ms
[OGL LOG] solve : 5271 ms
noneompGKOBiCGStab:  Solving for p, Initial residual = 0.730372, Final residual = 5.63595e-07, No Iterations 533
time step continuity errors : sum local = 6.05903e-07, global = 3.1105e-21, cumulative = 8.66144e-21
[OGL LOG] init_preconditioner : 0 ms
[OGL LOG] solve : 5202 ms
noneompGKOBiCGStab:  Solving for p, Initial residual = 0.66105, Final residual = 7.36595e-07, No Iterations 528
time step continuity errors : sum local = 3.67557e-07, global = -6.44477e-21, cumulative = 2.21666e-21
ExecutionTime = 1010.3 s  ClockTime = 39 s

Time = 0.00533333

Courant Number mean: 0.0948101 max: 0.902546
nonePBiCGStab:  Solving for Ux, Initial residual = 0.0345803, Final residual = 0.00683192, No Iterations 5
nonePBiCGStab:  Solving for Uy, Initial residual = 0.119618, Final residual = 0.0301437, No Iterations 5
nonePBiCGStab:  Solving for Uz, Initial residual = 0.389088, Final residual = 0.0836763, No Iterations 5
[OGL LOG] init_preconditioner : 0 ms
[OGL LOG] solve : 4993 ms
noneompGKOBiCGStab:  Solving for p, Initial residual = 0.610042, Final residual = 5.62571e-07, No Iterations 510
time step continuity errors : sum local = 3.32611e-08, global = 1.05436e-20, cumulative = 1.27603e-20
[OGL LOG] init_preconditioner : 0 ms
[OGL LOG] solve : 5461 ms
noneompGKOBiCGStab:  Solving for p, Initial residual = 0.521273, Final residual = 4.51631e-07, No Iterations 557
time step continuity errors : sum local = 1.38593e-07, global = 3.74494e-21, cumulative = 1.65052e-20
ExecutionTime = 1344.69 s  ClockTime = 50 s

Time = 0.00666667

Courant Number mean: 0.107164 max: 0.916738
nonePBiCGStab:  Solving for Ux, Initial residual = 0.0257398, Final residual = 0.00503722, No Iterations 5
nonePBiCGStab:  Solving for Uy, Initial residual = 0.0751085, Final residual = 0.0210217, No Iterations 5
nonePBiCGStab:  Solving for Uz, Initial residual = 0.214407, Final residual = 0.0507032, No Iterations 5
[OGL LOG] init_preconditioner : 0 ms
[OGL LOG] solve : 4580 ms
noneompGKOBiCGStab:  Solving for p, Initial residual = 0.62957, Final residual = 6.30895e-07, No Iterations 470
time step continuity errors : sum local = 8.62498e-08, global = 1.62055e-20, cumulative = 3.27107e-20
[OGL LOG] init_preconditioner : 0 ms
[OGL LOG] solve : 4511 ms
noneompGKOBiCGStab:  Solving for p, Initial residual = 0.552328, Final residual = 9.5937e-07, No Iterations 469
time step continuity errors : sum local = 5.94642e-09, global = 1.5837e-20, cumulative = 4.85478e-20
ExecutionTime = 1635.59 s  ClockTime = 60 s

End

