/*---------------------------------------------------------------------------*\
  =========                 |
  \\      /  F ield         | OpenFOAM: The Open Source CFD Toolbox
   \\    /   O peration     | Website:  https://openfoam.org
    \\  /    A nd           | Version:  8
     \\/     M anipulation  |
\*---------------------------------------------------------------------------*/
Build  : 8-13d66902f78c
Exec   : icoFoam
Date   : Jul 04 2021
Time   : 07:59:50
Host   : "uc2n420.localdomain"
PID    : 1122153
I/O    : uncollated
Case   : /pfs/data5/home/kit/scc/nq7776/code/OGL_DATA/lidDrivenCavity3D/v0.1-136-g40fef35/f584ccac99/IntelXeonGold6230CPU@2.10GHz/Test_2021-07-04-07:18:41/75/p-BiCGStab-GKO-none-omp/lidDrivenCavity3D
nProcs : 1
sigFpe : Enabling floating point exception trapping (FOAM_SIGFPE).
fileModificationChecking : Monitoring run-time modified files using timeStampMaster (fileModificationSkew 10)
allowSystemOperations : Allowing user-supplied system call operations

// * * * * * * * * * * * * * * * * * * * * * * * * * * * * * * * * * * * * * //
Create time

Create mesh for time = 0

Reading transportProperties

Reading field p

Reading field U

Reading/calculating face flux field phi


Starting time loop

Time = 0.00133333

Courant Number mean: 0 max: 0
nonePBiCGStab:  Solving for Ux, Initial residual = 1, Final residual = 0.0730231, No Iterations 5
nonePBiCGStab:  Solving for Uy, Initial residual = 0, Final residual = 0, No Iterations 0
nonePBiCGStab:  Solving for Uz, Initial residual = 0, Final residual = 0, No Iterations 0
[OGL LOG] init_host_sparsity_pattern : 125 ms
[OGL LOG] matrix not stored update host matrix
[OGL LOG] update_host_mtx : 61 ms
[OGL LOG] matrix is not yet sorted, compute sorting idxs
[OGL LOG] compute_sort : 3665 ms
[OGL LOG] matrix is not yet sorted, sorting host matrix
[OGL LOG] sort_host_mtx_sparsity_pattern : 82 ms
[OGL LOG] sort_host_mtx : 52 ms
[OGL LOG] init_preconditioner : 0 ms
[OGL LOG] solve : 6725 ms
noneompGKOBiCGStab:  Solving for p, Initial residual = 1, Final residual = 9.08386e-07, No Iterations 522
time step continuity errors : sum local = 1.11903e-09, global = -2.02615e-21, cumulative = -2.02615e-21
[OGL LOG] init_preconditioner : 0 ms
[OGL LOG] solve : 6425 ms
noneompGKOBiCGStab:  Solving for p, Initial residual = 0.697109, Final residual = 9.05543e-07, No Iterations 527
time step continuity errors : sum local = 2.45932e-09, global = -7.05994e-21, cumulative = -9.0861e-21
ExecutionTime = 58.57 s  ClockTime = 19 s

Time = 0.00266667

Courant Number mean: 0.0508075 max: 0.767232
nonePBiCGStab:  Solving for Ux, Initial residual = 0.140594, Final residual = 0.0324538, No Iterations 5
nonePBiCGStab:  Solving for Uy, Initial residual = 0.413642, Final residual = 0.0923282, No Iterations 5
nonePBiCGStab:  Solving for Uz, Initial residual = 0.983182, Final residual = 0.249897, No Iterations 5
[OGL LOG] init_preconditioner : 0 ms
[OGL LOG] solve : 6652 ms
noneompGKOBiCGStab:  Solving for p, Initial residual = 0.746894, Final residual = 1.7325e-08, No Iterations 527
time step continuity errors : sum local = 8.04307e-08, global = 1.09322e-20, cumulative = 1.84612e-21
[OGL LOG] init_preconditioner : 0 ms
[OGL LOG] solve : 6750 ms
noneompGKOBiCGStab:  Solving for p, Initial residual = 0.668118, Final residual = 8.4286e-07, No Iterations 542
time step continuity errors : sum local = 1.8867e-06, global = -6.02179e-22, cumulative = 1.24394e-21
ExecutionTime = 112.6 s  ClockTime = 33 s

Time = 0.004

Courant Number mean: 0.0796142 max: 0.886022
nonePBiCGStab:  Solving for Ux, Initial residual = 0.0584144, Final residual = 0.011141, No Iterations 5
nonePBiCGStab:  Solving for Uy, Initial residual = 0.172238, Final residual = 0.0401595, No Iterations 5
nonePBiCGStab:  Solving for Uz, Initial residual = 0.60595, Final residual = 0.14679, No Iterations 5
[OGL LOG] init_preconditioner : 0 ms
[OGL LOG] solve : 6353 ms
noneompGKOBiCGStab:  Solving for p, Initial residual = 0.73024, Final residual = 5.38907e-07, No Iterations 503
time step continuity errors : sum local = 9.10039e-08, global = -4.28913e-21, cumulative = -3.04519e-21
[OGL LOG] init_preconditioner : 0 ms
[OGL LOG] solve : 6373 ms
noneompGKOBiCGStab:  Solving for p, Initial residual = 0.660936, Final residual = 8.59495e-07, No Iterations 512
time step continuity errors : sum local = 6.64341e-08, global = 5.63533e-21, cumulative = 2.59014e-21
ExecutionTime = 163.93 s  ClockTime = 46 s

Time = 0.00533333

Courant Number mean: 0.0948048 max: 0.902528
nonePBiCGStab:  Solving for Ux, Initial residual = 0.0346124, Final residual = 0.00686225, No Iterations 5
nonePBiCGStab:  Solving for Uy, Initial residual = 0.119604, Final residual = 0.0304301, No Iterations 5
nonePBiCGStab:  Solving for Uz, Initial residual = 0.387908, Final residual = 0.0841684, No Iterations 5
[OGL LOG] init_preconditioner : 0 ms
[OGL LOG] solve : 6196 ms
noneompGKOBiCGStab:  Solving for p, Initial residual = 0.609985, Final residual = 6.07294e-07, No Iterations 498
time step continuity errors : sum local = 6.34405e-08, global = -6.74974e-21, cumulative = -4.1596e-21
[OGL LOG] init_preconditioner : 0 ms
[OGL LOG] solve : 6210 ms
noneompGKOBiCGStab:  Solving for p, Initial residual = 0.521163, Final residual = 9.71795e-07, No Iterations 505
time step continuity errors : sum local = 4.22452e-08, global = 2.20088e-20, cumulative = 1.78492e-20
ExecutionTime = 213.93 s  ClockTime = 59 s

Time = 0.00666667

Courant Number mean: 0.107143 max: 0.916719
nonePBiCGStab:  Solving for Ux, Initial residual = 0.0257271, Final residual = 0.00501405, No Iterations 5
nonePBiCGStab:  Solving for Uy, Initial residual = 0.0752137, Final residual = 0.0212889, No Iterations 5
nonePBiCGStab:  Solving for Uz, Initial residual = 0.215416, Final residual = 0.0494949, No Iterations 5
[OGL LOG] init_preconditioner : 0 ms
[OGL LOG] solve : 5840 ms
noneompGKOBiCGStab:  Solving for p, Initial residual = 0.630544, Final residual = 9.948e-07, No Iterations 470
time step continuity errors : sum local = 4.1101e-08, global = -1.52584e-20, cumulative = 2.59079e-21
[OGL LOG] init_preconditioner : 0 ms
[OGL LOG] solve : 6676 ms
noneompGKOBiCGStab:  Solving for p, Initial residual = 0.553093, Final residual = 9.61162e-07, No Iterations 541
time step continuity errors : sum local = 1.21663e-09, global = -1.7768e-20, cumulative = -1.51772e-20
ExecutionTime = 264.39 s  ClockTime = 72 s

End

