/*---------------------------------------------------------------------------*\
  =========                 |
  \\      /  F ield         | OpenFOAM: The Open Source CFD Toolbox
   \\    /   O peration     | Website:  https://openfoam.org
    \\  /    A nd           | Version:  8
     \\/     M anipulation  |
\*---------------------------------------------------------------------------*/
Build  : 8-13d66902f78c
Exec   : icoFoam
Date   : Jul 04 2021
Time   : 09:28:05
Host   : "uc2n399.localdomain"
PID    : 2502097
I/O    : uncollated
Case   : /pfs/data5/home/kit/scc/nq7776/code/OGL_DATA/lidDrivenCavity3D/v0.1-136-g40fef35/f584ccac99/IntelXeonGold6230CPU@2.10GHz/Test_2021-07-04-08:36:30/75/p-U-CG-GKO-none-omp/lidDrivenCavity3D
nProcs : 1
sigFpe : Enabling floating point exception trapping (FOAM_SIGFPE).
fileModificationChecking : Monitoring run-time modified files using timeStampMaster (fileModificationSkew 10)
allowSystemOperations : Allowing user-supplied system call operations

// * * * * * * * * * * * * * * * * * * * * * * * * * * * * * * * * * * * * * //
Create time

Create mesh for time = 0

Reading transportProperties

Reading field p

Reading field U

Reading/calculating face flux field phi


Starting time loop

Time = 0.00133333

Courant Number mean: 0 max: 0
[OGL LOG] init_host_sparsity_pattern : 120 ms
[OGL LOG] matrix not stored update host matrix
[OGL LOG] update_host_mtx : 61 ms
[OGL LOG] matrix is not yet sorted, compute sorting idxs
[OGL LOG] compute_sort : 3627 ms
[OGL LOG] matrix is not yet sorted, sorting host matrix
[OGL LOG] sort_host_mtx_sparsity_pattern : 77 ms
[OGL LOG] sort_host_mtx : 52 ms
[OGL LOG] init_preconditioner : 0 ms
[OGL LOG] solve : 554 ms
noneompGKOBiCGStab:  Solving for Ux, Initial residual = 1, Final residual = 3.51283e-07, No Iterations 51
[OGL LOG] init_host_sparsity_pattern : 116 ms
[OGL LOG] matrix not stored update host matrix
[OGL LOG] update_host_mtx : 62 ms
[OGL LOG] matrix is not yet sorted, sorting host matrix
[OGL LOG] sort_host_mtx_sparsity_pattern : 81 ms
[OGL LOG] sort_host_mtx : 43 ms
[OGL LOG] init_preconditioner : 0 ms
[OGL LOG] solve : 15 ms
noneompGKOBiCGStab:  Solving for Uy, Initial residual = 0, Final residual = 0, No Iterations 0
[OGL LOG] init_host_sparsity_pattern : 112 ms
[OGL LOG] matrix not stored update host matrix
[OGL LOG] update_host_mtx : 53 ms
[OGL LOG] matrix is not yet sorted, sorting host matrix
[OGL LOG] sort_host_mtx_sparsity_pattern : 81 ms
[OGL LOG] sort_host_mtx : 43 ms
[OGL LOG] init_preconditioner : 0 ms
[OGL LOG] solve : 12 ms
noneompGKOBiCGStab:  Solving for Uz, Initial residual = 0, Final residual = 0, No Iterations 0
[OGL LOG] init_host_sparsity_pattern : 111 ms
[OGL LOG] matrix not stored update host matrix
[OGL LOG] update_host_mtx : 67 ms
[OGL LOG] matrix is not yet sorted, sorting host matrix
[OGL LOG] sort_host_mtx_sparsity_pattern : 82 ms
[OGL LOG] sort_host_mtx : 43 ms
[OGL LOG] init_preconditioner : 0 ms
[OGL LOG] solve : 3394 ms
noneompGKOCG:  Solving for p, Initial residual = 1, Final residual = 9.25016e-07, No Iterations 671
time step continuity errors : sum local = 8.44899e-10, global = -8.2491e-21, cumulative = -8.2491e-21
[OGL LOG] init_preconditioner : 0 ms
[OGL LOG] solve : 3213 ms
noneompGKOCG:  Solving for p, Initial residual = 0.759326, Final residual = 8.8602e-07, No Iterations 667
time step continuity errors : sum local = 1.036e-09, global = -7.29029e-21, cumulative = -1.55394e-20
ExecutionTime = 237.64 s  ClockTime = 14 s

Time = 0.00266667

Courant Number mean: 0.0631769 max: 0.775367
[OGL LOG] init_host_sparsity_pattern : 113 ms
[OGL LOG] matrix not stored update host matrix
[OGL LOG] update_host_mtx : 58 ms
[OGL LOG] matrix is not yet sorted, sorting host matrix
[OGL LOG] sort_host_mtx_sparsity_pattern : 86 ms
[OGL LOG] sort_host_mtx : 43 ms
[OGL LOG] init_preconditioner : 0 ms
[OGL LOG] solve : 462 ms
noneompGKOBiCGStab:  Solving for Ux, Initial residual = 0.183034, Final residual = 9.76925e-07, No Iterations 41
[OGL LOG] init_host_sparsity_pattern : 111 ms
[OGL LOG] matrix not stored update host matrix
[OGL LOG] update_host_mtx : 53 ms
[OGL LOG] matrix is not yet sorted, sorting host matrix
[OGL LOG] sort_host_mtx_sparsity_pattern : 73 ms
[OGL LOG] sort_host_mtx : 43 ms
[OGL LOG] init_preconditioner : 0 ms
[OGL LOG] solve : 525 ms
noneompGKOBiCGStab:  Solving for Uy, Initial residual = 0.619629, Final residual = 8.78563e-07, No Iterations 45
[OGL LOG] init_host_sparsity_pattern : 121 ms
[OGL LOG] matrix not stored update host matrix
[OGL LOG] update_host_mtx : 67 ms
[OGL LOG] matrix is not yet sorted, sorting host matrix
[OGL LOG] sort_host_mtx_sparsity_pattern : 76 ms
[OGL LOG] sort_host_mtx : 43 ms
[OGL LOG] init_preconditioner : 0 ms
[OGL LOG] solve : 519 ms
noneompGKOBiCGStab:  Solving for Uz, Initial residual = 0.60471, Final residual = 9.68544e-07, No Iterations 47
[OGL LOG] init_preconditioner : 0 ms
[OGL LOG] solve : 3260 ms
noneompGKOCG:  Solving for p, Initial residual = 0.749129, Final residual = 9.98159e-07, No Iterations 644
time step continuity errors : sum local = 1.42124e-09, global = -1.7828e-20, cumulative = -3.33674e-20
[OGL LOG] init_preconditioner : 0 ms
[OGL LOG] solve : 3293 ms
noneompGKOCG:  Solving for p, Initial residual = 0.683906, Final residual = 9.64371e-07, No Iterations 643
time step continuity errors : sum local = 1.40348e-09, global = 3.73041e-21, cumulative = -2.9637e-20
ExecutionTime = 497.22 s  ClockTime = 23 s

Time = 0.004

Courant Number mean: 0.0951461 max: 0.917097
[OGL LOG] init_host_sparsity_pattern : 112 ms
[OGL LOG] matrix not stored update host matrix
[OGL LOG] update_host_mtx : 57 ms
[OGL LOG] matrix is not yet sorted, sorting host matrix
[OGL LOG] sort_host_mtx_sparsity_pattern : 79 ms
[OGL LOG] sort_host_mtx : 43 ms
[OGL LOG] init_preconditioner : 0 ms
[OGL LOG] solve : 453 ms
noneompGKOBiCGStab:  Solving for Ux, Initial residual = 0.101944, Final residual = 9.33364e-07, No Iterations 42
[OGL LOG] init_host_sparsity_pattern : 112 ms
[OGL LOG] matrix not stored update host matrix
[OGL LOG] update_host_mtx : 53 ms
[OGL LOG] matrix is not yet sorted, sorting host matrix
[OGL LOG] sort_host_mtx_sparsity_pattern : 72 ms
[OGL LOG] sort_host_mtx : 43 ms
[OGL LOG] init_preconditioner : 0 ms
[OGL LOG] solve : 491 ms
noneompGKOBiCGStab:  Solving for Uy, Initial residual = 0.335433, Final residual = 8.57252e-07, No Iterations 45
[OGL LOG] init_host_sparsity_pattern : 111 ms
[OGL LOG] matrix not stored update host matrix
[OGL LOG] update_host_mtx : 60 ms
[OGL LOG] matrix is not yet sorted, sorting host matrix
[OGL LOG] sort_host_mtx_sparsity_pattern : 77 ms
[OGL LOG] sort_host_mtx : 43 ms
[OGL LOG] init_preconditioner : 0 ms
[OGL LOG] solve : 471 ms
noneompGKOBiCGStab:  Solving for Uz, Initial residual = 0.920733, Final residual = 7.64348e-07, No Iterations 46
[OGL LOG] init_preconditioner : 0 ms
[OGL LOG] solve : 3202 ms
noneompGKOCG:  Solving for p, Initial residual = 0.754753, Final residual = 9.73597e-07, No Iterations 663
time step continuity errors : sum local = 1.14444e-09, global = -3.49648e-21, cumulative = -3.31334e-20
[OGL LOG] init_preconditioner : 0 ms
[OGL LOG] solve : 3386 ms
noneompGKOCG:  Solving for p, Initial residual = 0.71702, Final residual = 9.87966e-07, No Iterations 661
time step continuity errors : sum local = 1.12693e-09, global = -5.92559e-21, cumulative = -3.9059e-20
ExecutionTime = 754.97 s  ClockTime = 33 s

Time = 0.00533333

Courant Number mean: 0.109256 max: 0.913435
[OGL LOG] init_host_sparsity_pattern : 113 ms
[OGL LOG] matrix not stored update host matrix
[OGL LOG] update_host_mtx : 57 ms
[OGL LOG] matrix is not yet sorted, sorting host matrix
[OGL LOG] sort_host_mtx_sparsity_pattern : 80 ms
[OGL LOG] sort_host_mtx : 43 ms
[OGL LOG] init_preconditioner : 0 ms
[OGL LOG] solve : 380 ms
noneompGKOBiCGStab:  Solving for Ux, Initial residual = 0.0446965, Final residual = 7.08361e-07, No Iterations 37
[OGL LOG] init_host_sparsity_pattern : 111 ms
[OGL LOG] matrix not stored update host matrix
[OGL LOG] update_host_mtx : 53 ms
[OGL LOG] matrix is not yet sorted, sorting host matrix
[OGL LOG] sort_host_mtx_sparsity_pattern : 73 ms
[OGL LOG] sort_host_mtx : 44 ms
[OGL LOG] init_preconditioner : 0 ms
[OGL LOG] solve : 446 ms
noneompGKOBiCGStab:  Solving for Uy, Initial residual = 0.197564, Final residual = 8.69551e-07, No Iterations 42
[OGL LOG] init_host_sparsity_pattern : 111 ms
[OGL LOG] matrix not stored update host matrix
[OGL LOG] update_host_mtx : 53 ms
[OGL LOG] matrix is not yet sorted, sorting host matrix
[OGL LOG] sort_host_mtx_sparsity_pattern : 72 ms
[OGL LOG] sort_host_mtx : 43 ms
[OGL LOG] init_preconditioner : 0 ms
[OGL LOG] solve : 506 ms
noneompGKOBiCGStab:  Solving for Uz, Initial residual = 0.732472, Final residual = 8.87889e-07, No Iterations 47
[OGL LOG] init_preconditioner : 0 ms
[OGL LOG] solve : 3366 ms
noneompGKOCG:  Solving for p, Initial residual = 0.617352, Final residual = 9.81961e-07, No Iterations 661
time step continuity errors : sum local = 1.02314e-09, global = -1.79756e-20, cumulative = -5.70346e-20
[OGL LOG] init_preconditioner : 0 ms
[OGL LOG] solve : 3375 ms
noneompGKOCG:  Solving for p, Initial residual = 0.554745, Final residual = 9.77587e-07, No Iterations 659
time step continuity errors : sum local = 1.03318e-09, global = 1.51478e-20, cumulative = -4.18868e-20
ExecutionTime = 1015.05 s  ClockTime = 42 s

Time = 0.00666667

Courant Number mean: 0.122085 max: 0.929081
[OGL LOG] init_host_sparsity_pattern : 111 ms
[OGL LOG] matrix not stored update host matrix
[OGL LOG] update_host_mtx : 57 ms
[OGL LOG] matrix is not yet sorted, sorting host matrix
[OGL LOG] sort_host_mtx_sparsity_pattern : 80 ms
[OGL LOG] sort_host_mtx : 43 ms
[OGL LOG] init_preconditioner : 0 ms
[OGL LOG] solve : 435 ms
noneompGKOBiCGStab:  Solving for Ux, Initial residual = 0.0319076, Final residual = 8.73994e-07, No Iterations 39
[OGL LOG] init_host_sparsity_pattern : 112 ms
[OGL LOG] matrix not stored update host matrix
[OGL LOG] update_host_mtx : 55 ms
[OGL LOG] matrix is not yet sorted, sorting host matrix
[OGL LOG] sort_host_mtx_sparsity_pattern : 74 ms
[OGL LOG] sort_host_mtx : 45 ms
[OGL LOG] init_preconditioner : 0 ms
[OGL LOG] solve : 440 ms
noneompGKOBiCGStab:  Solving for Uy, Initial residual = 0.0804634, Final residual = 8.42823e-07, No Iterations 40
[OGL LOG] init_host_sparsity_pattern : 113 ms
[OGL LOG] matrix not stored update host matrix
[OGL LOG] update_host_mtx : 54 ms
[OGL LOG] matrix is not yet sorted, sorting host matrix
[OGL LOG] sort_host_mtx_sparsity_pattern : 74 ms
[OGL LOG] sort_host_mtx : 44 ms
[OGL LOG] init_preconditioner : 0 ms
[OGL LOG] solve : 478 ms
noneompGKOBiCGStab:  Solving for Uz, Initial residual = 0.513487, Final residual = 9.46079e-07, No Iterations 43
[OGL LOG] init_preconditioner : 0 ms
[OGL LOG] solve : 3482 ms
noneompGKOCG:  Solving for p, Initial residual = 0.591989, Final residual = 9.66508e-07, No Iterations 666
time step continuity errors : sum local = 8.08948e-10, global = -2.54043e-20, cumulative = -6.72911e-20
[OGL LOG] init_preconditioner : 0 ms
[OGL LOG] solve : 3495 ms
noneompGKOCG:  Solving for p, Initial residual = 0.543116, Final residual = 8.99717e-07, No Iterations 666
time step continuity errors : sum local = 7.43722e-10, global = 1.24853e-20, cumulative = -5.48058e-20
ExecutionTime = 1283.34 s  ClockTime = 52 s

End

