/*---------------------------------------------------------------------------*\
  =========                 |
  \\      /  F ield         | OpenFOAM: The Open Source CFD Toolbox
   \\    /   O peration     | Website:  https://openfoam.org
    \\  /    A nd           | Version:  8
     \\/     M anipulation  |
\*---------------------------------------------------------------------------*/
Build  : 8-13d66902f78c
Exec   : icoFoam
Date   : Jul 04 2021
Time   : 10:26:42
Host   : "uc2n423.localdomain"
PID    : 2487888
I/O    : uncollated
Case   : /pfs/data5/home/kit/scc/nq7776/code/OGL_DATA/lidDrivenCavity3D/v0.1-136-g40fef35/f584ccac99/IntelXeonGold6230CPU@2.10GHz/Test_2021-07-04-08:58:23/75/p-U-BiCGStab-GKO-BJ-omp/lidDrivenCavity3D
nProcs : 1
sigFpe : Enabling floating point exception trapping (FOAM_SIGFPE).
fileModificationChecking : Monitoring run-time modified files using timeStampMaster (fileModificationSkew 10)
allowSystemOperations : Allowing user-supplied system call operations

// * * * * * * * * * * * * * * * * * * * * * * * * * * * * * * * * * * * * * //
Create time

Create mesh for time = 0

Reading transportProperties

Reading field p

Reading field U

Reading/calculating face flux field phi


Starting time loop

Time = 0.00133333

Courant Number mean: 0 max: 0
[OGL LOG] init_host_sparsity_pattern : 120 ms
[OGL LOG] matrix not stored update host matrix
[OGL LOG] update_host_mtx : 61 ms
[OGL LOG] matrix is not yet sorted, compute sorting idxs
[OGL LOG] compute_sort : 3649 ms
[OGL LOG] matrix is not yet sorted, sorting host matrix
[OGL LOG] sort_host_mtx_sparsity_pattern : 80 ms
[OGL LOG] sort_host_mtx : 52 ms
[OGL LOG] init_preconditioner : 19 ms
[OGL LOG] solve : 677 ms
BJompGKOBiCGStab:  Solving for Ux, Initial residual = 1, Final residual = 8.57454e-07, No Iterations 40
[OGL LOG] init_host_sparsity_pattern : 117 ms
[OGL LOG] matrix not stored update host matrix
[OGL LOG] update_host_mtx : 62 ms
[OGL LOG] matrix is not yet sorted, sorting host matrix
[OGL LOG] sort_host_mtx_sparsity_pattern : 82 ms
[OGL LOG] sort_host_mtx : 43 ms
[OGL LOG] init_preconditioner : 21 ms
[OGL LOG] solve : 15 ms
BJompGKOBiCGStab:  Solving for Uy, Initial residual = 0, Final residual = 0, No Iterations 0
[OGL LOG] init_host_sparsity_pattern : 112 ms
[OGL LOG] matrix not stored update host matrix
[OGL LOG] update_host_mtx : 53 ms
[OGL LOG] matrix is not yet sorted, sorting host matrix
[OGL LOG] sort_host_mtx_sparsity_pattern : 79 ms
[OGL LOG] sort_host_mtx : 47 ms
[OGL LOG] init_preconditioner : 20 ms
[OGL LOG] solve : 15 ms
BJompGKOBiCGStab:  Solving for Uz, Initial residual = 0, Final residual = 0, No Iterations 0
[OGL LOG] init_host_sparsity_pattern : 113 ms
[OGL LOG] matrix not stored update host matrix
[OGL LOG] update_host_mtx : 62 ms
[OGL LOG] matrix is not yet sorted, sorting host matrix
[OGL LOG] sort_host_mtx_sparsity_pattern : 80 ms
[OGL LOG] sort_host_mtx : 58 ms
[OGL LOG] init_preconditioner : 28 ms
[OGL LOG] solve : 7235 ms
BJompGKOBiCGStab:  Solving for p, Initial residual = 1, Final residual = 8.79525e-07, No Iterations 436
time step continuity errors : sum local = 1.3376e-09, global = 1.43223e-21, cumulative = 1.43223e-21
[OGL LOG] init_preconditioner : 0 ms
[OGL LOG] solve : 7015 ms
BJompGKOBiCGStab:  Solving for p, Initial residual = 0.759327, Final residual = 9.31e-07, No Iterations 427
time step continuity errors : sum local = 1.65205e-07, global = 9.72817e-21, cumulative = 1.11604e-20
ExecutionTime = 127.27 s  ClockTime = 22 s

Time = 0.00266667

Courant Number mean: 0.0631769 max: 0.775367
[OGL LOG] init_host_sparsity_pattern : 112 ms
[OGL LOG] matrix not stored update host matrix
[OGL LOG] update_host_mtx : 55 ms
[OGL LOG] matrix is not yet sorted, sorting host matrix
[OGL LOG] sort_host_mtx_sparsity_pattern : 82 ms
[OGL LOG] sort_host_mtx : 43 ms
[OGL LOG] init_preconditioner : 0 ms
[OGL LOG] solve : 580 ms
BJompGKOBiCGStab:  Solving for Ux, Initial residual = 0.183057, Final residual = 8.01762e-07, No Iterations 32
[OGL LOG] init_host_sparsity_pattern : 112 ms
[OGL LOG] matrix not stored update host matrix
[OGL LOG] update_host_mtx : 58 ms
[OGL LOG] matrix is not yet sorted, sorting host matrix
[OGL LOG] sort_host_mtx_sparsity_pattern : 75 ms
[OGL LOG] sort_host_mtx : 43 ms
[OGL LOG] init_preconditioner : 0 ms
[OGL LOG] solve : 693 ms
BJompGKOBiCGStab:  Solving for Uy, Initial residual = 0.619605, Final residual = 9.44202e-07, No Iterations 39
[OGL LOG] init_host_sparsity_pattern : 112 ms
[OGL LOG] matrix not stored update host matrix
[OGL LOG] update_host_mtx : 54 ms
[OGL LOG] matrix is not yet sorted, sorting host matrix
[OGL LOG] sort_host_mtx_sparsity_pattern : 76 ms
[OGL LOG] sort_host_mtx : 43 ms
[OGL LOG] init_preconditioner : 0 ms
[OGL LOG] solve : 686 ms
BJompGKOBiCGStab:  Solving for Uz, Initial residual = 0.605583, Final residual = 8.14338e-07, No Iterations 39
[OGL LOG] init_preconditioner : 0 ms
[OGL LOG] solve : 6691 ms
BJompGKOBiCGStab:  Solving for p, Initial residual = 0.749115, Final residual = 8.34724e-07, No Iterations 411
time step continuity errors : sum local = 2.12045e-07, global = -1.08044e-21, cumulative = 1.008e-20
[OGL LOG] init_preconditioner : 0 ms
[OGL LOG] solve : 6525 ms
BJompGKOBiCGStab:  Solving for p, Initial residual = 0.683879, Final residual = 6.55143e-07, No Iterations 404
time step continuity errors : sum local = 2.08848e-08, global = 1.3983e-20, cumulative = 2.40629e-20
ExecutionTime = 249.78 s  ClockTime = 39 s

Time = 0.004

Courant Number mean: 0.0951473 max: 0.9171
[OGL LOG] init_host_sparsity_pattern : 112 ms
[OGL LOG] matrix not stored update host matrix
[OGL LOG] update_host_mtx : 58 ms
[OGL LOG] matrix is not yet sorted, sorting host matrix
[OGL LOG] sort_host_mtx_sparsity_pattern : 85 ms
[OGL LOG] sort_host_mtx : 43 ms
[OGL LOG] init_preconditioner : 0 ms
[OGL LOG] solve : 544 ms
BJompGKOBiCGStab:  Solving for Ux, Initial residual = 0.101965, Final residual = 7.90749e-07, No Iterations 32
[OGL LOG] init_host_sparsity_pattern : 112 ms
[OGL LOG] matrix not stored update host matrix
[OGL LOG] update_host_mtx : 55 ms
[OGL LOG] matrix is not yet sorted, sorting host matrix
[OGL LOG] sort_host_mtx_sparsity_pattern : 77 ms
[OGL LOG] sort_host_mtx : 43 ms
[OGL LOG] init_preconditioner : 0 ms
[OGL LOG] solve : 650 ms
BJompGKOBiCGStab:  Solving for Uy, Initial residual = 0.335401, Final residual = 6.31866e-07, No Iterations 38
[OGL LOG] init_host_sparsity_pattern : 114 ms
[OGL LOG] matrix not stored update host matrix
[OGL LOG] update_host_mtx : 57 ms
[OGL LOG] matrix is not yet sorted, sorting host matrix
[OGL LOG] sort_host_mtx_sparsity_pattern : 75 ms
[OGL LOG] sort_host_mtx : 43 ms
[OGL LOG] init_preconditioner : 0 ms
[OGL LOG] solve : 712 ms
BJompGKOBiCGStab:  Solving for Uz, Initial residual = 0.921462, Final residual = 8.16542e-07, No Iterations 40
[OGL LOG] init_preconditioner : 0 ms
[OGL LOG] solve : 6658 ms
BJompGKOBiCGStab:  Solving for p, Initial residual = 0.754772, Final residual = 6.81394e-07, No Iterations 409
time step continuity errors : sum local = 2.29017e-08, global = -8.48686e-21, cumulative = 1.55761e-20
[OGL LOG] init_preconditioner : 0 ms
[OGL LOG] solve : 6414 ms
BJompGKOBiCGStab:  Solving for p, Initial residual = 0.717019, Final residual = 9.82153e-07, No Iterations 397
time step continuity errors : sum local = 1.19306e-08, global = -1.0051e-20, cumulative = 5.52504e-21
ExecutionTime = 370.84 s  ClockTime = 55 s

Time = 0.00533333

Courant Number mean: 0.109256 max: 0.91344
[OGL LOG] init_host_sparsity_pattern : 112 ms
[OGL LOG] matrix not stored update host matrix
[OGL LOG] update_host_mtx : 55 ms
[OGL LOG] matrix is not yet sorted, sorting host matrix
[OGL LOG] sort_host_mtx_sparsity_pattern : 78 ms
[OGL LOG] sort_host_mtx : 43 ms
[OGL LOG] init_preconditioner : 0 ms
[OGL LOG] solve : 459 ms
BJompGKOBiCGStab:  Solving for Ux, Initial residual = 0.0446951, Final residual = 5.65985e-07, No Iterations 27
[OGL LOG] init_host_sparsity_pattern : 112 ms
[OGL LOG] matrix not stored update host matrix
[OGL LOG] update_host_mtx : 53 ms
[OGL LOG] matrix is not yet sorted, sorting host matrix
[OGL LOG] sort_host_mtx_sparsity_pattern : 75 ms
[OGL LOG] sort_host_mtx : 44 ms
[OGL LOG] init_preconditioner : 0 ms
[OGL LOG] solve : 600 ms
BJompGKOBiCGStab:  Solving for Uy, Initial residual = 0.197577, Final residual = 7.00572e-07, No Iterations 35
[OGL LOG] init_host_sparsity_pattern : 112 ms
[OGL LOG] matrix not stored update host matrix
[OGL LOG] update_host_mtx : 53 ms
[OGL LOG] matrix is not yet sorted, sorting host matrix
[OGL LOG] sort_host_mtx_sparsity_pattern : 75 ms
[OGL LOG] sort_host_mtx : 43 ms
[OGL LOG] init_preconditioner : 0 ms
[OGL LOG] solve : 595 ms
BJompGKOBiCGStab:  Solving for Uz, Initial residual = 0.732929, Final residual = 7.81778e-07, No Iterations 35
[OGL LOG] init_preconditioner : 0 ms
[OGL LOG] solve : 6827 ms
BJompGKOBiCGStab:  Solving for p, Initial residual = 0.61736, Final residual = 5.6026e-07, No Iterations 422
time step continuity errors : sum local = 1.45272e-09, global = -1.6867e-20, cumulative = -1.13419e-20
[OGL LOG] init_preconditioner : 0 ms
[OGL LOG] solve : 6580 ms
BJompGKOBiCGStab:  Solving for p, Initial residual = 0.554736, Final residual = 5.56096e-07, No Iterations 407
time step continuity errors : sum local = 2.04993e-09, global = 1.51217e-21, cumulative = -9.82977e-21
ExecutionTime = 492.56 s  ClockTime = 71 s

Time = 0.00666667

Courant Number mean: 0.122085 max: 0.929085
[OGL LOG] init_host_sparsity_pattern : 115 ms
[OGL LOG] matrix not stored update host matrix
[OGL LOG] update_host_mtx : 54 ms
[OGL LOG] matrix is not yet sorted, sorting host matrix
[OGL LOG] sort_host_mtx_sparsity_pattern : 79 ms
[OGL LOG] sort_host_mtx : 44 ms
[OGL LOG] init_preconditioner : 0 ms
[OGL LOG] solve : 448 ms
BJompGKOBiCGStab:  Solving for Ux, Initial residual = 0.0319034, Final residual = 4.17432e-07, No Iterations 26
[OGL LOG] init_host_sparsity_pattern : 114 ms
[OGL LOG] matrix not stored update host matrix
[OGL LOG] update_host_mtx : 53 ms
[OGL LOG] matrix is not yet sorted, sorting host matrix
[OGL LOG] sort_host_mtx_sparsity_pattern : 77 ms
[OGL LOG] sort_host_mtx : 43 ms
[OGL LOG] init_preconditioner : 0 ms
[OGL LOG] solve : 604 ms
BJompGKOBiCGStab:  Solving for Uy, Initial residual = 0.0804845, Final residual = 9.31965e-07, No Iterations 35
[OGL LOG] init_host_sparsity_pattern : 112 ms
[OGL LOG] matrix not stored update host matrix
[OGL LOG] update_host_mtx : 53 ms
[OGL LOG] matrix is not yet sorted, sorting host matrix
[OGL LOG] sort_host_mtx_sparsity_pattern : 75 ms
[OGL LOG] sort_host_mtx : 43 ms
[OGL LOG] init_preconditioner : 0 ms
[OGL LOG] solve : 636 ms
BJompGKOBiCGStab:  Solving for Uz, Initial residual = 0.513656, Final residual = 8.49014e-07, No Iterations 37
[OGL LOG] init_preconditioner : 0 ms
[OGL LOG] solve : 6610 ms
BJompGKOBiCGStab:  Solving for p, Initial residual = 0.592014, Final residual = 7.60292e-07, No Iterations 410
time step continuity errors : sum local = 3.39121e-09, global = 2.06686e-21, cumulative = -7.76291e-21
[OGL LOG] init_preconditioner : 0 ms
[OGL LOG] solve : 7487 ms
BJompGKOBiCGStab:  Solving for p, Initial residual = 0.543121, Final residual = 6.05544e-07, No Iterations 464
time step continuity errors : sum local = 8.76424e-10, global = 5.29215e-21, cumulative = -2.47076e-21
ExecutionTime = 620.05 s  ClockTime = 88 s

End

