/*---------------------------------------------------------------------------*\
  =========                 |
  \\      /  F ield         | OpenFOAM: The Open Source CFD Toolbox
   \\    /   O peration     | Website:  https://openfoam.org
    \\  /    A nd           | Version:  8
     \\/     M anipulation  |
\*---------------------------------------------------------------------------*/
Build  : 8-13d66902f78c
Exec   : icoFoam
Date   : Jul 14 2021
Time   : 02:13:08
Host   : "uc2n398.localdomain"
PID    : 545403
I/O    : uncollated
Case   : /pfs/data5/home/kit/scc/nq7776/code/OGL_DATA/lidDrivenCavity3D/v0.1-136-g40fef35/f584ccac99/IntelXeonGold6230CPU@2.10GHz/Test_2021-07-14-01:40:40/75/p-U-BiCGStab-GKO-BJ-omp/lidDrivenCavity3D
nProcs : 1
sigFpe : Enabling floating point exception trapping (FOAM_SIGFPE).
fileModificationChecking : Monitoring run-time modified files using timeStampMaster (fileModificationSkew 10)
allowSystemOperations : Allowing user-supplied system call operations

// * * * * * * * * * * * * * * * * * * * * * * * * * * * * * * * * * * * * * //
Create time

Create mesh for time = 0

Reading transportProperties

Reading field p

Reading field U

Reading/calculating face flux field phi


Starting time loop

Time = 0.00133333

Courant Number mean: 0 max: 0
[OGL LOG] init_host_sparsity_pattern : 120 ms
[OGL LOG] matrix not stored update host matrix
[OGL LOG] update_host_mtx : 61 ms
[OGL LOG] matrix is not yet sorted, compute sorting idxs
[OGL LOG] compute_sort : 3347 ms
[OGL LOG] matrix is not yet sorted, sorting host matrix
[OGL LOG] sort_host_mtx_sparsity_pattern : 77 ms
[OGL LOG] sort_host_mtx : 51 ms
[OGL LOG] init_preconditioner : 112 ms
[OGL LOG] solve : 3256 ms
BJompGKOBiCGStab:  Solving for Ux, Initial residual = 1, Final residual = 8.05502e-07, No Iterations 44
[OGL LOG] init_host_sparsity_pattern : 116 ms
[OGL LOG] matrix not stored update host matrix
[OGL LOG] update_host_mtx : 61 ms
[OGL LOG] matrix is not yet sorted, sorting host matrix
[OGL LOG] sort_host_mtx_sparsity_pattern : 80 ms
[OGL LOG] sort_host_mtx : 43 ms
[OGL LOG] init_preconditioner : 112 ms
[OGL LOG] solve : 57 ms
BJompGKOBiCGStab:  Solving for Uy, Initial residual = 0, Final residual = 0, No Iterations 0
[OGL LOG] init_host_sparsity_pattern : 111 ms
[OGL LOG] matrix not stored update host matrix
[OGL LOG] update_host_mtx : 53 ms
[OGL LOG] matrix is not yet sorted, sorting host matrix
[OGL LOG] sort_host_mtx_sparsity_pattern : 80 ms
[OGL LOG] sort_host_mtx : 47 ms
[OGL LOG] init_preconditioner : 112 ms
[OGL LOG] solve : 56 ms
BJompGKOBiCGStab:  Solving for Uz, Initial residual = 0, Final residual = 0, No Iterations 0
[OGL LOG] init_host_sparsity_pattern : 112 ms
[OGL LOG] matrix not stored update host matrix
[OGL LOG] update_host_mtx : 62 ms
[OGL LOG] matrix is not yet sorted, sorting host matrix
[OGL LOG] sort_host_mtx_sparsity_pattern : 80 ms
[OGL LOG] sort_host_mtx : 43 ms
[OGL LOG] init_preconditioner : 113 ms
[OGL LOG] solve : 36291 ms
BJompGKOBiCGStab:  Solving for p, Initial residual = 1, Final residual = 9.90854e-07, No Iterations 491
time step continuity errors : sum local = 1.21055e-08, global = 1.39587e-21, cumulative = 1.39587e-21
[OGL LOG] init_preconditioner : 0 ms
[OGL LOG] solve : 36709 ms
BJompGKOBiCGStab:  Solving for p, Initial residual = 0.759312, Final residual = 7.76447e-07, No Iterations 497
time step continuity errors : sum local = 4.11923e-09, global = 6.91215e-21, cumulative = 8.30802e-21
ExecutionTime = 83.31 s  ClockTime = 84 s

Time = 0.00266667

Courant Number mean: 0.0631769 max: 0.775391
[OGL LOG] init_host_sparsity_pattern : 113 ms
[OGL LOG] matrix not stored update host matrix
[OGL LOG] update_host_mtx : 53 ms
[OGL LOG] matrix is not yet sorted, sorting host matrix
[OGL LOG] sort_host_mtx_sparsity_pattern : 73 ms
[OGL LOG] sort_host_mtx : 44 ms
[OGL LOG] init_preconditioner : 0 ms
[OGL LOG] solve : 3012 ms
BJompGKOBiCGStab:  Solving for Ux, Initial residual = 0.183021, Final residual = 7.54827e-07, No Iterations 40
[OGL LOG] init_host_sparsity_pattern : 113 ms
[OGL LOG] matrix not stored update host matrix
[OGL LOG] update_host_mtx : 53 ms
[OGL LOG] matrix is not yet sorted, sorting host matrix
[OGL LOG] sort_host_mtx_sparsity_pattern : 72 ms
[OGL LOG] sort_host_mtx : 43 ms
[OGL LOG] init_preconditioner : 0 ms
[OGL LOG] solve : 3380 ms
BJompGKOBiCGStab:  Solving for Uy, Initial residual = 0.61964, Final residual = 6.22652e-07, No Iterations 45
[OGL LOG] init_host_sparsity_pattern : 113 ms
[OGL LOG] matrix not stored update host matrix
[OGL LOG] update_host_mtx : 55 ms
[OGL LOG] matrix is not yet sorted, sorting host matrix
[OGL LOG] sort_host_mtx_sparsity_pattern : 73 ms
[OGL LOG] sort_host_mtx : 43 ms
[OGL LOG] init_preconditioner : 0 ms
[OGL LOG] solve : 3267 ms
BJompGKOBiCGStab:  Solving for Uz, Initial residual = 0.604616, Final residual = 3.81884e-07, No Iterations 44
[OGL LOG] init_preconditioner : 0 ms
[OGL LOG] solve : 35897 ms
BJompGKOBiCGStab:  Solving for p, Initial residual = 0.749131, Final residual = 7.2482e-07, No Iterations 486
time step continuity errors : sum local = 5.82334e-09, global = 4.40117e-21, cumulative = 1.27092e-20
[OGL LOG] init_preconditioner : 0 ms
[OGL LOG] solve : 35652 ms
BJompGKOBiCGStab:  Solving for p, Initial residual = 0.683922, Final residual = 6.83927e-07, No Iterations 483
time step continuity errors : sum local = 2.41529e-08, global = -1.40889e-20, cumulative = -1.37975e-21
ExecutionTime = 165.62 s  ClockTime = 166 s

Time = 0.004

Courant Number mean: 0.0951457 max: 0.917122
[OGL LOG] init_host_sparsity_pattern : 112 ms
[OGL LOG] matrix not stored update host matrix
[OGL LOG] update_host_mtx : 53 ms
[OGL LOG] matrix is not yet sorted, sorting host matrix
[OGL LOG] sort_host_mtx_sparsity_pattern : 72 ms
[OGL LOG] sort_host_mtx : 43 ms
[OGL LOG] init_preconditioner : 0 ms
[OGL LOG] solve : 3224 ms
BJompGKOBiCGStab:  Solving for Ux, Initial residual = 0.101938, Final residual = 8.83972e-07, No Iterations 43
[OGL LOG] init_host_sparsity_pattern : 112 ms
[OGL LOG] matrix not stored update host matrix
[OGL LOG] update_host_mtx : 53 ms
[OGL LOG] matrix is not yet sorted, sorting host matrix
[OGL LOG] sort_host_mtx_sparsity_pattern : 72 ms
[OGL LOG] sort_host_mtx : 43 ms
[OGL LOG] init_preconditioner : 0 ms
[OGL LOG] solve : 3374 ms
BJompGKOBiCGStab:  Solving for Uy, Initial residual = 0.335437, Final residual = 9.82968e-07, No Iterations 45
[OGL LOG] init_host_sparsity_pattern : 112 ms
[OGL LOG] matrix not stored update host matrix
[OGL LOG] update_host_mtx : 53 ms
[OGL LOG] matrix is not yet sorted, sorting host matrix
[OGL LOG] sort_host_mtx_sparsity_pattern : 72 ms
[OGL LOG] sort_host_mtx : 43 ms
[OGL LOG] init_preconditioner : 0 ms
[OGL LOG] solve : 3371 ms
BJompGKOBiCGStab:  Solving for Uz, Initial residual = 0.920721, Final residual = 6.8755e-07, No Iterations 45
[OGL LOG] init_preconditioner : 0 ms
[OGL LOG] solve : 39358 ms
BJompGKOBiCGStab:  Solving for p, Initial residual = 0.75476, Final residual = 8.82588e-07, No Iterations 534
time step continuity errors : sum local = 4.3355e-09, global = 1.24747e-20, cumulative = 1.1095e-20
[OGL LOG] init_preconditioner : 0 ms
[OGL LOG] solve : 37148 ms
BJompGKOBiCGStab:  Solving for p, Initial residual = 0.71699, Final residual = 4.91627e-07, No Iterations 504
time step continuity errors : sum local = 2.26426e-09, global = -2.22231e-21, cumulative = 8.87269e-21
ExecutionTime = 253.2 s  ClockTime = 254 s

Time = 0.00533333

Courant Number mean: 0.109256 max: 0.913461
[OGL LOG] init_host_sparsity_pattern : 112 ms
[OGL LOG] matrix not stored update host matrix
[OGL LOG] update_host_mtx : 58 ms
[OGL LOG] matrix is not yet sorted, sorting host matrix
[OGL LOG] sort_host_mtx_sparsity_pattern : 72 ms
[OGL LOG] sort_host_mtx : 43 ms
[OGL LOG] init_preconditioner : 0 ms
[OGL LOG] solve : 2964 ms
BJompGKOBiCGStab:  Solving for Ux, Initial residual = 0.0446983, Final residual = 9.68324e-07, No Iterations 40
[OGL LOG] init_host_sparsity_pattern : 112 ms
[OGL LOG] matrix not stored update host matrix
[OGL LOG] update_host_mtx : 53 ms
[OGL LOG] matrix is not yet sorted, sorting host matrix
[OGL LOG] sort_host_mtx_sparsity_pattern : 72 ms
[OGL LOG] sort_host_mtx : 43 ms
[OGL LOG] init_preconditioner : 0 ms
[OGL LOG] solve : 2930 ms
BJompGKOBiCGStab:  Solving for Uy, Initial residual = 0.197565, Final residual = 9.59079e-07, No Iterations 39
[OGL LOG] init_host_sparsity_pattern : 112 ms
[OGL LOG] matrix not stored update host matrix
[OGL LOG] update_host_mtx : 53 ms
[OGL LOG] matrix is not yet sorted, sorting host matrix
[OGL LOG] sort_host_mtx_sparsity_pattern : 72 ms
[OGL LOG] sort_host_mtx : 43 ms
[OGL LOG] init_preconditioner : 0 ms
[OGL LOG] solve : 2968 ms
BJompGKOBiCGStab:  Solving for Uz, Initial residual = 0.732687, Final residual = 7.24182e-07, No Iterations 40
[OGL LOG] init_preconditioner : 0 ms
[OGL LOG] solve : 36536 ms
BJompGKOBiCGStab:  Solving for p, Initial residual = 0.617337, Final residual = 8.49659e-07, No Iterations 495
time step continuity errors : sum local = 3.0245e-08, global = 4.66737e-21, cumulative = 1.35401e-20
[OGL LOG] init_preconditioner : 0 ms
[OGL LOG] solve : 35996 ms
BJompGKOBiCGStab:  Solving for p, Initial residual = 0.554724, Final residual = 9.40779e-07, No Iterations 488
time step continuity errors : sum local = 1.17049e-09, global = 9.7295e-22, cumulative = 1.4513e-20
ExecutionTime = 335.66 s  ClockTime = 336 s

Time = 0.00666667

Courant Number mean: 0.122084 max: 0.929109
[OGL LOG] init_host_sparsity_pattern : 111 ms
[OGL LOG] matrix not stored update host matrix
[OGL LOG] update_host_mtx : 58 ms
[OGL LOG] matrix is not yet sorted, sorting host matrix
[OGL LOG] sort_host_mtx_sparsity_pattern : 72 ms
[OGL LOG] sort_host_mtx : 43 ms
[OGL LOG] init_preconditioner : 0 ms
[OGL LOG] solve : 2664 ms
BJompGKOBiCGStab:  Solving for Ux, Initial residual = 0.031906, Final residual = 6.46033e-07, No Iterations 36
[OGL LOG] init_host_sparsity_pattern : 112 ms
[OGL LOG] matrix not stored update host matrix
[OGL LOG] update_host_mtx : 53 ms
[OGL LOG] matrix is not yet sorted, sorting host matrix
[OGL LOG] sort_host_mtx_sparsity_pattern : 72 ms
[OGL LOG] sort_host_mtx : 43 ms
[OGL LOG] init_preconditioner : 0 ms
[OGL LOG] solve : 2556 ms
BJompGKOBiCGStab:  Solving for Uy, Initial residual = 0.0804549, Final residual = 7.37267e-07, No Iterations 34
[OGL LOG] init_host_sparsity_pattern : 112 ms
[OGL LOG] matrix not stored update host matrix
[OGL LOG] update_host_mtx : 58 ms
[OGL LOG] matrix is not yet sorted, sorting host matrix
[OGL LOG] sort_host_mtx_sparsity_pattern : 72 ms
[OGL LOG] sort_host_mtx : 43 ms
[OGL LOG] init_preconditioner : 0 ms
[OGL LOG] solve : 3250 ms
BJompGKOBiCGStab:  Solving for Uz, Initial residual = 0.514075, Final residual = 8.98881e-07, No Iterations 44
[OGL LOG] init_preconditioner : 0 ms
[OGL LOG] solve : 24928 ms
BJompGKOBiCGStab:  Solving for p, Initial residual = 0.592116, Final residual = 6.24965e-07, No Iterations 338
time step continuity errors : sum local = 1.38401e-09, global = -2.8459e-20, cumulative = -1.3946e-20
[OGL LOG] init_preconditioner : 0 ms
[OGL LOG] solve : 42029 ms
BJompGKOBiCGStab:  Solving for p, Initial residual = 0.543254, Final residual = 4.2038e-07, No Iterations 570
time step continuity errors : sum local = 2.2075e-09, global = 8.23513e-21, cumulative = -5.71082e-21
ExecutionTime = 412.17 s  ClockTime = 413 s

End

