/*---------------------------------------------------------------------------*\
  =========                 |
  \\      /  F ield         | OpenFOAM: The Open Source CFD Toolbox
   \\    /   O peration     | Website:  https://openfoam.org
    \\  /    A nd           | Version:  8
     \\/     M anipulation  |
\*---------------------------------------------------------------------------*/
Build  : 8-13d66902f78c
Exec   : icoFoam
Date   : Jul 14 2021
Time   : 00:53:41
Host   : "uc2n394.localdomain"
PID    : 3277459
I/O    : uncollated
Case   : /pfs/data5/home/kit/scc/nq7776/code/OGL_DATA/lidDrivenCavity3D/v0.1-136-g40fef35/f584ccac99/IntelXeonGold6230CPU@2.10GHz/Test_2021-07-14-00:31:10/50/p-BiCGStab-GKO-BJ-omp/lidDrivenCavity3D
nProcs : 1
sigFpe : Enabling floating point exception trapping (FOAM_SIGFPE).
fileModificationChecking : Monitoring run-time modified files using timeStampMaster (fileModificationSkew 10)
allowSystemOperations : Allowing user-supplied system call operations

// * * * * * * * * * * * * * * * * * * * * * * * * * * * * * * * * * * * * * //
Create time

Create mesh for time = 0

Reading transportProperties

Reading field p

Reading field U

Reading/calculating face flux field phi


Starting time loop

Time = 0.002

Courant Number mean: 0 max: 0
nonePBiCGStab:  Solving for Ux, Initial residual = 1, Final residual = 0.0592055, No Iterations 5
nonePBiCGStab:  Solving for Uy, Initial residual = 0, Final residual = 0, No Iterations 0
nonePBiCGStab:  Solving for Uz, Initial residual = 0, Final residual = 0, No Iterations 0
[OGL LOG] init_host_sparsity_pattern : 35 ms
[OGL LOG] matrix not stored update host matrix
[OGL LOG] update_host_mtx : 18 ms
[OGL LOG] matrix is not yet sorted, compute sorting idxs
[OGL LOG] compute_sort : 909 ms
[OGL LOG] matrix is not yet sorted, sorting host matrix
[OGL LOG] sort_host_mtx_sparsity_pattern : 23 ms
[OGL LOG] sort_host_mtx : 14 ms
[OGL LOG] init_preconditioner : 5 ms
[OGL LOG] solve : 1472 ms
BJompGKOBiCGStab:  Solving for p, Initial residual = 1, Final residual = 4.48358e-07, No Iterations 330
time step continuity errors : sum local = 3.48917e-07, global = 4.00686e-21, cumulative = 4.00686e-21
[OGL LOG] init_preconditioner : 0 ms
[OGL LOG] solve : 1142 ms
BJompGKOBiCGStab:  Solving for p, Initial residual = 0.676751, Final residual = 6.52754e-07, No Iterations 315
time step continuity errors : sum local = 2.89759e-08, global = -2.07558e-20, cumulative = -1.6749e-20
ExecutionTime = 43.65 s  ClockTime = 4 s

Time = 0.004

Courant Number mean: 0.0636233 max: 0.723792
nonePBiCGStab:  Solving for Ux, Initial residual = 0.144133, Final residual = 0.0219201, No Iterations 5
nonePBiCGStab:  Solving for Uy, Initial residual = 0.363932, Final residual = 0.0523453, No Iterations 5
nonePBiCGStab:  Solving for Uz, Initial residual = 0.973365, Final residual = 0.159897, No Iterations 5
[OGL LOG] init_preconditioner : 0 ms
[OGL LOG] solve : 1178 ms
BJompGKOBiCGStab:  Solving for p, Initial residual = 0.668507, Final residual = 8.11268e-07, No Iterations 315
time step continuity errors : sum local = 3.96231e-08, global = -1.2321e-20, cumulative = -2.907e-20
[OGL LOG] init_preconditioner : 0 ms
[OGL LOG] solve : 1231 ms
BJompGKOBiCGStab:  Solving for p, Initial residual = 0.584655, Final residual = 5.62443e-07, No Iterations 332
time step continuity errors : sum local = 2.44664e-07, global = 5.29342e-20, cumulative = 2.38643e-20
ExecutionTime = 82.34 s  ClockTime = 7 s

Time = 0.006

Courant Number mean: 0.0972273 max: 0.862514
nonePBiCGStab:  Solving for Ux, Initial residual = 0.0524195, Final residual = 0.00685615, No Iterations 5
nonePBiCGStab:  Solving for Uy, Initial residual = 0.127066, Final residual = 0.0201423, No Iterations 5
nonePBiCGStab:  Solving for Uz, Initial residual = 0.367094, Final residual = 0.0536897, No Iterations 5
[OGL LOG] init_preconditioner : 0 ms
[OGL LOG] solve : 1272 ms
BJompGKOBiCGStab:  Solving for p, Initial residual = 0.594548, Final residual = 7.8589e-07, No Iterations 344
time step continuity errors : sum local = 2.22706e-09, global = -4.0353e-20, cumulative = -1.64888e-20
[OGL LOG] init_preconditioner : 0 ms
[OGL LOG] solve : 1071 ms
BJompGKOBiCGStab:  Solving for p, Initial residual = 0.528688, Final residual = 7.27191e-07, No Iterations 291
time step continuity errors : sum local = 1.57564e-06, global = -9.5756e-21, cumulative = -2.60644e-20
ExecutionTime = 120.01 s  ClockTime = 9 s

Time = 0.008

Courant Number mean: 0.113794 max: 0.88248
nonePBiCGStab:  Solving for Ux, Initial residual = 0.0289798, Final residual = 0.0034575, No Iterations 5
nonePBiCGStab:  Solving for Uy, Initial residual = 0.0844127, Final residual = 0.0110899, No Iterations 5
nonePBiCGStab:  Solving for Uz, Initial residual = 0.231431, Final residual = 0.0333535, No Iterations 5
[OGL LOG] init_preconditioner : 0 ms
[OGL LOG] solve : 1328 ms
BJompGKOBiCGStab:  Solving for p, Initial residual = 0.412042, Final residual = 4.53936e-07, No Iterations 375
time step continuity errors : sum local = 6.68469e-09, global = 1.81782e-21, cumulative = -2.42466e-20
[OGL LOG] init_preconditioner : 0 ms
[OGL LOG] solve : 1053 ms
BJompGKOBiCGStab:  Solving for p, Initial residual = 0.342949, Final residual = 9.23551e-07, No Iterations 294
time step continuity errors : sum local = 1.01995e-08, global = 2.06934e-20, cumulative = -3.55317e-21
ExecutionTime = 158.27 s  ClockTime = 12 s

Time = 0.01

Courant Number mean: 0.12733 max: 0.898866
nonePBiCGStab:  Solving for Ux, Initial residual = 0.0202797, Final residual = 0.00209761, No Iterations 5
nonePBiCGStab:  Solving for Uy, Initial residual = 0.0506256, Final residual = 0.00646713, No Iterations 5
nonePBiCGStab:  Solving for Uz, Initial residual = 0.114514, Final residual = 0.020057, No Iterations 5
[OGL LOG] init_preconditioner : 0 ms
[OGL LOG] solve : 644 ms
BJompGKOBiCGStab:  Solving for p, Initial residual = 0.354763, Final residual = 9.83423e-07, No Iterations 179
time step continuity errors : sum local = 1.44063e-09, global = 1.37153e-21, cumulative = -2.18164e-21
[OGL LOG] init_preconditioner : 0 ms
[OGL LOG] solve : 1050 ms
BJompGKOBiCGStab:  Solving for p, Initial residual = 0.302683, Final residual = 8.07063e-07, No Iterations 296
time step continuity errors : sum local = 2.00291e-08, global = -2.4246e-20, cumulative = -2.64276e-20
ExecutionTime = 185.56 s  ClockTime = 13 s

End

