/*---------------------------------------------------------------------------*\
  =========                 |
  \\      /  F ield         | OpenFOAM: The Open Source CFD Toolbox
   \\    /   O peration     | Website:  https://openfoam.org
    \\  /    A nd           | Version:  8
     \\/     M anipulation  |
\*---------------------------------------------------------------------------*/
Build  : 8-13d66902f78c
Exec   : icoFoam
Date   : Jul 12 2021
Time   : 13:19:53
Host   : "uc2n445.localdomain"
PID    : 3205136
I/O    : uncollated
Case   : /pfs/data5/home/kit/scc/nq7776/code/OGL_DATA/lidDrivenCavity3D/v0.1-136-g40fef35/f584ccac99/IntelXeonGold6230CPU@2.10GHz/Test_2021-07-12-13:12:59/25/p-U-BiCGStab-GKO-BJ-omp/lidDrivenCavity3D
nProcs : 1
sigFpe : Enabling floating point exception trapping (FOAM_SIGFPE).
fileModificationChecking : Monitoring run-time modified files using timeStampMaster (fileModificationSkew 10)
allowSystemOperations : Allowing user-supplied system call operations

// * * * * * * * * * * * * * * * * * * * * * * * * * * * * * * * * * * * * * //
Create time

Create mesh for time = 0

Reading transportProperties

Reading field p

Reading field U

Reading/calculating face flux field phi


Starting time loop

Time = 0.004

Courant Number mean: 0 max: 0
[OGL LOG] init_host_sparsity_pattern : 4 ms
[OGL LOG] matrix not stored update host matrix
[OGL LOG] update_host_mtx : 2 ms
[OGL LOG] matrix is not yet sorted, compute sorting idxs
[OGL LOG] compute_sort : 106 ms
[OGL LOG] matrix is not yet sorted, sorting host matrix
[OGL LOG] sort_host_mtx_sparsity_pattern : 2 ms
[OGL LOG] sort_host_mtx : 1 ms
[OGL LOG] init_preconditioner : 12 ms
[OGL LOG] solve : 48 ms
BJompGKOBiCGStab:  Solving for Ux, Initial residual = 1, Final residual = 6.47745e-07, No Iterations 22
[OGL LOG] init_host_sparsity_pattern : 6 ms
[OGL LOG] matrix not stored update host matrix
[OGL LOG] update_host_mtx : 2 ms
[OGL LOG] matrix is not yet sorted, sorting host matrix
[OGL LOG] sort_host_mtx_sparsity_pattern : 2 ms
[OGL LOG] sort_host_mtx : 1 ms
[OGL LOG] init_preconditioner : 0 ms
[OGL LOG] solve : 0 ms
BJompGKOBiCGStab:  Solving for Uy, Initial residual = 0, Final residual = 0, No Iterations 0
[OGL LOG] init_host_sparsity_pattern : 6 ms
[OGL LOG] matrix not stored update host matrix
[OGL LOG] update_host_mtx : 1 ms
[OGL LOG] matrix is not yet sorted, sorting host matrix
[OGL LOG] sort_host_mtx_sparsity_pattern : 2 ms
[OGL LOG] sort_host_mtx : 1 ms
[OGL LOG] init_preconditioner : 0 ms
[OGL LOG] solve : 0 ms
BJompGKOBiCGStab:  Solving for Uz, Initial residual = 0, Final residual = 0, No Iterations 0
[OGL LOG] init_host_sparsity_pattern : 5 ms
[OGL LOG] matrix not stored update host matrix
[OGL LOG] update_host_mtx : 2 ms
[OGL LOG] matrix is not yet sorted, sorting host matrix
[OGL LOG] sort_host_mtx_sparsity_pattern : 2 ms
[OGL LOG] sort_host_mtx : 1 ms
[OGL LOG] init_preconditioner : 0 ms
[OGL LOG] solve : 132 ms
BJompGKOBiCGStab:  Solving for p, Initial residual = 1, Final residual = 8.60037e-07, No Iterations 140
time step continuity errors : sum local = 5.11683e-08, global = -1.32539e-20, cumulative = -1.32539e-20
[OGL LOG] init_preconditioner : 0 ms
[OGL LOG] solve : 119 ms
BJompGKOBiCGStab:  Solving for p, Initial residual = 0.644087, Final residual = 8.87224e-07, No Iterations 129
time step continuity errors : sum local = 4.06715e-08, global = 3.43489e-20, cumulative = 2.1095e-20
ExecutionTime = 21.57 s  ClockTime = 1 s

Time = 0.008

Courant Number mean: 0.0870974 max: 0.619854
[OGL LOG] init_host_sparsity_pattern : 5 ms
[OGL LOG] matrix not stored update host matrix
[OGL LOG] update_host_mtx : 1 ms
[OGL LOG] matrix is not yet sorted, sorting host matrix
[OGL LOG] sort_host_mtx_sparsity_pattern : 2 ms
[OGL LOG] sort_host_mtx : 1 ms
[OGL LOG] init_preconditioner : 0 ms
[OGL LOG] solve : 18 ms
BJompGKOBiCGStab:  Solving for Ux, Initial residual = 0.238941, Final residual = 8.64656e-07, No Iterations 19
[OGL LOG] init_host_sparsity_pattern : 6 ms
[OGL LOG] matrix not stored update host matrix
[OGL LOG] update_host_mtx : 1 ms
[OGL LOG] matrix is not yet sorted, sorting host matrix
[OGL LOG] sort_host_mtx_sparsity_pattern : 2 ms
[OGL LOG] sort_host_mtx : 1 ms
[OGL LOG] init_preconditioner : 0 ms
[OGL LOG] solve : 19 ms
BJompGKOBiCGStab:  Solving for Uy, Initial residual = 0.615476, Final residual = 7.77011e-07, No Iterations 20
[OGL LOG] init_host_sparsity_pattern : 6 ms
[OGL LOG] matrix not stored update host matrix
[OGL LOG] update_host_mtx : 1 ms
[OGL LOG] matrix is not yet sorted, sorting host matrix
[OGL LOG] sort_host_mtx_sparsity_pattern : 2 ms
[OGL LOG] sort_host_mtx : 1 ms
[OGL LOG] init_preconditioner : 0 ms
[OGL LOG] solve : 18 ms
BJompGKOBiCGStab:  Solving for Uz, Initial residual = 0.391957, Final residual = 7.38452e-07, No Iterations 19
[OGL LOG] init_preconditioner : 0 ms
[OGL LOG] solve : 118 ms
BJompGKOBiCGStab:  Solving for p, Initial residual = 0.527352, Final residual = 1.5794e-07, No Iterations 128
time step continuity errors : sum local = 1.00665e-06, global = 1.12566e-19, cumulative = 1.33661e-19
[OGL LOG] init_preconditioner : 0 ms
[OGL LOG] solve : 112 ms
BJompGKOBiCGStab:  Solving for p, Initial residual = 0.437528, Final residual = 9.43237e-07, No Iterations 122
time step continuity errors : sum local = 8.94527e-08, global = 1.81375e-20, cumulative = 1.51799e-19
ExecutionTime = 41.61 s  ClockTime = 1 s

Time = 0.012

Courant Number mean: 0.127403 max: 0.798793
[OGL LOG] init_host_sparsity_pattern : 5 ms
[OGL LOG] matrix not stored update host matrix
[OGL LOG] update_host_mtx : 1 ms
[OGL LOG] matrix is not yet sorted, sorting host matrix
[OGL LOG] sort_host_mtx_sparsity_pattern : 2 ms
[OGL LOG] sort_host_mtx : 1 ms
[OGL LOG] init_preconditioner : 0 ms
[OGL LOG] solve : 17 ms
BJompGKOBiCGStab:  Solving for Ux, Initial residual = 0.0920492, Final residual = 9.41989e-07, No Iterations 18
[OGL LOG] init_host_sparsity_pattern : 6 ms
[OGL LOG] matrix not stored update host matrix
[OGL LOG] update_host_mtx : 1 ms
[OGL LOG] matrix is not yet sorted, sorting host matrix
[OGL LOG] sort_host_mtx_sparsity_pattern : 2 ms
[OGL LOG] sort_host_mtx : 1 ms
[OGL LOG] init_preconditioner : 0 ms
[OGL LOG] solve : 16 ms
BJompGKOBiCGStab:  Solving for Uy, Initial residual = 0.145852, Final residual = 9.21808e-07, No Iterations 17
[OGL LOG] init_host_sparsity_pattern : 6 ms
[OGL LOG] matrix not stored update host matrix
[OGL LOG] update_host_mtx : 1 ms
[OGL LOG] matrix is not yet sorted, sorting host matrix
[OGL LOG] sort_host_mtx_sparsity_pattern : 2 ms
[OGL LOG] sort_host_mtx : 1 ms
[OGL LOG] init_preconditioner : 0 ms
[OGL LOG] solve : 18 ms
BJompGKOBiCGStab:  Solving for Uz, Initial residual = 0.339692, Final residual = 6.607e-07, No Iterations 19
[OGL LOG] init_preconditioner : 0 ms
[OGL LOG] solve : 108 ms
BJompGKOBiCGStab:  Solving for p, Initial residual = 0.305758, Final residual = 9.42475e-07, No Iterations 117
time step continuity errors : sum local = 7.37248e-09, global = -6.14416e-20, cumulative = 9.03573e-20
[OGL LOG] init_preconditioner : 0 ms
[OGL LOG] solve : 109 ms
BJompGKOBiCGStab:  Solving for p, Initial residual = 0.265187, Final residual = 9.81885e-07, No Iterations 119
time step continuity errors : sum local = 4.47627e-09, global = -1.02885e-19, cumulative = -1.25272e-20
ExecutionTime = 60.53 s  ClockTime = 1 s

Time = 0.016

Courant Number mean: 0.145254 max: 0.82722
[OGL LOG] init_host_sparsity_pattern : 5 ms
[OGL LOG] matrix not stored update host matrix
[OGL LOG] update_host_mtx : 1 ms
[OGL LOG] matrix is not yet sorted, sorting host matrix
[OGL LOG] sort_host_mtx_sparsity_pattern : 2 ms
[OGL LOG] sort_host_mtx : 1 ms
[OGL LOG] init_preconditioner : 0 ms
[OGL LOG] solve : 14 ms
BJompGKOBiCGStab:  Solving for Ux, Initial residual = 0.0235031, Final residual = 9.84158e-07, No Iterations 15
[OGL LOG] init_host_sparsity_pattern : 6 ms
[OGL LOG] matrix not stored update host matrix
[OGL LOG] update_host_mtx : 1 ms
[OGL LOG] matrix is not yet sorted, sorting host matrix
[OGL LOG] sort_host_mtx_sparsity_pattern : 2 ms
[OGL LOG] sort_host_mtx : 1 ms
[OGL LOG] init_preconditioner : 0 ms
[OGL LOG] solve : 16 ms
BJompGKOBiCGStab:  Solving for Uy, Initial residual = 0.0608576, Final residual = 8.19904e-07, No Iterations 17
[OGL LOG] init_host_sparsity_pattern : 6 ms
[OGL LOG] matrix not stored update host matrix
[OGL LOG] update_host_mtx : 1 ms
[OGL LOG] matrix is not yet sorted, sorting host matrix
[OGL LOG] sort_host_mtx_sparsity_pattern : 2 ms
[OGL LOG] sort_host_mtx : 1 ms
[OGL LOG] init_preconditioner : 0 ms
[OGL LOG] solve : 37 ms
BJompGKOBiCGStab:  Solving for Uz, Initial residual = 0.184319, Final residual = 7.08481e-07, No Iterations 18
[OGL LOG] init_preconditioner : 0 ms
[OGL LOG] solve : 126 ms
BJompGKOBiCGStab:  Solving for p, Initial residual = 0.239438, Final residual = 8.29875e-07, No Iterations 119
time step continuity errors : sum local = 6.82396e-09, global = 5.26433e-20, cumulative = 4.01161e-20
[OGL LOG] init_preconditioner : 0 ms
[OGL LOG] solve : 111 ms
BJompGKOBiCGStab:  Solving for p, Initial residual = 0.222229, Final residual = 8.54837e-07, No Iterations 114
time step continuity errors : sum local = 7.52689e-08, global = 1.03265e-20, cumulative = 5.04426e-20
ExecutionTime = 81.95 s  ClockTime = 2 s

Time = 0.02

Courant Number mean: 0.157058 max: 0.845844
[OGL LOG] init_host_sparsity_pattern : 4 ms
[OGL LOG] matrix not stored update host matrix
[OGL LOG] update_host_mtx : 1 ms
[OGL LOG] matrix is not yet sorted, sorting host matrix
[OGL LOG] sort_host_mtx_sparsity_pattern : 3 ms
[OGL LOG] sort_host_mtx : 1 ms
[OGL LOG] init_preconditioner : 0 ms
[OGL LOG] solve : 20 ms
BJompGKOBiCGStab:  Solving for Ux, Initial residual = 0.0150185, Final residual = 5.03836e-07, No Iterations 15
[OGL LOG] init_host_sparsity_pattern : 6 ms
[OGL LOG] matrix not stored update host matrix
[OGL LOG] update_host_mtx : 1 ms
[OGL LOG] matrix is not yet sorted, sorting host matrix
[OGL LOG] sort_host_mtx_sparsity_pattern : 2 ms
[OGL LOG] sort_host_mtx : 1 ms
[OGL LOG] init_preconditioner : 0 ms
[OGL LOG] solve : 21 ms
BJompGKOBiCGStab:  Solving for Uy, Initial residual = 0.0280966, Final residual = 7.77804e-07, No Iterations 16
[OGL LOG] init_host_sparsity_pattern : 6 ms
[OGL LOG] matrix not stored update host matrix
[OGL LOG] update_host_mtx : 1 ms
[OGL LOG] matrix is not yet sorted, sorting host matrix
[OGL LOG] sort_host_mtx_sparsity_pattern : 2 ms
[OGL LOG] sort_host_mtx : 1 ms
[OGL LOG] init_preconditioner : 0 ms
[OGL LOG] solve : 15 ms
BJompGKOBiCGStab:  Solving for Uz, Initial residual = 0.0758204, Final residual = 8.60399e-07, No Iterations 16
[OGL LOG] init_preconditioner : 0 ms
[OGL LOG] solve : 119 ms
BJompGKOBiCGStab:  Solving for p, Initial residual = 0.234835, Final residual = 9.89005e-07, No Iterations 126
time step continuity errors : sum local = 4.58333e-09, global = -8.73236e-20, cumulative = -3.6881e-20
[OGL LOG] init_preconditioner : 0 ms
[OGL LOG] solve : 103 ms
BJompGKOBiCGStab:  Solving for p, Initial residual = 0.233063, Final residual = 9.10983e-07, No Iterations 107
time step continuity errors : sum local = 5.9626e-09, global = -1.12848e-20, cumulative = -4.81658e-20
ExecutionTime = 101.55 s  ClockTime = 2 s

End

