/*---------------------------------------------------------------------------*\
  =========                 |
  \\      /  F ield         | OpenFOAM: The Open Source CFD Toolbox
   \\    /   O peration     | Website:  https://openfoam.org
    \\  /    A nd           | Version:  8
     \\/     M anipulation  |
\*---------------------------------------------------------------------------*/
Build  : 8-13d66902f78c
Exec   : icoFoam
Date   : Jul 12 2021
Time   : 15:27:49
Host   : "uc2n402.localdomain"
PID    : 3444057
I/O    : uncollated
Case   : /pfs/data5/home/kit/scc/nq7776/code/OGL_DATA/lidDrivenCavity3D/v0.1-136-g40fef35/f584ccac99/IntelXeonGold6230CPU@2.10GHz/Test_2021-07-12-12:43:44/100/p-U-CG-GKO-none-omp/lidDrivenCavity3D
nProcs : 1
sigFpe : Enabling floating point exception trapping (FOAM_SIGFPE).
fileModificationChecking : Monitoring run-time modified files using timeStampMaster (fileModificationSkew 10)
allowSystemOperations : Allowing user-supplied system call operations

// * * * * * * * * * * * * * * * * * * * * * * * * * * * * * * * * * * * * * //
Create time

Create mesh for time = 0

Reading transportProperties

Reading field p

Reading field U

Reading/calculating face flux field phi


Starting time loop

Time = 0.001

Courant Number mean: 0 max: 0
[OGL LOG] init_host_sparsity_pattern : 286 ms
[OGL LOG] matrix not stored update host matrix
[OGL LOG] update_host_mtx : 151 ms
[OGL LOG] matrix is not yet sorted, compute sorting idxs
[OGL LOG] compute_sort : 9076 ms
[OGL LOG] matrix is not yet sorted, sorting host matrix
[OGL LOG] sort_host_mtx_sparsity_pattern : 196 ms
[OGL LOG] sort_host_mtx : 124 ms
[OGL LOG] init_preconditioner : 0 ms
[OGL LOG] solve : 1577 ms
noneompGKOBiCGStab:  Solving for Ux, Initial residual = 1, Final residual = 9.90061e-07, No Iterations 57
[OGL LOG] init_host_sparsity_pattern : 280 ms
[OGL LOG] matrix not stored update host matrix
[OGL LOG] update_host_mtx : 166 ms
[OGL LOG] matrix is not yet sorted, sorting host matrix
[OGL LOG] sort_host_mtx_sparsity_pattern : 226 ms
[OGL LOG] sort_host_mtx : 125 ms
[OGL LOG] init_preconditioner : 0 ms
[OGL LOG] solve : 38 ms
noneompGKOBiCGStab:  Solving for Uy, Initial residual = 0, Final residual = 0, No Iterations 0
[OGL LOG] init_host_sparsity_pattern : 266 ms
[OGL LOG] matrix not stored update host matrix
[OGL LOG] update_host_mtx : 146 ms
[OGL LOG] matrix is not yet sorted, sorting host matrix
[OGL LOG] sort_host_mtx_sparsity_pattern : 242 ms
[OGL LOG] sort_host_mtx : 134 ms
[OGL LOG] init_preconditioner : 0 ms
[OGL LOG] solve : 37 ms
noneompGKOBiCGStab:  Solving for Uz, Initial residual = 0, Final residual = 0, No Iterations 0
[OGL LOG] init_host_sparsity_pattern : 298 ms
[OGL LOG] matrix not stored update host matrix
[OGL LOG] update_host_mtx : 147 ms
[OGL LOG] matrix is not yet sorted, sorting host matrix
[OGL LOG] sort_host_mtx_sparsity_pattern : 192 ms
[OGL LOG] sort_host_mtx : 125 ms
[OGL LOG] init_preconditioner : 0 ms
[OGL LOG] solve : 10968 ms
noneompGKOCG:  Solving for p, Initial residual = 1, Final residual = 9.83961e-07, No Iterations 900
time step continuity errors : sum local = 5.89934e-10, global = -6.0227e-21, cumulative = -6.0227e-21
[OGL LOG] init_preconditioner : 0 ms
[OGL LOG] solve : 10117 ms
noneompGKOCG:  Solving for p, Initial residual = 0.783585, Final residual = 9.5493e-07, No Iterations 893
time step continuity errors : sum local = 7.15772e-10, global = 1.16988e-21, cumulative = -4.85282e-21
ExecutionTime = 742.06 s  ClockTime = 41 s

Time = 0.002

Courant Number mean: 0.0571435 max: 0.804774
[OGL LOG] init_host_sparsity_pattern : 266 ms
[OGL LOG] matrix not stored update host matrix
[OGL LOG] update_host_mtx : 147 ms
[OGL LOG] matrix is not yet sorted, sorting host matrix
[OGL LOG] sort_host_mtx_sparsity_pattern : 208 ms
[OGL LOG] sort_host_mtx : 123 ms
[OGL LOG] init_preconditioner : 0 ms
[OGL LOG] solve : 1269 ms
noneompGKOBiCGStab:  Solving for Ux, Initial residual = 0.169075, Final residual = 4.49382e-07, No Iterations 49
[OGL LOG] init_host_sparsity_pattern : 266 ms
[OGL LOG] matrix not stored update host matrix
[OGL LOG] update_host_mtx : 126 ms
[OGL LOG] matrix is not yet sorted, sorting host matrix
[OGL LOG] sort_host_mtx_sparsity_pattern : 201 ms
[OGL LOG] sort_host_mtx : 124 ms
[OGL LOG] init_preconditioner : 0 ms
[OGL LOG] solve : 1348 ms
noneompGKOBiCGStab:  Solving for Uy, Initial residual = 0.620181, Final residual = 6.98329e-07, No Iterations 52
[OGL LOG] init_host_sparsity_pattern : 266 ms
[OGL LOG] matrix not stored update host matrix
[OGL LOG] update_host_mtx : 127 ms
[OGL LOG] matrix is not yet sorted, sorting host matrix
[OGL LOG] sort_host_mtx_sparsity_pattern : 202 ms
[OGL LOG] sort_host_mtx : 124 ms
[OGL LOG] init_preconditioner : 0 ms
[OGL LOG] solve : 1357 ms
noneompGKOBiCGStab:  Solving for Uz, Initial residual = 0.646977, Final residual = 6.24844e-07, No Iterations 52
[OGL LOG] init_preconditioner : 0 ms
[OGL LOG] solve : 10408 ms
noneompGKOCG:  Solving for p, Initial residual = 0.798451, Final residual = 9.82613e-07, No Iterations 884
time step continuity errors : sum local = 9.99213e-10, global = 1.40024e-20, cumulative = 9.14955e-21
[OGL LOG] init_preconditioner : 0 ms
[OGL LOG] solve : 10196 ms
noneompGKOCG:  Solving for p, Initial residual = 0.738605, Final residual = 9.64564e-07, No Iterations 872
time step continuity errors : sum local = 1.00197e-09, global = 3.76851e-21, cumulative = 1.29181e-20
ExecutionTime = 1530.43 s  ClockTime = 69 s

Time = 0.003

Courant Number mean: 0.0867391 max: 0.944826
[OGL LOG] init_host_sparsity_pattern : 267 ms
[OGL LOG] matrix not stored update host matrix
[OGL LOG] update_host_mtx : 136 ms
[OGL LOG] matrix is not yet sorted, sorting host matrix
[OGL LOG] sort_host_mtx_sparsity_pattern : 222 ms
[OGL LOG] sort_host_mtx : 124 ms
[OGL LOG] init_preconditioner : 0 ms
[OGL LOG] solve : 1148 ms
noneompGKOBiCGStab:  Solving for Ux, Initial residual = 0.102638, Final residual = 9.42485e-07, No Iterations 47
[OGL LOG] init_host_sparsity_pattern : 285 ms
[OGL LOG] matrix not stored update host matrix
[OGL LOG] update_host_mtx : 136 ms
[OGL LOG] matrix is not yet sorted, sorting host matrix
[OGL LOG] sort_host_mtx_sparsity_pattern : 208 ms
[OGL LOG] sort_host_mtx : 124 ms
[OGL LOG] init_preconditioner : 0 ms
[OGL LOG] solve : 1271 ms
noneompGKOBiCGStab:  Solving for Uy, Initial residual = 0.396946, Final residual = 9.13708e-07, No Iterations 49
[OGL LOG] init_host_sparsity_pattern : 266 ms
[OGL LOG] matrix not stored update host matrix
[OGL LOG] update_host_mtx : 132 ms
[OGL LOG] matrix is not yet sorted, sorting host matrix
[OGL LOG] sort_host_mtx_sparsity_pattern : 203 ms
[OGL LOG] sort_host_mtx : 124 ms
[OGL LOG] init_preconditioner : 0 ms
[OGL LOG] solve : 1382 ms
noneompGKOBiCGStab:  Solving for Uz, Initial residual = 1.00086, Final residual = 9.69474e-07, No Iterations 53
[OGL LOG] init_preconditioner : 0 ms
[OGL LOG] solve : 10237 ms
noneompGKOCG:  Solving for p, Initial residual = 0.832647, Final residual = 9.56863e-07, No Iterations 890
time step continuity errors : sum local = 9.21761e-10, global = 1.44246e-20, cumulative = 2.73427e-20
[OGL LOG] init_preconditioner : 0 ms
[OGL LOG] solve : 10314 ms
noneompGKOCG:  Solving for p, Initial residual = 0.802905, Final residual = 9.53273e-07, No Iterations 889
time step continuity errors : sum local = 8.95345e-10, global = -5.43882e-21, cumulative = 2.19038e-20
ExecutionTime = 2311.28 s  ClockTime = 97 s

Time = 0.004

Courant Number mean: 0.0995267 max: 0.926351
[OGL LOG] init_host_sparsity_pattern : 266 ms
[OGL LOG] matrix not stored update host matrix
[OGL LOG] update_host_mtx : 133 ms
[OGL LOG] matrix is not yet sorted, sorting host matrix
[OGL LOG] sort_host_mtx_sparsity_pattern : 208 ms
[OGL LOG] sort_host_mtx : 124 ms
[OGL LOG] init_preconditioner : 0 ms
[OGL LOG] solve : 1158 ms
noneompGKOBiCGStab:  Solving for Ux, Initial residual = 0.0541607, Final residual = 7.45076e-07, No Iterations 45
[OGL LOG] init_host_sparsity_pattern : 266 ms
[OGL LOG] matrix not stored update host matrix
[OGL LOG] update_host_mtx : 126 ms
[OGL LOG] matrix is not yet sorted, sorting host matrix
[OGL LOG] sort_host_mtx_sparsity_pattern : 202 ms
[OGL LOG] sort_host_mtx : 124 ms
[OGL LOG] init_preconditioner : 0 ms
[OGL LOG] solve : 1243 ms
noneompGKOBiCGStab:  Solving for Uy, Initial residual = 0.255021, Final residual = 9.89053e-07, No Iterations 49
[OGL LOG] init_host_sparsity_pattern : 266 ms
[OGL LOG] matrix not stored update host matrix
[OGL LOG] update_host_mtx : 126 ms
[OGL LOG] matrix is not yet sorted, sorting host matrix
[OGL LOG] sort_host_mtx_sparsity_pattern : 204 ms
[OGL LOG] sort_host_mtx : 125 ms
[OGL LOG] init_preconditioner : 0 ms
[OGL LOG] solve : 1384 ms
noneompGKOBiCGStab:  Solving for Uz, Initial residual = 0.873009, Final residual = 9.25987e-07, No Iterations 55
[OGL LOG] init_preconditioner : 0 ms
[OGL LOG] solve : 10447 ms
noneompGKOCG:  Solving for p, Initial residual = 0.75017, Final residual = 9.64107e-07, No Iterations 889
time step continuity errors : sum local = 8.57922e-10, global = -7.58038e-21, cumulative = 1.43235e-20
[OGL LOG] init_preconditioner : 0 ms
[OGL LOG] solve : 9976 ms
noneompGKOCG:  Solving for p, Initial residual = 0.685316, Final residual = 9.6002e-07, No Iterations 887
time step continuity errors : sum local = 8.70442e-10, global = -2.36914e-21, cumulative = 1.19543e-20
ExecutionTime = 3087.85 s  ClockTime = 125 s

Time = 0.005

Courant Number mean: 0.112163 max: 0.946348
[OGL LOG] init_host_sparsity_pattern : 266 ms
[OGL LOG] matrix not stored update host matrix
[OGL LOG] update_host_mtx : 135 ms
[OGL LOG] matrix is not yet sorted, sorting host matrix
[OGL LOG] sort_host_mtx_sparsity_pattern : 211 ms
[OGL LOG] sort_host_mtx : 125 ms
[OGL LOG] init_preconditioner : 0 ms
[OGL LOG] solve : 1169 ms
noneompGKOBiCGStab:  Solving for Ux, Initial residual = 0.0411811, Final residual = 7.9524e-07, No Iterations 45
[OGL LOG] init_host_sparsity_pattern : 266 ms
[OGL LOG] matrix not stored update host matrix
[OGL LOG] update_host_mtx : 127 ms
[OGL LOG] matrix is not yet sorted, sorting host matrix
[OGL LOG] sort_host_mtx_sparsity_pattern : 204 ms
[OGL LOG] sort_host_mtx : 124 ms
[OGL LOG] init_preconditioner : 0 ms
[OGL LOG] solve : 1208 ms
noneompGKOBiCGStab:  Solving for Uy, Initial residual = 0.131858, Final residual = 9.48397e-07, No Iterations 46
[OGL LOG] init_host_sparsity_pattern : 274 ms
[OGL LOG] matrix not stored update host matrix
[OGL LOG] update_host_mtx : 128 ms
[OGL LOG] matrix is not yet sorted, sorting host matrix
[OGL LOG] sort_host_mtx_sparsity_pattern : 210 ms
[OGL LOG] sort_host_mtx : 125 ms
[OGL LOG] init_preconditioner : 0 ms
[OGL LOG] solve : 1351 ms
noneompGKOBiCGStab:  Solving for Uz, Initial residual = 0.871776, Final residual = 9.70866e-07, No Iterations 52
[OGL LOG] init_preconditioner : 0 ms
[OGL LOG] solve : 10598 ms
noneompGKOCG:  Solving for p, Initial residual = 0.760002, Final residual = 9.99344e-07, No Iterations 895
time step continuity errors : sum local = 7.5562e-10, global = -4.88385e-21, cumulative = 7.07047e-21
[OGL LOG] init_preconditioner : 0 ms
[OGL LOG] solve : 10052 ms
noneompGKOCG:  Solving for p, Initial residual = 0.713347, Final residual = 9.74448e-07, No Iterations 894
time step continuity errors : sum local = 7.25033e-10, global = 4.89151e-21, cumulative = 1.1962e-20
ExecutionTime = 3869.84 s  ClockTime = 152 s

End

