/*---------------------------------------------------------------------------*\
  =========                 |
  \\      /  F ield         | OpenFOAM: The Open Source CFD Toolbox
   \\    /   O peration     | Website:  https://openfoam.org
    \\  /    A nd           | Version:  8
     \\/     M anipulation  |
\*---------------------------------------------------------------------------*/
Build  : 8-13d66902f78c
Exec   : icoFoam
Date   : Jul 14 2021
Time   : 02:05:26
Host   : "uc2n398.localdomain"
PID    : 544150
I/O    : uncollated
Case   : /pfs/data5/home/kit/scc/nq7776/code/OGL_DATA/lidDrivenCavity3D/v0.1-136-g40fef35/f584ccac99/IntelXeonGold6230CPU@2.10GHz/Test_2021-07-14-01:40:40/50/p-U-BiCGStab-GKO-BJ-omp/lidDrivenCavity3D
nProcs : 1
sigFpe : Enabling floating point exception trapping (FOAM_SIGFPE).
fileModificationChecking : Monitoring run-time modified files using timeStampMaster (fileModificationSkew 10)
allowSystemOperations : Allowing user-supplied system call operations

// * * * * * * * * * * * * * * * * * * * * * * * * * * * * * * * * * * * * * //
Create time

Create mesh for time = 0

Reading transportProperties

Reading field p

Reading field U

Reading/calculating face flux field phi


Starting time loop

Time = 0.002

Courant Number mean: 0 max: 0
[OGL LOG] init_host_sparsity_pattern : 36 ms
[OGL LOG] matrix not stored update host matrix
[OGL LOG] update_host_mtx : 18 ms
[OGL LOG] matrix is not yet sorted, compute sorting idxs
[OGL LOG] compute_sort : 908 ms
[OGL LOG] matrix is not yet sorted, sorting host matrix
[OGL LOG] sort_host_mtx_sparsity_pattern : 23 ms
[OGL LOG] sort_host_mtx : 15 ms
[OGL LOG] init_preconditioner : 5 ms
[OGL LOG] solve : 204 ms
BJompGKOBiCGStab:  Solving for Ux, Initial residual = 1, Final residual = 3.61163e-07, No Iterations 40
[OGL LOG] init_host_sparsity_pattern : 35 ms
[OGL LOG] matrix not stored update host matrix
[OGL LOG] update_host_mtx : 18 ms
[OGL LOG] matrix is not yet sorted, sorting host matrix
[OGL LOG] sort_host_mtx_sparsity_pattern : 23 ms
[OGL LOG] sort_host_mtx : 12 ms
[OGL LOG] init_preconditioner : 5 ms
[OGL LOG] solve : 4 ms
BJompGKOBiCGStab:  Solving for Uy, Initial residual = 0, Final residual = 0, No Iterations 0
[OGL LOG] init_host_sparsity_pattern : 34 ms
[OGL LOG] matrix not stored update host matrix
[OGL LOG] update_host_mtx : 15 ms
[OGL LOG] matrix is not yet sorted, sorting host matrix
[OGL LOG] sort_host_mtx_sparsity_pattern : 23 ms
[OGL LOG] sort_host_mtx : 12 ms
[OGL LOG] init_preconditioner : 5 ms
[OGL LOG] solve : 4 ms
BJompGKOBiCGStab:  Solving for Uz, Initial residual = 0, Final residual = 0, No Iterations 0
[OGL LOG] init_host_sparsity_pattern : 32 ms
[OGL LOG] matrix not stored update host matrix
[OGL LOG] update_host_mtx : 18 ms
[OGL LOG] matrix is not yet sorted, sorting host matrix
[OGL LOG] sort_host_mtx_sparsity_pattern : 22 ms
[OGL LOG] sort_host_mtx : 14 ms
[OGL LOG] init_preconditioner : 5 ms
[OGL LOG] solve : 1273 ms
BJompGKOBiCGStab:  Solving for p, Initial residual = 1, Final residual = 8.1634e-07, No Iterations 313
time step continuity errors : sum local = 2.71509e-08, global = 1.41642e-20, cumulative = 1.41642e-20
[OGL LOG] init_preconditioner : 0 ms
[OGL LOG] solve : 1069 ms
BJompGKOBiCGStab:  Solving for p, Initial residual = 0.721581, Final residual = 9.44832e-07, No Iterations 303
time step continuity errors : sum local = 1.95256e-06, global = -2.9365e-20, cumulative = -1.52008e-20
ExecutionTime = 43.57 s  ClockTime = 5 s

Time = 0.004

Courant Number mean: 0.0720728 max: 0.72664
[OGL LOG] init_host_sparsity_pattern : 33 ms
[OGL LOG] matrix not stored update host matrix
[OGL LOG] update_host_mtx : 15 ms
[OGL LOG] matrix is not yet sorted, sorting host matrix
[OGL LOG] sort_host_mtx_sparsity_pattern : 25 ms
[OGL LOG] sort_host_mtx : 13 ms
[OGL LOG] init_preconditioner : 0 ms
[OGL LOG] solve : 145 ms
BJompGKOBiCGStab:  Solving for Ux, Initial residual = 0.203444, Final residual = 9.11273e-07, No Iterations 37
[OGL LOG] init_host_sparsity_pattern : 33 ms
[OGL LOG] matrix not stored update host matrix
[OGL LOG] update_host_mtx : 15 ms
[OGL LOG] matrix is not yet sorted, sorting host matrix
[OGL LOG] sort_host_mtx_sparsity_pattern : 22 ms
[OGL LOG] sort_host_mtx : 12 ms
[OGL LOG] init_preconditioner : 0 ms
[OGL LOG] solve : 155 ms
BJompGKOBiCGStab:  Solving for Uy, Initial residual = 0.61844, Final residual = 7.57669e-07, No Iterations 40
[OGL LOG] init_host_sparsity_pattern : 33 ms
[OGL LOG] matrix not stored update host matrix
[OGL LOG] update_host_mtx : 15 ms
[OGL LOG] matrix is not yet sorted, sorting host matrix
[OGL LOG] sort_host_mtx_sparsity_pattern : 22 ms
[OGL LOG] sort_host_mtx : 12 ms
[OGL LOG] init_preconditioner : 0 ms
[OGL LOG] solve : 148 ms
BJompGKOBiCGStab:  Solving for Uz, Initial residual = 0.53585, Final residual = 9.17899e-07, No Iterations 38
[OGL LOG] init_preconditioner : 0 ms
[OGL LOG] solve : 1178 ms
BJompGKOBiCGStab:  Solving for p, Initial residual = 0.673439, Final residual = 7.38867e-07, No Iterations 328
time step continuity errors : sum local = 1.93355e-08, global = -4.57569e-20, cumulative = -6.09577e-20
[OGL LOG] init_preconditioner : 0 ms
[OGL LOG] solve : 1142 ms
BJompGKOBiCGStab:  Solving for p, Initial residual = 0.59896, Final residual = 9.36007e-07, No Iterations 308
time step continuity errors : sum local = 3.92957e-08, global = 2.71349e-20, cumulative = -3.38228e-20
ExecutionTime = 88.55 s  ClockTime = 8 s

Time = 0.006

Courant Number mean: 0.107408 max: 0.881753
[OGL LOG] init_host_sparsity_pattern : 33 ms
[OGL LOG] matrix not stored update host matrix
[OGL LOG] update_host_mtx : 16 ms
[OGL LOG] matrix is not yet sorted, sorting host matrix
[OGL LOG] sort_host_mtx_sparsity_pattern : 24 ms
[OGL LOG] sort_host_mtx : 13 ms
[OGL LOG] init_preconditioner : 0 ms
[OGL LOG] solve : 130 ms
BJompGKOBiCGStab:  Solving for Ux, Initial residual = 0.099533, Final residual = 9.19047e-07, No Iterations 34
[OGL LOG] init_host_sparsity_pattern : 33 ms
[OGL LOG] matrix not stored update host matrix
[OGL LOG] update_host_mtx : 15 ms
[OGL LOG] matrix is not yet sorted, sorting host matrix
[OGL LOG] sort_host_mtx_sparsity_pattern : 22 ms
[OGL LOG] sort_host_mtx : 12 ms
[OGL LOG] init_preconditioner : 0 ms
[OGL LOG] solve : 140 ms
BJompGKOBiCGStab:  Solving for Uy, Initial residual = 0.250157, Final residual = 8.00394e-07, No Iterations 37
[OGL LOG] init_host_sparsity_pattern : 33 ms
[OGL LOG] matrix not stored update host matrix
[OGL LOG] update_host_mtx : 15 ms
[OGL LOG] matrix is not yet sorted, sorting host matrix
[OGL LOG] sort_host_mtx_sparsity_pattern : 22 ms
[OGL LOG] sort_host_mtx : 12 ms
[OGL LOG] init_preconditioner : 0 ms
[OGL LOG] solve : 154 ms
BJompGKOBiCGStab:  Solving for Uz, Initial residual = 0.544348, Final residual = 5.15899e-07, No Iterations 41
[OGL LOG] init_preconditioner : 0 ms
[OGL LOG] solve : 1219 ms
BJompGKOBiCGStab:  Solving for p, Initial residual = 0.606906, Final residual = 8.81514e-07, No Iterations 338
time step continuity errors : sum local = 3.26018e-09, global = -6.383e-21, cumulative = -4.02058e-20
[OGL LOG] init_preconditioner : 0 ms
[OGL LOG] solve : 1162 ms
BJompGKOBiCGStab:  Solving for p, Initial residual = 0.560947, Final residual = 5.37041e-07, No Iterations 325
time step continuity errors : sum local = 1.58244e-08, global = 3.58062e-21, cumulative = -3.66252e-20
ExecutionTime = 134.18 s  ClockTime = 11 s

Time = 0.008

Courant Number mean: 0.123244 max: 0.890104
[OGL LOG] init_host_sparsity_pattern : 32 ms
[OGL LOG] matrix not stored update host matrix
[OGL LOG] update_host_mtx : 15 ms
[OGL LOG] matrix is not yet sorted, sorting host matrix
[OGL LOG] sort_host_mtx_sparsity_pattern : 21 ms
[OGL LOG] sort_host_mtx : 12 ms
[OGL LOG] init_preconditioner : 0 ms
[OGL LOG] solve : 109 ms
BJompGKOBiCGStab:  Solving for Ux, Initial residual = 0.0341328, Final residual = 9.01134e-07, No Iterations 30
[OGL LOG] init_host_sparsity_pattern : 33 ms
[OGL LOG] matrix not stored update host matrix
[OGL LOG] update_host_mtx : 15 ms
[OGL LOG] matrix is not yet sorted, sorting host matrix
[OGL LOG] sort_host_mtx_sparsity_pattern : 21 ms
[OGL LOG] sort_host_mtx : 12 ms
[OGL LOG] init_preconditioner : 0 ms
[OGL LOG] solve : 126 ms
BJompGKOBiCGStab:  Solving for Uy, Initial residual = 0.132389, Final residual = 9.74068e-07, No Iterations 34
[OGL LOG] init_host_sparsity_pattern : 33 ms
[OGL LOG] matrix not stored update host matrix
[OGL LOG] update_host_mtx : 15 ms
[OGL LOG] matrix is not yet sorted, sorting host matrix
[OGL LOG] sort_host_mtx_sparsity_pattern : 21 ms
[OGL LOG] sort_host_mtx : 12 ms
[OGL LOG] init_preconditioner : 0 ms
[OGL LOG] solve : 141 ms
BJompGKOBiCGStab:  Solving for Uz, Initial residual = 0.473346, Final residual = 9.2465e-07, No Iterations 39
[OGL LOG] init_preconditioner : 0 ms
[OGL LOG] solve : 1242 ms
BJompGKOBiCGStab:  Solving for p, Initial residual = 0.423032, Final residual = 9.97436e-07, No Iterations 310
time step continuity errors : sum local = 5.00329e-09, global = -3.58208e-20, cumulative = -7.2446e-20
[OGL LOG] init_preconditioner : 0 ms
[OGL LOG] solve : 1184 ms
BJompGKOBiCGStab:  Solving for p, Initial residual = 0.36835, Final residual = 8.91468e-07, No Iterations 324
time step continuity errors : sum local = 2.59626e-09, global = 4.17703e-20, cumulative = -3.06757e-20
ExecutionTime = 179.73 s  ClockTime = 14 s

Time = 0.01

Courant Number mean: 0.136096 max: 0.906943
[OGL LOG] init_host_sparsity_pattern : 33 ms
[OGL LOG] matrix not stored update host matrix
[OGL LOG] update_host_mtx : 15 ms
[OGL LOG] matrix is not yet sorted, sorting host matrix
[OGL LOG] sort_host_mtx_sparsity_pattern : 26 ms
[OGL LOG] sort_host_mtx : 12 ms
[OGL LOG] init_preconditioner : 0 ms
[OGL LOG] solve : 114 ms
BJompGKOBiCGStab:  Solving for Ux, Initial residual = 0.0230756, Final residual = 8.35315e-07, No Iterations 29
[OGL LOG] init_host_sparsity_pattern : 33 ms
[OGL LOG] matrix not stored update host matrix
[OGL LOG] update_host_mtx : 15 ms
[OGL LOG] matrix is not yet sorted, sorting host matrix
[OGL LOG] sort_host_mtx_sparsity_pattern : 21 ms
[OGL LOG] sort_host_mtx : 12 ms
[OGL LOG] init_preconditioner : 0 ms
[OGL LOG] solve : 121 ms
BJompGKOBiCGStab:  Solving for Uy, Initial residual = 0.0483952, Final residual = 9.82616e-07, No Iterations 31
[OGL LOG] init_host_sparsity_pattern : 33 ms
[OGL LOG] matrix not stored update host matrix
[OGL LOG] update_host_mtx : 16 ms
[OGL LOG] matrix is not yet sorted, sorting host matrix
[OGL LOG] sort_host_mtx_sparsity_pattern : 21 ms
[OGL LOG] sort_host_mtx : 12 ms
[OGL LOG] init_preconditioner : 0 ms
[OGL LOG] solve : 134 ms
BJompGKOBiCGStab:  Solving for Uz, Initial residual = 0.159774, Final residual = 9.13555e-07, No Iterations 34
[OGL LOG] init_preconditioner : 0 ms
[OGL LOG] solve : 1118 ms
BJompGKOBiCGStab:  Solving for p, Initial residual = 0.361668, Final residual = 6.81059e-07, No Iterations 308
time step continuity errors : sum local = 2.52621e-09, global = -2.63517e-20, cumulative = -5.70274e-20
[OGL LOG] init_preconditioner : 0 ms
[OGL LOG] solve : 955 ms
BJompGKOBiCGStab:  Solving for p, Initial residual = 0.333174, Final residual = 9.81431e-07, No Iterations 265
time step continuity errors : sum local = 6.84187e-09, global = -6.49168e-20, cumulative = -1.21944e-19
ExecutionTime = 219.53 s  ClockTime = 17 s

End

