/*---------------------------------------------------------------------------*\
  =========                 |
  \\      /  F ield         | OpenFOAM: The Open Source CFD Toolbox
   \\    /   O peration     | Website:  https://openfoam.org
    \\  /    A nd           | Version:  8
     \\/     M anipulation  |
\*---------------------------------------------------------------------------*/
Build  : 8-13d66902f78c
Exec   : icoFoam
Date   : Jul 12 2021
Time   : 13:48:59
Host   : "uc2n438.localdomain"
PID    : 4132136
I/O    : uncollated
Case   : /pfs/data5/home/kit/scc/nq7776/code/OGL_DATA/lidDrivenCavity3D/v0.1-136-g40fef35/f584ccac99/IntelXeonGold6230CPU@2.10GHz/Test_2021-07-12-12:41:27/75/p-BiCGStab-GKO-BJ-omp/lidDrivenCavity3D
nProcs : 1
sigFpe : Enabling floating point exception trapping (FOAM_SIGFPE).
fileModificationChecking : Monitoring run-time modified files using timeStampMaster (fileModificationSkew 10)
allowSystemOperations : Allowing user-supplied system call operations

// * * * * * * * * * * * * * * * * * * * * * * * * * * * * * * * * * * * * * //
Create time

Create mesh for time = 0

Reading transportProperties

Reading field p

Reading field U

Reading/calculating face flux field phi


Starting time loop

Time = 0.00133333

Courant Number mean: 0 max: 0
nonePBiCGStab:  Solving for Ux, Initial residual = 1, Final residual = 0.0730231, No Iterations 5
nonePBiCGStab:  Solving for Uy, Initial residual = 0, Final residual = 0, No Iterations 0
nonePBiCGStab:  Solving for Uz, Initial residual = 0, Final residual = 0, No Iterations 0
[OGL LOG] init_host_sparsity_pattern : 124 ms
[OGL LOG] matrix not stored update host matrix
[OGL LOG] update_host_mtx : 62 ms
[OGL LOG] matrix is not yet sorted, compute sorting idxs
[OGL LOG] compute_sort : 3624 ms
[OGL LOG] matrix is not yet sorted, sorting host matrix
[OGL LOG] sort_host_mtx_sparsity_pattern : 81 ms
[OGL LOG] sort_host_mtx : 53 ms
[OGL LOG] init_preconditioner : 33 ms
[OGL LOG] solve : 10210 ms
BJompGKOBiCGStab:  Solving for p, Initial residual = 1, Final residual = 4.64271e-07, No Iterations 415
time step continuity errors : sum local = 3.75427e-09, global = 5.36811e-21, cumulative = 5.36811e-21
[OGL LOG] init_preconditioner : 0 ms
[OGL LOG] solve : 10129 ms
BJompGKOBiCGStab:  Solving for p, Initial residual = 0.697113, Final residual = 9.18802e-07, No Iterations 412
time step continuity errors : sum local = 2.86926e-08, global = -1.76383e-21, cumulative = 3.60428e-21
ExecutionTime = 87.2 s  ClockTime = 27 s

Time = 0.00266667

Courant Number mean: 0.0508076 max: 0.767232
nonePBiCGStab:  Solving for Ux, Initial residual = 0.140596, Final residual = 0.0324552, No Iterations 5
nonePBiCGStab:  Solving for Uy, Initial residual = 0.413641, Final residual = 0.0923312, No Iterations 5
nonePBiCGStab:  Solving for Uz, Initial residual = 0.983049, Final residual = 0.249957, No Iterations 5
[OGL LOG] init_preconditioner : 0 ms
[OGL LOG] solve : 9606 ms
BJompGKOBiCGStab:  Solving for p, Initial residual = 0.746884, Final residual = 9.49507e-07, No Iterations 395
time step continuity errors : sum local = 1.16489e-08, global = -1.31018e-20, cumulative = -9.4975e-21
[OGL LOG] init_preconditioner : 0 ms
[OGL LOG] solve : 9374 ms
BJompGKOBiCGStab:  Solving for p, Initial residual = 0.668118, Final residual = 7.30566e-07, No Iterations 386
time step continuity errors : sum local = 2.96794e-07, global = 1.31336e-20, cumulative = 3.6361e-21
ExecutionTime = 163.53 s  ClockTime = 46 s

Time = 0.004

Courant Number mean: 0.0796133 max: 0.886022
nonePBiCGStab:  Solving for Ux, Initial residual = 0.0584414, Final residual = 0.0111449, No Iterations 5
nonePBiCGStab:  Solving for Uy, Initial residual = 0.172006, Final residual = 0.0399151, No Iterations 5
nonePBiCGStab:  Solving for Uz, Initial residual = 0.609336, Final residual = 0.142386, No Iterations 5
[OGL LOG] init_preconditioner : 0 ms
[OGL LOG] solve : 9508 ms
BJompGKOBiCGStab:  Solving for p, Initial residual = 0.730381, Final residual = 5.02129e-07, No Iterations 397
time step continuity errors : sum local = 7.36739e-10, global = 2.05825e-20, cumulative = 2.42186e-20
[OGL LOG] init_preconditioner : 0 ms
[OGL LOG] solve : 9822 ms
BJompGKOBiCGStab:  Solving for p, Initial residual = 0.660947, Final residual = 9.10489e-07, No Iterations 407
time step continuity errors : sum local = 1.73691e-09, global = -9.96026e-21, cumulative = 1.42583e-20
ExecutionTime = 241.2 s  ClockTime = 66 s

Time = 0.00533333

Courant Number mean: 0.0948098 max: 0.902547
nonePBiCGStab:  Solving for Ux, Initial residual = 0.0345914, Final residual = 0.00683057, No Iterations 5
nonePBiCGStab:  Solving for Uy, Initial residual = 0.119561, Final residual = 0.0298643, No Iterations 5
nonePBiCGStab:  Solving for Uz, Initial residual = 0.386017, Final residual = 0.0815581, No Iterations 5
[OGL LOG] init_preconditioner : 0 ms
[OGL LOG] solve : 9679 ms
BJompGKOBiCGStab:  Solving for p, Initial residual = 0.609887, Final residual = 9.96152e-07, No Iterations 404
time step continuity errors : sum local = 1.26795e-09, global = -6.82047e-21, cumulative = 7.43785e-21
[OGL LOG] init_preconditioner : 0 ms
[OGL LOG] solve : 9278 ms
BJompGKOBiCGStab:  Solving for p, Initial residual = 0.521193, Final residual = 9.83992e-07, No Iterations 383
time step continuity errors : sum local = 1.36211e-09, global = 1.93791e-20, cumulative = 2.6817e-20
ExecutionTime = 317.38 s  ClockTime = 86 s

Time = 0.00666667

Courant Number mean: 0.107175 max: 0.916754
nonePBiCGStab:  Solving for Ux, Initial residual = 0.0257306, Final residual = 0.00503033, No Iterations 5
nonePBiCGStab:  Solving for Uy, Initial residual = 0.0750598, Final residual = 0.0208446, No Iterations 5
nonePBiCGStab:  Solving for Uz, Initial residual = 0.212757, Final residual = 0.0495008, No Iterations 5
[OGL LOG] init_preconditioner : 0 ms
[OGL LOG] solve : 9355 ms
BJompGKOBiCGStab:  Solving for p, Initial residual = 0.629345, Final residual = 7.76285e-07, No Iterations 391
time step continuity errors : sum local = 1.23009e-09, global = -1.69586e-20, cumulative = 9.85835e-21
[OGL LOG] init_preconditioner : 0 ms
[OGL LOG] solve : 10081 ms
BJompGKOBiCGStab:  Solving for p, Initial residual = 0.552182, Final residual = 7.53175e-07, No Iterations 416
time step continuity errors : sum local = 8.90109e-10, global = 5.95754e-21, cumulative = 1.58159e-20
ExecutionTime = 395.48 s  ClockTime = 105 s

End

