/*---------------------------------------------------------------------------*\
  =========                 |
  \\      /  F ield         | OpenFOAM: The Open Source CFD Toolbox
   \\    /   O peration     | Website:  https://openfoam.org
    \\  /    A nd           | Version:  8
     \\/     M anipulation  |
\*---------------------------------------------------------------------------*/
Build  : 8-13d66902f78c
Exec   : icoFoam
Date   : Jul 12 2021
Time   : 12:59:34
Host   : "uc2n438.localdomain"
PID    : 4128275
I/O    : uncollated
Case   : /pfs/data5/home/kit/scc/nq7776/code/OGL_DATA/lidDrivenCavity3D/v0.1-136-g40fef35/f584ccac99/IntelXeonGold6230CPU@2.10GHz/Test_2021-07-12-12:41:27/50/p-BiCGStab-GKO-BJ-omp/lidDrivenCavity3D
nProcs : 1
sigFpe : Enabling floating point exception trapping (FOAM_SIGFPE).
fileModificationChecking : Monitoring run-time modified files using timeStampMaster (fileModificationSkew 10)
allowSystemOperations : Allowing user-supplied system call operations

// * * * * * * * * * * * * * * * * * * * * * * * * * * * * * * * * * * * * * //
Create time

Create mesh for time = 0

Reading transportProperties

Reading field p

Reading field U

Reading/calculating face flux field phi


Starting time loop

Time = 0.002

Courant Number mean: 0 max: 0
nonePBiCGStab:  Solving for Ux, Initial residual = 1, Final residual = 0.0592055, No Iterations 5
nonePBiCGStab:  Solving for Uy, Initial residual = 0, Final residual = 0, No Iterations 0
nonePBiCGStab:  Solving for Uz, Initial residual = 0, Final residual = 0, No Iterations 0
[OGL LOG] init_host_sparsity_pattern : 35 ms
[OGL LOG] matrix not stored update host matrix
[OGL LOG] update_host_mtx : 18 ms
[OGL LOG] matrix is not yet sorted, compute sorting idxs
[OGL LOG] compute_sort : 989 ms
[OGL LOG] matrix is not yet sorted, sorting host matrix
[OGL LOG] sort_host_mtx_sparsity_pattern : 24 ms
[OGL LOG] sort_host_mtx : 15 ms
[OGL LOG] init_preconditioner : 5 ms
[OGL LOG] solve : 1381 ms
BJompGKOBiCGStab:  Solving for p, Initial residual = 1, Final residual = 9.53558e-07, No Iterations 281
time step continuity errors : sum local = 2.92948e-09, global = -7.52993e-21, cumulative = -7.52993e-21
[OGL LOG] init_preconditioner : 0 ms
[OGL LOG] solve : 1298 ms
BJompGKOBiCGStab:  Solving for p, Initial residual = 0.676727, Final residual = 9.28234e-07, No Iterations 269
time step continuity errors : sum local = 1.27679e-08, global = 2.10215e-20, cumulative = 1.34916e-20
ExecutionTime = 23.22 s  ClockTime = 5 s

Time = 0.004

Courant Number mean: 0.0636233 max: 0.723792
nonePBiCGStab:  Solving for Ux, Initial residual = 0.144135, Final residual = 0.02192, No Iterations 5
nonePBiCGStab:  Solving for Uy, Initial residual = 0.363931, Final residual = 0.0522819, No Iterations 5
nonePBiCGStab:  Solving for Uz, Initial residual = 0.973599, Final residual = 0.158925, No Iterations 5
[OGL LOG] init_preconditioner : 0 ms
[OGL LOG] solve : 1318 ms
BJompGKOBiCGStab:  Solving for p, Initial residual = 0.668514, Final residual = 9.71525e-07, No Iterations 269
time step continuity errors : sum local = 3.88348e-09, global = 1.30004e-20, cumulative = 2.64919e-20
[OGL LOG] init_preconditioner : 0 ms
[OGL LOG] solve : 1285 ms
BJompGKOBiCGStab:  Solving for p, Initial residual = 0.584667, Final residual = 8.11497e-07, No Iterations 267
time step continuity errors : sum local = 2.23051e-09, global = -1.24996e-20, cumulative = 1.39923e-20
ExecutionTime = 44.19 s  ClockTime = 8 s

Time = 0.006

Courant Number mean: 0.0972275 max: 0.862514
nonePBiCGStab:  Solving for Ux, Initial residual = 0.0524173, Final residual = 0.00685522, No Iterations 5
nonePBiCGStab:  Solving for Uy, Initial residual = 0.127051, Final residual = 0.0201185, No Iterations 5
nonePBiCGStab:  Solving for Uz, Initial residual = 0.366707, Final residual = 0.0530842, No Iterations 5
[OGL LOG] init_preconditioner : 0 ms
[OGL LOG] solve : 1260 ms
BJompGKOBiCGStab:  Solving for p, Initial residual = 0.594542, Final residual = 9.97085e-07, No Iterations 262
time step continuity errors : sum local = 3.176e-09, global = -1.24028e-20, cumulative = 1.58957e-21
[OGL LOG] init_preconditioner : 0 ms
[OGL LOG] solve : 1271 ms
BJompGKOBiCGStab:  Solving for p, Initial residual = 0.528696, Final residual = 7.02905e-07, No Iterations 262
time step continuity errors : sum local = 7.18912e-09, global = 7.95171e-21, cumulative = 9.54128e-21
ExecutionTime = 64.59 s  ClockTime = 10 s

Time = 0.008

Courant Number mean: 0.113794 max: 0.88248
nonePBiCGStab:  Solving for Ux, Initial residual = 0.028959, Final residual = 0.003445, No Iterations 5
nonePBiCGStab:  Solving for Uy, Initial residual = 0.0844216, Final residual = 0.0109194, No Iterations 5
nonePBiCGStab:  Solving for Uz, Initial residual = 0.229142, Final residual = 0.0297753, No Iterations 5
[OGL LOG] init_preconditioner : 0 ms
[OGL LOG] solve : 1252 ms
BJompGKOBiCGStab:  Solving for p, Initial residual = 0.411429, Final residual = 8.15482e-07, No Iterations 259
time step continuity errors : sum local = 2.08149e-09, global = -5.34563e-20, cumulative = -4.3915e-20
[OGL LOG] init_preconditioner : 0 ms
[OGL LOG] solve : 1286 ms
BJompGKOBiCGStab:  Solving for p, Initial residual = 0.342689, Final residual = 8.70803e-07, No Iterations 267
time step continuity errors : sum local = 2.5467e-09, global = -2.45868e-20, cumulative = -6.85018e-20
ExecutionTime = 85.04 s  ClockTime = 13 s

Time = 0.01

Courant Number mean: 0.127339 max: 0.898877
nonePBiCGStab:  Solving for Ux, Initial residual = 0.0202777, Final residual = 0.00208488, No Iterations 5
nonePBiCGStab:  Solving for Uy, Initial residual = 0.0505573, Final residual = 0.00623595, No Iterations 5
nonePBiCGStab:  Solving for Uz, Initial residual = 0.112891, Final residual = 0.0180698, No Iterations 5
[OGL LOG] init_preconditioner : 0 ms
[OGL LOG] solve : 1246 ms
BJompGKOBiCGStab:  Solving for p, Initial residual = 0.354043, Final residual = 3.49462e-07, No Iterations 259
time step continuity errors : sum local = 1.33882e-07, global = 1.80633e-20, cumulative = -5.04385e-20
[OGL LOG] init_preconditioner : 0 ms
[OGL LOG] solve : 1189 ms
BJompGKOBiCGStab:  Solving for p, Initial residual = 0.30227, Final residual = 1.96382e-07, No Iterations 247
time step continuity errors : sum local = 2.47682e-10, global = 3.34845e-21, cumulative = -4.70901e-20
ExecutionTime = 104.65 s  ClockTime = 15 s

End

