/*---------------------------------------------------------------------------*\
  =========                 |
  \\      /  F ield         | OpenFOAM: The Open Source CFD Toolbox
   \\    /   O peration     | Website:  https://openfoam.org
    \\  /    A nd           | Version:  8
     \\/     M anipulation  |
\*---------------------------------------------------------------------------*/
Build  : 8-13d66902f78c
Exec   : icoFoam
Date   : Jul 14 2021
Time   : 02:08:02
Host   : "uc2n394.localdomain"
PID    : 3282854
I/O    : uncollated
Case   : /pfs/data5/home/kit/scc/nq7776/code/OGL_DATA/lidDrivenCavity3D/v0.1-136-g40fef35/f584ccac99/IntelXeonGold6230CPU@2.10GHz/Test_2021-07-14-00:31:10/75/p-BiCGStab-GKO-BJ-omp/lidDrivenCavity3D
nProcs : 1
sigFpe : Enabling floating point exception trapping (FOAM_SIGFPE).
fileModificationChecking : Monitoring run-time modified files using timeStampMaster (fileModificationSkew 10)
allowSystemOperations : Allowing user-supplied system call operations

// * * * * * * * * * * * * * * * * * * * * * * * * * * * * * * * * * * * * * //
Create time

Create mesh for time = 0

Reading transportProperties

Reading field p

Reading field U

Reading/calculating face flux field phi


Starting time loop

Time = 0.00133333

Courant Number mean: 0 max: 0
nonePBiCGStab:  Solving for Ux, Initial residual = 1, Final residual = 0.0730209, No Iterations 5
nonePBiCGStab:  Solving for Uy, Initial residual = 0, Final residual = 0, No Iterations 0
nonePBiCGStab:  Solving for Uz, Initial residual = 0, Final residual = 0, No Iterations 0
[OGL LOG] init_host_sparsity_pattern : 124 ms
[OGL LOG] matrix not stored update host matrix
[OGL LOG] update_host_mtx : 62 ms
[OGL LOG] matrix is not yet sorted, compute sorting idxs
[OGL LOG] compute_sort : 3339 ms
[OGL LOG] matrix is not yet sorted, sorting host matrix
[OGL LOG] sort_host_mtx_sparsity_pattern : 82 ms
[OGL LOG] sort_host_mtx : 52 ms
[OGL LOG] init_preconditioner : 17 ms
[OGL LOG] solve : 6522 ms
BJompGKOBiCGStab:  Solving for p, Initial residual = 1, Final residual = 9.97466e-07, No Iterations 484
time step continuity errors : sum local = 8.63907e-10, global = 1.26993e-20, cumulative = 1.26993e-20
[OGL LOG] init_preconditioner : 0 ms
[OGL LOG] solve : 5920 ms
BJompGKOBiCGStab:  Solving for p, Initial residual = 0.697097, Final residual = 8.49162e-07, No Iterations 478
time step continuity errors : sum local = 4.45211e-09, global = 2.77818e-21, cumulative = 1.54775e-20
ExecutionTime = 202.67 s  ClockTime = 18 s

Time = 0.00266667

Courant Number mean: 0.0508075 max: 0.767258
nonePBiCGStab:  Solving for Ux, Initial residual = 0.140587, Final residual = 0.0324501, No Iterations 5
nonePBiCGStab:  Solving for Uy, Initial residual = 0.41364, Final residual = 0.0923272, No Iterations 5
nonePBiCGStab:  Solving for Uz, Initial residual = 0.983118, Final residual = 0.24982, No Iterations 5
[OGL LOG] init_preconditioner : 0 ms
[OGL LOG] solve : 6361 ms
BJompGKOBiCGStab:  Solving for p, Initial residual = 0.746899, Final residual = 8.73564e-07, No Iterations 497
time step continuity errors : sum local = 3.85855e-08, global = 1.80302e-20, cumulative = 3.35076e-20
[OGL LOG] init_preconditioner : 0 ms
[OGL LOG] solve : 6379 ms
BJompGKOBiCGStab:  Solving for p, Initial residual = 0.668148, Final residual = 9.06989e-07, No Iterations 502
time step continuity errors : sum local = 2.56289e-09, global = 1.35938e-20, cumulative = 4.71015e-20
ExecutionTime = 406.59 s  ClockTime = 31 s

Time = 0.004

Courant Number mean: 0.0796135 max: 0.886044
nonePBiCGStab:  Solving for Ux, Initial residual = 0.0584481, Final residual = 0.0111483, No Iterations 5
nonePBiCGStab:  Solving for Uy, Initial residual = 0.171961, Final residual = 0.0398812, No Iterations 5
nonePBiCGStab:  Solving for Uz, Initial residual = 0.610879, Final residual = 0.142389, No Iterations 5
[OGL LOG] init_preconditioner : 0 ms
[OGL LOG] solve : 6167 ms
BJompGKOBiCGStab:  Solving for p, Initial residual = 0.730356, Final residual = 8.09098e-07, No Iterations 507
time step continuity errors : sum local = 6.00392e-09, global = -3.52343e-21, cumulative = 4.3578e-20
[OGL LOG] init_preconditioner : 0 ms
[OGL LOG] solve : 6047 ms
BJompGKOBiCGStab:  Solving for p, Initial residual = 0.66089, Final residual = 5.25353e-07, No Iterations 486
time step continuity errors : sum local = 6.52701e-08, global = 1.54816e-20, cumulative = 5.90596e-20
ExecutionTime = 602.13 s  ClockTime = 44 s

Time = 0.00533333

Courant Number mean: 0.0948106 max: 0.902572
nonePBiCGStab:  Solving for Ux, Initial residual = 0.0345956, Final residual = 0.00682965, No Iterations 5
nonePBiCGStab:  Solving for Uy, Initial residual = 0.119546, Final residual = 0.029821, No Iterations 5
nonePBiCGStab:  Solving for Uz, Initial residual = 0.385992, Final residual = 0.0807652, No Iterations 5
[OGL LOG] init_preconditioner : 0 ms
[OGL LOG] solve : 5526 ms
BJompGKOBiCGStab:  Solving for p, Initial residual = 0.609793, Final residual = 9.85526e-07, No Iterations 455
time step continuity errors : sum local = 1.28148e-09, global = -5.33731e-21, cumulative = 5.37223e-20
[OGL LOG] init_preconditioner : 0 ms
[OGL LOG] solve : 6213 ms
BJompGKOBiCGStab:  Solving for p, Initial residual = 0.521118, Final residual = 4.02745e-07, No Iterations 499
time step continuity errors : sum local = 4.37085e-10, global = 2.47282e-20, cumulative = 7.84505e-20
ExecutionTime = 790.08 s  ClockTime = 56 s

Time = 0.00666667

Courant Number mean: 0.107177 max: 0.916781
nonePBiCGStab:  Solving for Ux, Initial residual = 0.0257318, Final residual = 0.00503126, No Iterations 5
nonePBiCGStab:  Solving for Uy, Initial residual = 0.0750485, Final residual = 0.0208243, No Iterations 5
nonePBiCGStab:  Solving for Uz, Initial residual = 0.212645, Final residual = 0.049549, No Iterations 5
[OGL LOG] init_preconditioner : 0 ms
[OGL LOG] solve : 5948 ms
BJompGKOBiCGStab:  Solving for p, Initial residual = 0.629322, Final residual = 8.94687e-07, No Iterations 485
time step continuity errors : sum local = 5.45316e-09, global = 2.28622e-20, cumulative = 1.01313e-19
[OGL LOG] init_preconditioner : 0 ms
[OGL LOG] solve : 5227 ms
BJompGKOBiCGStab:  Solving for p, Initial residual = 0.552162, Final residual = 9.3515e-07, No Iterations 416
time step continuity errors : sum local = 4.59386e-09, global = -5.36428e-21, cumulative = 9.59484e-20
ExecutionTime = 969.01 s  ClockTime = 68 s

End

