/*---------------------------------------------------------------------------*\
  =========                 |
  \\      /  F ield         | OpenFOAM: The Open Source CFD Toolbox
   \\    /   O peration     | Website:  https://openfoam.org
    \\  /    A nd           | Version:  8
     \\/     M anipulation  |
\*---------------------------------------------------------------------------*/
Build  : 8-13d66902f78c
Exec   : icoFoam
Date   : Jul 12 2021
Time   : 13:30:42
Host   : "uc2n402.localdomain"
PID    : 3436214
I/O    : uncollated
Case   : /pfs/data5/home/kit/scc/nq7776/code/OGL_DATA/lidDrivenCavity3D/v0.1-136-g40fef35/f584ccac99/IntelXeonGold6230CPU@2.10GHz/Test_2021-07-12-12:43:44/75/p-U-CG-GKO-none-omp/lidDrivenCavity3D
nProcs : 1
sigFpe : Enabling floating point exception trapping (FOAM_SIGFPE).
fileModificationChecking : Monitoring run-time modified files using timeStampMaster (fileModificationSkew 10)
allowSystemOperations : Allowing user-supplied system call operations

// * * * * * * * * * * * * * * * * * * * * * * * * * * * * * * * * * * * * * //
Create time

Create mesh for time = 0

Reading transportProperties

Reading field p

Reading field U

Reading/calculating face flux field phi


Starting time loop

Time = 0.00133333

Courant Number mean: 0 max: 0
[OGL LOG] init_host_sparsity_pattern : 120 ms
[OGL LOG] matrix not stored update host matrix
[OGL LOG] update_host_mtx : 61 ms
[OGL LOG] matrix is not yet sorted, compute sorting idxs
[OGL LOG] compute_sort : 3626 ms
[OGL LOG] matrix is not yet sorted, sorting host matrix
[OGL LOG] sort_host_mtx_sparsity_pattern : 77 ms
[OGL LOG] sort_host_mtx : 52 ms
[OGL LOG] init_preconditioner : 0 ms
[OGL LOG] solve : 554 ms
noneompGKOBiCGStab:  Solving for Ux, Initial residual = 1, Final residual = 3.51283e-07, No Iterations 51
[OGL LOG] init_host_sparsity_pattern : 116 ms
[OGL LOG] matrix not stored update host matrix
[OGL LOG] update_host_mtx : 61 ms
[OGL LOG] matrix is not yet sorted, sorting host matrix
[OGL LOG] sort_host_mtx_sparsity_pattern : 80 ms
[OGL LOG] sort_host_mtx : 43 ms
[OGL LOG] init_preconditioner : 0 ms
[OGL LOG] solve : 14 ms
noneompGKOBiCGStab:  Solving for Uy, Initial residual = 0, Final residual = 0, No Iterations 0
[OGL LOG] init_host_sparsity_pattern : 111 ms
[OGL LOG] matrix not stored update host matrix
[OGL LOG] update_host_mtx : 53 ms
[OGL LOG] matrix is not yet sorted, sorting host matrix
[OGL LOG] sort_host_mtx_sparsity_pattern : 79 ms
[OGL LOG] sort_host_mtx : 43 ms
[OGL LOG] init_preconditioner : 0 ms
[OGL LOG] solve : 13 ms
noneompGKOBiCGStab:  Solving for Uz, Initial residual = 0, Final residual = 0, No Iterations 0
[OGL LOG] init_host_sparsity_pattern : 115 ms
[OGL LOG] matrix not stored update host matrix
[OGL LOG] update_host_mtx : 64 ms
[OGL LOG] matrix is not yet sorted, sorting host matrix
[OGL LOG] sort_host_mtx_sparsity_pattern : 80 ms
[OGL LOG] sort_host_mtx : 43 ms
[OGL LOG] init_preconditioner : 0 ms
[OGL LOG] solve : 3331 ms
noneompGKOCG:  Solving for p, Initial residual = 1, Final residual = 9.25016e-07, No Iterations 671
time step continuity errors : sum local = 8.44899e-10, global = -8.2491e-21, cumulative = -8.2491e-21
[OGL LOG] init_preconditioner : 0 ms
[OGL LOG] solve : 3030 ms
noneompGKOCG:  Solving for p, Initial residual = 0.759326, Final residual = 8.8602e-07, No Iterations 667
time step continuity errors : sum local = 1.036e-09, global = -7.29029e-21, cumulative = -1.55394e-20
ExecutionTime = 118.27 s  ClockTime = 14 s

Time = 0.00266667

Courant Number mean: 0.0631769 max: 0.775367
[OGL LOG] init_host_sparsity_pattern : 111 ms
[OGL LOG] matrix not stored update host matrix
[OGL LOG] update_host_mtx : 56 ms
[OGL LOG] matrix is not yet sorted, sorting host matrix
[OGL LOG] sort_host_mtx_sparsity_pattern : 79 ms
[OGL LOG] sort_host_mtx : 44 ms
[OGL LOG] init_preconditioner : 0 ms
[OGL LOG] solve : 404 ms
noneompGKOBiCGStab:  Solving for Ux, Initial residual = 0.183034, Final residual = 9.76925e-07, No Iterations 41
[OGL LOG] init_host_sparsity_pattern : 113 ms
[OGL LOG] matrix not stored update host matrix
[OGL LOG] update_host_mtx : 60 ms
[OGL LOG] matrix is not yet sorted, sorting host matrix
[OGL LOG] sort_host_mtx_sparsity_pattern : 78 ms
[OGL LOG] sort_host_mtx : 43 ms
[OGL LOG] init_preconditioner : 0 ms
[OGL LOG] solve : 424 ms
noneompGKOBiCGStab:  Solving for Uy, Initial residual = 0.619629, Final residual = 8.78563e-07, No Iterations 45
[OGL LOG] init_host_sparsity_pattern : 112 ms
[OGL LOG] matrix not stored update host matrix
[OGL LOG] update_host_mtx : 53 ms
[OGL LOG] matrix is not yet sorted, sorting host matrix
[OGL LOG] sort_host_mtx_sparsity_pattern : 72 ms
[OGL LOG] sort_host_mtx : 43 ms
[OGL LOG] init_preconditioner : 0 ms
[OGL LOG] solve : 429 ms
noneompGKOBiCGStab:  Solving for Uz, Initial residual = 0.60471, Final residual = 9.68544e-07, No Iterations 47
[OGL LOG] init_preconditioner : 0 ms
[OGL LOG] solve : 2981 ms
noneompGKOCG:  Solving for p, Initial residual = 0.749129, Final residual = 9.98159e-07, No Iterations 644
time step continuity errors : sum local = 1.42124e-09, global = -1.7828e-20, cumulative = -3.33674e-20
[OGL LOG] init_preconditioner : 0 ms
[OGL LOG] solve : 3129 ms
noneompGKOCG:  Solving for p, Initial residual = 0.683906, Final residual = 9.64371e-07, No Iterations 643
time step continuity errors : sum local = 1.40348e-09, global = 3.73041e-21, cumulative = -2.9637e-20
ExecutionTime = 237.53 s  ClockTime = 23 s

Time = 0.004

Courant Number mean: 0.0951461 max: 0.917097
[OGL LOG] init_host_sparsity_pattern : 112 ms
[OGL LOG] matrix not stored update host matrix
[OGL LOG] update_host_mtx : 56 ms
[OGL LOG] matrix is not yet sorted, sorting host matrix
[OGL LOG] sort_host_mtx_sparsity_pattern : 79 ms
[OGL LOG] sort_host_mtx : 43 ms
[OGL LOG] init_preconditioner : 0 ms
[OGL LOG] solve : 395 ms
noneompGKOBiCGStab:  Solving for Ux, Initial residual = 0.101944, Final residual = 9.33364e-07, No Iterations 42
[OGL LOG] init_host_sparsity_pattern : 113 ms
[OGL LOG] matrix not stored update host matrix
[OGL LOG] update_host_mtx : 57 ms
[OGL LOG] matrix is not yet sorted, sorting host matrix
[OGL LOG] sort_host_mtx_sparsity_pattern : 76 ms
[OGL LOG] sort_host_mtx : 43 ms
[OGL LOG] init_preconditioner : 0 ms
[OGL LOG] solve : 415 ms
noneompGKOBiCGStab:  Solving for Uy, Initial residual = 0.335433, Final residual = 8.57252e-07, No Iterations 45
[OGL LOG] init_host_sparsity_pattern : 114 ms
[OGL LOG] matrix not stored update host matrix
[OGL LOG] update_host_mtx : 53 ms
[OGL LOG] matrix is not yet sorted, sorting host matrix
[OGL LOG] sort_host_mtx_sparsity_pattern : 72 ms
[OGL LOG] sort_host_mtx : 43 ms
[OGL LOG] init_preconditioner : 0 ms
[OGL LOG] solve : 424 ms
noneompGKOBiCGStab:  Solving for Uz, Initial residual = 0.920733, Final residual = 7.64348e-07, No Iterations 46
[OGL LOG] init_preconditioner : 0 ms
[OGL LOG] solve : 3065 ms
noneompGKOCG:  Solving for p, Initial residual = 0.754753, Final residual = 9.73556e-07, No Iterations 663
time step continuity errors : sum local = 1.1444e-09, global = 1.18026e-20, cumulative = -1.78343e-20
[OGL LOG] init_preconditioner : 0 ms
[OGL LOG] solve : 3090 ms
noneompGKOCG:  Solving for p, Initial residual = 0.71702, Final residual = 9.88359e-07, No Iterations 661
time step continuity errors : sum local = 1.12738e-09, global = 1.65394e-20, cumulative = -1.29491e-21
ExecutionTime = 357.26 s  ClockTime = 31 s

Time = 0.00533333

Courant Number mean: 0.109256 max: 0.913435
[OGL LOG] init_host_sparsity_pattern : 111 ms
[OGL LOG] matrix not stored update host matrix
[OGL LOG] update_host_mtx : 56 ms
[OGL LOG] matrix is not yet sorted, sorting host matrix
[OGL LOG] sort_host_mtx_sparsity_pattern : 79 ms
[OGL LOG] sort_host_mtx : 43 ms
[OGL LOG] init_preconditioner : 0 ms
[OGL LOG] solve : 443 ms
noneompGKOBiCGStab:  Solving for Ux, Initial residual = 0.0446965, Final residual = 9.19275e-07, No Iterations 39
[OGL LOG] init_host_sparsity_pattern : 112 ms
[OGL LOG] matrix not stored update host matrix
[OGL LOG] update_host_mtx : 53 ms
[OGL LOG] matrix is not yet sorted, sorting host matrix
[OGL LOG] sort_host_mtx_sparsity_pattern : 72 ms
[OGL LOG] sort_host_mtx : 43 ms
[OGL LOG] init_preconditioner : 0 ms
[OGL LOG] solve : 411 ms
noneompGKOBiCGStab:  Solving for Uy, Initial residual = 0.197564, Final residual = 7.82388e-07, No Iterations 40
[OGL LOG] init_host_sparsity_pattern : 112 ms
[OGL LOG] matrix not stored update host matrix
[OGL LOG] update_host_mtx : 55 ms
[OGL LOG] matrix is not yet sorted, sorting host matrix
[OGL LOG] sort_host_mtx_sparsity_pattern : 74 ms
[OGL LOG] sort_host_mtx : 44 ms
[OGL LOG] init_preconditioner : 0 ms
[OGL LOG] solve : 456 ms
noneompGKOBiCGStab:  Solving for Uz, Initial residual = 0.732472, Final residual = 9.74815e-07, No Iterations 48
[OGL LOG] init_preconditioner : 0 ms
[OGL LOG] solve : 3221 ms
noneompGKOCG:  Solving for p, Initial residual = 0.617352, Final residual = 9.83647e-07, No Iterations 661
time step continuity errors : sum local = 1.0249e-09, global = -1.70746e-20, cumulative = -1.83695e-20
[OGL LOG] init_preconditioner : 0 ms
[OGL LOG] solve : 3159 ms
noneompGKOCG:  Solving for p, Initial residual = 0.554745, Final residual = 9.7838e-07, No Iterations 659
time step continuity errors : sum local = 1.03401e-09, global = -6.15967e-21, cumulative = -2.45291e-20
ExecutionTime = 481.8 s  ClockTime = 40 s

Time = 0.00666667

Courant Number mean: 0.122085 max: 0.929082
[OGL LOG] init_host_sparsity_pattern : 112 ms
[OGL LOG] matrix not stored update host matrix
[OGL LOG] update_host_mtx : 54 ms
[OGL LOG] matrix is not yet sorted, sorting host matrix
[OGL LOG] sort_host_mtx_sparsity_pattern : 74 ms
[OGL LOG] sort_host_mtx : 44 ms
[OGL LOG] init_preconditioner : 0 ms
[OGL LOG] solve : 382 ms
noneompGKOBiCGStab:  Solving for Ux, Initial residual = 0.0319074, Final residual = 9.43896e-07, No Iterations 39
[OGL LOG] init_host_sparsity_pattern : 112 ms
[OGL LOG] matrix not stored update host matrix
[OGL LOG] update_host_mtx : 54 ms
[OGL LOG] matrix is not yet sorted, sorting host matrix
[OGL LOG] sort_host_mtx_sparsity_pattern : 74 ms
[OGL LOG] sort_host_mtx : 44 ms
[OGL LOG] init_preconditioner : 0 ms
[OGL LOG] solve : 405 ms
noneompGKOBiCGStab:  Solving for Uy, Initial residual = 0.0804625, Final residual = 6.12955e-07, No Iterations 41
[OGL LOG] init_host_sparsity_pattern : 112 ms
[OGL LOG] matrix not stored update host matrix
[OGL LOG] update_host_mtx : 54 ms
[OGL LOG] matrix is not yet sorted, sorting host matrix
[OGL LOG] sort_host_mtx_sparsity_pattern : 74 ms
[OGL LOG] sort_host_mtx : 44 ms
[OGL LOG] init_preconditioner : 0 ms
[OGL LOG] solve : 413 ms
noneompGKOBiCGStab:  Solving for Uz, Initial residual = 0.513475, Final residual = 6.81407e-07, No Iterations 42
[OGL LOG] init_preconditioner : 0 ms
[OGL LOG] solve : 3223 ms
noneompGKOCG:  Solving for p, Initial residual = 0.591988, Final residual = 9.73185e-07, No Iterations 666
time step continuity errors : sum local = 8.14533e-10, global = 9.00745e-21, cumulative = -1.55217e-20
[OGL LOG] init_preconditioner : 0 ms
[OGL LOG] solve : 3411 ms
noneompGKOCG:  Solving for p, Initial residual = 0.543115, Final residual = 9.06972e-07, No Iterations 666
time step continuity errors : sum local = 7.49715e-10, global = 1.06635e-20, cumulative = -4.85822e-21
ExecutionTime = 608.77 s  ClockTime = 50 s

End

