/*---------------------------------------------------------------------------*\
  =========                 |
  \\      /  F ield         | OpenFOAM: The Open Source CFD Toolbox
   \\    /   O peration     | Website:  https://openfoam.org
    \\  /    A nd           | Version:  8
     \\/     M anipulation  |
\*---------------------------------------------------------------------------*/
Build  : 8-13d66902f78c
Exec   : icoFoam
Date   : Jul 12 2021
Time   : 12:54:40
Host   : "uc2n400.localdomain"
PID    : 3888495
I/O    : uncollated
Case   : /pfs/data5/home/kit/scc/nq7776/code/OGL_DATA/lidDrivenCavity3D/v0.1-136-g40fef35/f584ccac99/IntelXeonGold6230CPU@2.10GHz/Test_2021-07-12-12:50:00/25/p-U-BiCGStab-GKO-none-omp/lidDrivenCavity3D
nProcs : 1
sigFpe : Enabling floating point exception trapping (FOAM_SIGFPE).
fileModificationChecking : Monitoring run-time modified files using timeStampMaster (fileModificationSkew 10)
allowSystemOperations : Allowing user-supplied system call operations

// * * * * * * * * * * * * * * * * * * * * * * * * * * * * * * * * * * * * * //
Create time

Create mesh for time = 0

Reading transportProperties

Reading field p

Reading field U

Reading/calculating face flux field phi


Starting time loop

Time = 0.004

Courant Number mean: 0 max: 0
[OGL LOG] init_host_sparsity_pattern : 4 ms
[OGL LOG] matrix not stored update host matrix
[OGL LOG] update_host_mtx : 2 ms
[OGL LOG] matrix is not yet sorted, compute sorting idxs
[OGL LOG] compute_sort : 105 ms
[OGL LOG] matrix is not yet sorted, sorting host matrix
[OGL LOG] sort_host_mtx_sparsity_pattern : 2 ms
[OGL LOG] sort_host_mtx : 1 ms
[OGL LOG] init_preconditioner : 0 ms
[OGL LOG] solve : 13 ms
noneompGKOBiCGStab:  Solving for Ux, Initial residual = 1, Final residual = 7.6541e-07, No Iterations 28
[OGL LOG] init_host_sparsity_pattern : 4 ms
[OGL LOG] matrix not stored update host matrix
[OGL LOG] update_host_mtx : 2 ms
[OGL LOG] matrix is not yet sorted, sorting host matrix
[OGL LOG] sort_host_mtx_sparsity_pattern : 3 ms
[OGL LOG] sort_host_mtx : 1 ms
[OGL LOG] init_preconditioner : 0 ms
[OGL LOG] solve : 0 ms
noneompGKOBiCGStab:  Solving for Uy, Initial residual = 0, Final residual = 0, No Iterations 0
[OGL LOG] init_host_sparsity_pattern : 4 ms
[OGL LOG] matrix not stored update host matrix
[OGL LOG] update_host_mtx : 2 ms
[OGL LOG] matrix is not yet sorted, sorting host matrix
[OGL LOG] sort_host_mtx_sparsity_pattern : 2 ms
[OGL LOG] sort_host_mtx : 1 ms
[OGL LOG] init_preconditioner : 0 ms
[OGL LOG] solve : 0 ms
noneompGKOBiCGStab:  Solving for Uz, Initial residual = 0, Final residual = 0, No Iterations 0
[OGL LOG] init_host_sparsity_pattern : 4 ms
[OGL LOG] matrix not stored update host matrix
[OGL LOG] update_host_mtx : 1 ms
[OGL LOG] matrix is not yet sorted, sorting host matrix
[OGL LOG] sort_host_mtx_sparsity_pattern : 2 ms
[OGL LOG] sort_host_mtx : 1 ms
[OGL LOG] init_preconditioner : 0 ms
[OGL LOG] solve : 75 ms
noneompGKOBiCGStab:  Solving for p, Initial residual = 1, Final residual = 9.60178e-07, No Iterations 174
time step continuity errors : sum local = 1.22914e-07, global = 5.71406e-20, cumulative = 5.71406e-20
[OGL LOG] init_preconditioner : 0 ms
[OGL LOG] solve : 75 ms
noneompGKOBiCGStab:  Solving for p, Initial residual = 0.644084, Final residual = 4.86366e-07, No Iterations 174
time step continuity errors : sum local = 4.88776e-07, global = -5.28073e-20, cumulative = 4.33326e-21
ExecutionTime = 3.22 s  ClockTime = 1 s

Time = 0.008

Courant Number mean: 0.0870974 max: 0.619854
[OGL LOG] init_host_sparsity_pattern : 4 ms
[OGL LOG] matrix not stored update host matrix
[OGL LOG] update_host_mtx : 1 ms
[OGL LOG] matrix is not yet sorted, sorting host matrix
[OGL LOG] sort_host_mtx_sparsity_pattern : 2 ms
[OGL LOG] sort_host_mtx : 1 ms
[OGL LOG] init_preconditioner : 0 ms
[OGL LOG] solve : 11 ms
noneompGKOBiCGStab:  Solving for Ux, Initial residual = 0.238941, Final residual = 6.81764e-07, No Iterations 25
[OGL LOG] init_host_sparsity_pattern : 4 ms
[OGL LOG] matrix not stored update host matrix
[OGL LOG] update_host_mtx : 2 ms
[OGL LOG] matrix is not yet sorted, sorting host matrix
[OGL LOG] sort_host_mtx_sparsity_pattern : 2 ms
[OGL LOG] sort_host_mtx : 1 ms
[OGL LOG] init_preconditioner : 0 ms
[OGL LOG] solve : 12 ms
noneompGKOBiCGStab:  Solving for Uy, Initial residual = 0.615475, Final residual = 9.88648e-07, No Iterations 27
[OGL LOG] init_host_sparsity_pattern : 4 ms
[OGL LOG] matrix not stored update host matrix
[OGL LOG] update_host_mtx : 2 ms
[OGL LOG] matrix is not yet sorted, sorting host matrix
[OGL LOG] sort_host_mtx_sparsity_pattern : 2 ms
[OGL LOG] sort_host_mtx : 1 ms
[OGL LOG] init_preconditioner : 0 ms
[OGL LOG] solve : 10 ms
noneompGKOBiCGStab:  Solving for Uz, Initial residual = 0.391979, Final residual = 9.256e-07, No Iterations 24
[OGL LOG] init_preconditioner : 0 ms
[OGL LOG] solve : 77 ms
noneompGKOBiCGStab:  Solving for p, Initial residual = 0.527344, Final residual = 1.22269e-07, No Iterations 167
time step continuity errors : sum local = 9.78366e-07, global = 5.898e-20, cumulative = 6.33133e-20
[OGL LOG] init_preconditioner : 0 ms
[OGL LOG] solve : 84 ms
noneompGKOBiCGStab:  Solving for p, Initial residual = 0.437569, Final residual = 9.92223e-07, No Iterations 169
time step continuity errors : sum local = 5.07186e-08, global = -6.27396e-20, cumulative = 5.73676e-22
ExecutionTime = 6.71 s  ClockTime = 1 s

Time = 0.012

Courant Number mean: 0.127403 max: 0.798793
[OGL LOG] init_host_sparsity_pattern : 4 ms
[OGL LOG] matrix not stored update host matrix
[OGL LOG] update_host_mtx : 1 ms
[OGL LOG] matrix is not yet sorted, sorting host matrix
[OGL LOG] sort_host_mtx_sparsity_pattern : 2 ms
[OGL LOG] sort_host_mtx : 1 ms
[OGL LOG] init_preconditioner : 0 ms
[OGL LOG] solve : 12 ms
noneompGKOBiCGStab:  Solving for Ux, Initial residual = 0.0920705, Final residual = 9.87832e-07, No Iterations 22
[OGL LOG] init_host_sparsity_pattern : 5 ms
[OGL LOG] matrix not stored update host matrix
[OGL LOG] update_host_mtx : 2 ms
[OGL LOG] matrix is not yet sorted, sorting host matrix
[OGL LOG] sort_host_mtx_sparsity_pattern : 2 ms
[OGL LOG] sort_host_mtx : 1 ms
[OGL LOG] init_preconditioner : 0 ms
[OGL LOG] solve : 12 ms
noneompGKOBiCGStab:  Solving for Uy, Initial residual = 0.145824, Final residual = 9.80138e-07, No Iterations 22
[OGL LOG] init_host_sparsity_pattern : 5 ms
[OGL LOG] matrix not stored update host matrix
[OGL LOG] update_host_mtx : 2 ms
[OGL LOG] matrix is not yet sorted, sorting host matrix
[OGL LOG] sort_host_mtx_sparsity_pattern : 2 ms
[OGL LOG] sort_host_mtx : 1 ms
[OGL LOG] init_preconditioner : 0 ms
[OGL LOG] solve : 13 ms
noneompGKOBiCGStab:  Solving for Uz, Initial residual = 0.339932, Final residual = 6.99659e-07, No Iterations 24
[OGL LOG] init_preconditioner : 0 ms
[OGL LOG] solve : 91 ms
noneompGKOBiCGStab:  Solving for p, Initial residual = 0.305745, Final residual = 8.63814e-07, No Iterations 173
time step continuity errors : sum local = 1.98101e-08, global = 1.02641e-19, cumulative = 1.03215e-19
[OGL LOG] init_preconditioner : 0 ms
[OGL LOG] solve : 89 ms
noneompGKOBiCGStab:  Solving for p, Initial residual = 0.265157, Final residual = 7.78229e-07, No Iterations 169
time step continuity errors : sum local = 3.97308e-08, global = 2.20342e-19, cumulative = 3.23557e-19
ExecutionTime = 10.57 s  ClockTime = 1 s

Time = 0.016

Courant Number mean: 0.145254 max: 0.82722
[OGL LOG] init_host_sparsity_pattern : 4 ms
[OGL LOG] matrix not stored update host matrix
[OGL LOG] update_host_mtx : 1 ms
[OGL LOG] matrix is not yet sorted, sorting host matrix
[OGL LOG] sort_host_mtx_sparsity_pattern : 2 ms
[OGL LOG] sort_host_mtx : 1 ms
[OGL LOG] init_preconditioner : 0 ms
[OGL LOG] solve : 10 ms
noneompGKOBiCGStab:  Solving for Ux, Initial residual = 0.0235157, Final residual = 9.62072e-07, No Iterations 19
[OGL LOG] init_host_sparsity_pattern : 5 ms
[OGL LOG] matrix not stored update host matrix
[OGL LOG] update_host_mtx : 2 ms
[OGL LOG] matrix is not yet sorted, sorting host matrix
[OGL LOG] sort_host_mtx_sparsity_pattern : 2 ms
[OGL LOG] sort_host_mtx : 1 ms
[OGL LOG] init_preconditioner : 0 ms
[OGL LOG] solve : 12 ms
noneompGKOBiCGStab:  Solving for Uy, Initial residual = 0.0608519, Final residual = 8.93722e-07, No Iterations 22
[OGL LOG] init_host_sparsity_pattern : 5 ms
[OGL LOG] matrix not stored update host matrix
[OGL LOG] update_host_mtx : 2 ms
[OGL LOG] matrix is not yet sorted, sorting host matrix
[OGL LOG] sort_host_mtx_sparsity_pattern : 2 ms
[OGL LOG] sort_host_mtx : 1 ms
[OGL LOG] init_preconditioner : 0 ms
[OGL LOG] solve : 12 ms
noneompGKOBiCGStab:  Solving for Uz, Initial residual = 0.185401, Final residual = 8.56056e-07, No Iterations 23
[OGL LOG] init_preconditioner : 0 ms
[OGL LOG] solve : 78 ms
noneompGKOBiCGStab:  Solving for p, Initial residual = 0.239477, Final residual = 9.69624e-07, No Iterations 168
time step continuity errors : sum local = 2.66268e-07, global = 8.71793e-20, cumulative = 4.10736e-19
[OGL LOG] init_preconditioner : 0 ms
[OGL LOG] solve : 79 ms
noneompGKOBiCGStab:  Solving for p, Initial residual = 0.222287, Final residual = 9.21387e-07, No Iterations 169
time step continuity errors : sum local = 2.01203e-08, global = 7.45235e-20, cumulative = 4.8526e-19
ExecutionTime = 14.03 s  ClockTime = 2 s

Time = 0.02

Courant Number mean: 0.157058 max: 0.845845
[OGL LOG] init_host_sparsity_pattern : 4 ms
[OGL LOG] matrix not stored update host matrix
[OGL LOG] update_host_mtx : 2 ms
[OGL LOG] matrix is not yet sorted, sorting host matrix
[OGL LOG] sort_host_mtx_sparsity_pattern : 2 ms
[OGL LOG] sort_host_mtx : 1 ms
[OGL LOG] init_preconditioner : 0 ms
[OGL LOG] solve : 8 ms
noneompGKOBiCGStab:  Solving for Ux, Initial residual = 0.01502, Final residual = 9.64397e-07, No Iterations 18
[OGL LOG] init_host_sparsity_pattern : 4 ms
[OGL LOG] matrix not stored update host matrix
[OGL LOG] update_host_mtx : 2 ms
[OGL LOG] matrix is not yet sorted, sorting host matrix
[OGL LOG] sort_host_mtx_sparsity_pattern : 2 ms
[OGL LOG] sort_host_mtx : 1 ms
[OGL LOG] init_preconditioner : 0 ms
[OGL LOG] solve : 9 ms
noneompGKOBiCGStab:  Solving for Uy, Initial residual = 0.0280946, Final residual = 9.94617e-07, No Iterations 20
[OGL LOG] init_host_sparsity_pattern : 4 ms
[OGL LOG] matrix not stored update host matrix
[OGL LOG] update_host_mtx : 2 ms
[OGL LOG] matrix is not yet sorted, sorting host matrix
[OGL LOG] sort_host_mtx_sparsity_pattern : 2 ms
[OGL LOG] sort_host_mtx : 1 ms
[OGL LOG] init_preconditioner : 0 ms
[OGL LOG] solve : 10 ms
noneompGKOBiCGStab:  Solving for Uz, Initial residual = 0.0757985, Final residual = 9.69324e-07, No Iterations 21
[OGL LOG] init_preconditioner : 0 ms
[OGL LOG] solve : 75 ms
noneompGKOBiCGStab:  Solving for p, Initial residual = 0.234826, Final residual = 8.14596e-07, No Iterations 159
time step continuity errors : sum local = 3.83339e-08, global = 9.29573e-20, cumulative = 5.78217e-19
[OGL LOG] init_preconditioner : 0 ms
[OGL LOG] solve : 75 ms
noneompGKOBiCGStab:  Solving for p, Initial residual = 0.233059, Final residual = 9.66047e-07, No Iterations 153
time step continuity errors : sum local = 8.87057e-09, global = 1.04177e-19, cumulative = 6.82394e-19
ExecutionTime = 17.31 s  ClockTime = 2 s

End

