/*---------------------------------------------------------------------------*\
  =========                 |
  \\      /  F ield         | OpenFOAM: The Open Source CFD Toolbox
   \\    /   O peration     | Website:  https://openfoam.org
    \\  /    A nd           | Version:  8
     \\/     M anipulation  |
\*---------------------------------------------------------------------------*/
Build  : 8-13d66902f78c
Exec   : icoFoam
Date   : Jul 14 2021
Time   : 02:19:21
Host   : "uc2n525.localdomain"
PID    : 3778642
I/O    : uncollated
Case   : /pfs/data5/home/kit/scc/nq7776/code/OGL_DATA/lidDrivenCavity3D/v0.1-136-g40fef35/f584ccac99/IntelXeonGold6230CPU@2.10GHz/Test_2021-07-14-02:08:08/100/p-U-BiCGStab-OF-none-reference/lidDrivenCavity3D
nProcs : 1
sigFpe : Enabling floating point exception trapping (FOAM_SIGFPE).
fileModificationChecking : Monitoring run-time modified files using timeStampMaster (fileModificationSkew 10)
allowSystemOperations : Allowing user-supplied system call operations

// * * * * * * * * * * * * * * * * * * * * * * * * * * * * * * * * * * * * * //
Create time

Create mesh for time = 0

Reading transportProperties

Reading field p

Reading field U

Reading/calculating face flux field phi


Starting time loop

Time = 0.001

Courant Number mean: 0 max: 0
nonePBiCGStab:  Solving for Ux, Initial residual = 1, Final residual = 6.69674e-07, No Iterations 58
nonePBiCGStab:  Solving for Uy, Initial residual = 0, Final residual = 0, No Iterations 0
nonePBiCGStab:  Solving for Uz, Initial residual = 0, Final residual = 0, No Iterations 0
nonePBiCGStab:  Solving for p, Initial residual = 1, Final residual = 2.32265e-07, No Iterations 794
time step continuity errors : sum local = 2.63365e-10, global = 5.33721e-21, cumulative = 5.33721e-21
nonePBiCGStab:  Solving for p, Initial residual = 0.783585, Final residual = 1.79542e-07, No Iterations 718
time step continuity errors : sum local = 2.69153e-10, global = 8.69406e-21, cumulative = 1.40313e-20
ExecutionTime = 47.19 s  ClockTime = 47 s

Time = 0.002

Courant Number mean: 0.0571436 max: 0.804774
nonePBiCGStab:  Solving for Ux, Initial residual = 0.140431, Final residual = 9.68473e-07, No Iterations 48
nonePBiCGStab:  Solving for Uy, Initial residual = 0.429361, Final residual = 7.81119e-07, No Iterations 52
nonePBiCGStab:  Solving for Uz, Initial residual = 0.990578, Final residual = 7.55353e-07, No Iterations 55
nonePBiCGStab:  Solving for p, Initial residual = 0.798486, Final residual = 8.23531e-07, No Iterations 783
time step continuity errors : sum local = 1.67475e-09, global = -9.34204e-21, cumulative = 4.68923e-21
nonePBiCGStab:  Solving for p, Initial residual = 0.738457, Final residual = 9.33557e-07, No Iterations 671
time step continuity errors : sum local = 1.93956e-09, global = 1.25876e-21, cumulative = 5.94798e-21
ExecutionTime = 91.92 s  ClockTime = 92 s

Time = 0.003

Courant Number mean: 0.0867389 max: 0.94479
nonePBiCGStab:  Solving for Ux, Initial residual = 0.065882, Final residual = 7.24144e-07, No Iterations 48
nonePBiCGStab:  Solving for Uy, Initial residual = 0.228222, Final residual = 9.31686e-07, No Iterations 51
nonePBiCGStab:  Solving for Uz, Initial residual = 0.809483, Final residual = 5.99413e-07, No Iterations 57
nonePBiCGStab:  Solving for p, Initial residual = 0.831856, Final residual = 3.0156e-07, No Iterations 745
time step continuity errors : sum local = 5.6703e-10, global = -5.31785e-21, cumulative = 6.30127e-22
nonePBiCGStab:  Solving for p, Initial residual = 0.802197, Final residual = 4.36078e-07, No Iterations 721
time step continuity errors : sum local = 8.16405e-10, global = 5.76456e-21, cumulative = 6.39468e-21
ExecutionTime = 137.09 s  ClockTime = 137 s

Time = 0.004

Courant Number mean: 0.0995268 max: 0.926339
nonePBiCGStab:  Solving for Ux, Initial residual = 0.0395639, Final residual = 9.97279e-07, No Iterations 40
nonePBiCGStab:  Solving for Uy, Initial residual = 0.171316, Final residual = 7.47205e-07, No Iterations 49
nonePBiCGStab:  Solving for Uz, Initial residual = 0.629634, Final residual = 8.5247e-07, No Iterations 55
nonePBiCGStab:  Solving for p, Initial residual = 0.747322, Final residual = 6.37974e-07, No Iterations 864
time step continuity errors : sum local = 1.12365e-09, global = -1.11683e-20, cumulative = -4.77366e-21
nonePBiCGStab:  Solving for p, Initial residual = 0.681785, Final residual = 9.83697e-07, No Iterations 727
time step continuity errors : sum local = 1.7659e-09, global = -2.24323e-21, cumulative = -7.01689e-21
ExecutionTime = 185.03 s  ClockTime = 185 s

Time = 0.005

Courant Number mean: 0.112162 max: 0.945919
nonePBiCGStab:  Solving for Ux, Initial residual = 0.0308336, Final residual = 8.79491e-07, No Iterations 44
nonePBiCGStab:  Solving for Uy, Initial residual = 0.0979195, Final residual = 9.88933e-07, No Iterations 45
nonePBiCGStab:  Solving for Uz, Initial residual = 0.595366, Final residual = 9.41242e-07, No Iterations 50
nonePBiCGStab:  Solving for p, Initial residual = 0.75659, Final residual = 8.80989e-07, No Iterations 711
time step continuity errors : sum local = 1.30921e-09, global = -1.41417e-21, cumulative = -8.43106e-21
nonePBiCGStab:  Solving for p, Initial residual = 0.708034, Final residual = 7.74384e-07, No Iterations 739
time step continuity errors : sum local = 1.13203e-09, global = 2.35149e-20, cumulative = 1.50838e-20
ExecutionTime = 229.15 s  ClockTime = 229 s

End

