/*---------------------------------------------------------------------------*\
  =========                 |
  \\      /  F ield         | OpenFOAM: The Open Source CFD Toolbox
   \\    /   O peration     | Website:  https://openfoam.org
    \\  /    A nd           | Version:  8
     \\/     M anipulation  |
\*---------------------------------------------------------------------------*/
Build  : 8-13d66902f78c
Exec   : icoFoam
Date   : Jul 12 2021
Time   : 14:01:30
Host   : "uc2n448.localdomain"
PID    : 415098
I/O    : uncollated
Case   : /pfs/data5/home/kit/scc/nq7776/code/OGL_DATA/lidDrivenCavity3D/v0.1-136-g40fef35/f584ccac99/IntelXeonGold6230CPU@2.10GHz/Test_2021-07-12-13:00:18/75/p-U-CG-GKO-BJ-omp/lidDrivenCavity3D
nProcs : 1
sigFpe : Enabling floating point exception trapping (FOAM_SIGFPE).
fileModificationChecking : Monitoring run-time modified files using timeStampMaster (fileModificationSkew 10)
allowSystemOperations : Allowing user-supplied system call operations

// * * * * * * * * * * * * * * * * * * * * * * * * * * * * * * * * * * * * * //
Create time

Create mesh for time = 0

Reading transportProperties

Reading field p

Reading field U

Reading/calculating face flux field phi


Starting time loop

Time = 0.00133333

Courant Number mean: 0 max: 0
[OGL LOG] init_host_sparsity_pattern : 121 ms
[OGL LOG] matrix not stored update host matrix
[OGL LOG] update_host_mtx : 61 ms
[OGL LOG] matrix is not yet sorted, compute sorting idxs
[OGL LOG] compute_sort : 3650 ms
[OGL LOG] matrix is not yet sorted, sorting host matrix
[OGL LOG] sort_host_mtx_sparsity_pattern : 78 ms
[OGL LOG] sort_host_mtx : 53 ms
[OGL LOG] init_preconditioner : 35 ms
[OGL LOG] solve : 1030 ms
BJompGKOBiCGStab:  Solving for Ux, Initial residual = 1, Final residual = 8.57454e-07, No Iterations 40
[OGL LOG] init_host_sparsity_pattern : 125 ms
[OGL LOG] matrix not stored update host matrix
[OGL LOG] update_host_mtx : 76 ms
[OGL LOG] matrix is not yet sorted, sorting host matrix
[OGL LOG] sort_host_mtx_sparsity_pattern : 80 ms
[OGL LOG] sort_host_mtx : 43 ms
[OGL LOG] init_preconditioner : 37 ms
[OGL LOG] solve : 21 ms
BJompGKOBiCGStab:  Solving for Uy, Initial residual = 0, Final residual = 0, No Iterations 0
[OGL LOG] init_host_sparsity_pattern : 111 ms
[OGL LOG] matrix not stored update host matrix
[OGL LOG] update_host_mtx : 53 ms
[OGL LOG] matrix is not yet sorted, sorting host matrix
[OGL LOG] sort_host_mtx_sparsity_pattern : 76 ms
[OGL LOG] sort_host_mtx : 48 ms
[OGL LOG] init_preconditioner : 37 ms
[OGL LOG] solve : 21 ms
BJompGKOBiCGStab:  Solving for Uz, Initial residual = 0, Final residual = 0, No Iterations 0
[OGL LOG] init_host_sparsity_pattern : 112 ms
[OGL LOG] matrix not stored update host matrix
[OGL LOG] update_host_mtx : 62 ms
[OGL LOG] matrix is not yet sorted, sorting host matrix
[OGL LOG] sort_host_mtx_sparsity_pattern : 80 ms
[OGL LOG] sort_host_mtx : 43 ms
[OGL LOG] init_preconditioner : 35 ms
 CG create  precond 
[OGL LOG] solve : 7156 ms
BJompGKOCG:  Solving for p, Initial residual = 1, Final residual = 9.42284e-07, No Iterations 578
time step continuity errors : sum local = 8.60698e-10, global = -8.69e-22, cumulative = -8.69e-22
[OGL LOG] init_preconditioner : 0 ms
 CG create  precond 
[OGL LOG] solve : 7071 ms
BJompGKOCG:  Solving for p, Initial residual = 0.759329, Final residual = 9.81626e-07, No Iterations 571
time step continuity errors : sum local = 1.14781e-09, global = 2.1662e-21, cumulative = 1.2972e-21
ExecutionTime = 68.95 s  ClockTime = 22 s

Time = 0.00266667

Courant Number mean: 0.0631768 max: 0.775367
[OGL LOG] init_host_sparsity_pattern : 113 ms
[OGL LOG] matrix not stored update host matrix
[OGL LOG] update_host_mtx : 64 ms
[OGL LOG] matrix is not yet sorted, sorting host matrix
[OGL LOG] sort_host_mtx_sparsity_pattern : 95 ms
[OGL LOG] sort_host_mtx : 43 ms
[OGL LOG] init_preconditioner : 0 ms
[OGL LOG] solve : 809 ms
BJompGKOBiCGStab:  Solving for Ux, Initial residual = 0.183034, Final residual = 7.80716e-07, No Iterations 28
[OGL LOG] init_host_sparsity_pattern : 124 ms
[OGL LOG] matrix not stored update host matrix
[OGL LOG] update_host_mtx : 60 ms
[OGL LOG] matrix is not yet sorted, sorting host matrix
[OGL LOG] sort_host_mtx_sparsity_pattern : 76 ms
[OGL LOG] sort_host_mtx : 43 ms
[OGL LOG] init_preconditioner : 0 ms
[OGL LOG] solve : 1028 ms
BJompGKOBiCGStab:  Solving for Uy, Initial residual = 0.619629, Final residual = 9.4185e-07, No Iterations 39
[OGL LOG] init_host_sparsity_pattern : 120 ms
[OGL LOG] matrix not stored update host matrix
[OGL LOG] update_host_mtx : 57 ms
[OGL LOG] matrix is not yet sorted, sorting host matrix
[OGL LOG] sort_host_mtx_sparsity_pattern : 75 ms
[OGL LOG] sort_host_mtx : 43 ms
[OGL LOG] init_preconditioner : 0 ms
[OGL LOG] solve : 916 ms
BJompGKOBiCGStab:  Solving for Uz, Initial residual = 0.604718, Final residual = 8.02962e-07, No Iterations 37
[OGL LOG] init_preconditioner : 0 ms
 CG create  precond 
[OGL LOG] solve : 7230 ms
BJompGKOCG:  Solving for p, Initial residual = 0.749131, Final residual = 9.60224e-07, No Iterations 573
time step continuity errors : sum local = 1.36719e-09, global = -1.5342e-20, cumulative = -1.40448e-20
[OGL LOG] init_preconditioner : 0 ms
 CG create  precond 
[OGL LOG] solve : 7150 ms
BJompGKOCG:  Solving for p, Initial residual = 0.683908, Final residual = 9.38557e-07, No Iterations 572
time step continuity errors : sum local = 1.36578e-09, global = -2.4024e-21, cumulative = -1.64472e-20
ExecutionTime = 138.71 s  ClockTime = 41 s

Time = 0.004

Courant Number mean: 0.095146 max: 0.917097
[OGL LOG] init_host_sparsity_pattern : 113 ms
[OGL LOG] matrix not stored update host matrix
[OGL LOG] update_host_mtx : 57 ms
[OGL LOG] matrix is not yet sorted, sorting host matrix
[OGL LOG] sort_host_mtx_sparsity_pattern : 80 ms
[OGL LOG] sort_host_mtx : 43 ms
[OGL LOG] init_preconditioner : 0 ms
[OGL LOG] solve : 626 ms
BJompGKOBiCGStab:  Solving for Ux, Initial residual = 0.101944, Final residual = 8.39999e-07, No Iterations 25
[OGL LOG] init_host_sparsity_pattern : 112 ms
[OGL LOG] matrix not stored update host matrix
[OGL LOG] update_host_mtx : 53 ms
[OGL LOG] matrix is not yet sorted, sorting host matrix
[OGL LOG] sort_host_mtx_sparsity_pattern : 72 ms
[OGL LOG] sort_host_mtx : 43 ms
[OGL LOG] init_preconditioner : 0 ms
[OGL LOG] solve : 900 ms
BJompGKOBiCGStab:  Solving for Uy, Initial residual = 0.335433, Final residual = 9.54637e-07, No Iterations 37
[OGL LOG] init_host_sparsity_pattern : 112 ms
[OGL LOG] matrix not stored update host matrix
[OGL LOG] update_host_mtx : 53 ms
[OGL LOG] matrix is not yet sorted, sorting host matrix
[OGL LOG] sort_host_mtx_sparsity_pattern : 73 ms
[OGL LOG] sort_host_mtx : 44 ms
[OGL LOG] init_preconditioner : 0 ms
[OGL LOG] solve : 994 ms
BJompGKOBiCGStab:  Solving for Uz, Initial residual = 0.920729, Final residual = 4.22465e-07, No Iterations 40
[OGL LOG] init_preconditioner : 0 ms
 CG create  precond 
[OGL LOG] solve : 7702 ms
BJompGKOCG:  Solving for p, Initial residual = 0.754752, Final residual = 9.84808e-07, No Iterations 617
time step continuity errors : sum local = 1.15768e-09, global = 1.6202e-20, cumulative = -2.45164e-22
[OGL LOG] init_preconditioner : 0 ms
 CG create  precond 
[OGL LOG] solve : 7661 ms
BJompGKOCG:  Solving for p, Initial residual = 0.717018, Final residual = 9.73764e-07, No Iterations 617
time step continuity errors : sum local = 1.11078e-09, global = -6.01811e-21, cumulative = -6.26327e-21
ExecutionTime = 211.5 s  ClockTime = 60 s

Time = 0.00533333

Courant Number mean: 0.109256 max: 0.913435
[OGL LOG] init_host_sparsity_pattern : 112 ms
[OGL LOG] matrix not stored update host matrix
[OGL LOG] update_host_mtx : 57 ms
[OGL LOG] matrix is not yet sorted, sorting host matrix
[OGL LOG] sort_host_mtx_sparsity_pattern : 87 ms
[OGL LOG] sort_host_mtx : 43 ms
[OGL LOG] init_preconditioner : 0 ms
[OGL LOG] solve : 682 ms
BJompGKOBiCGStab:  Solving for Ux, Initial residual = 0.0446964, Final residual = 6.59444e-07, No Iterations 27
[OGL LOG] init_host_sparsity_pattern : 112 ms
[OGL LOG] matrix not stored update host matrix
[OGL LOG] update_host_mtx : 53 ms
[OGL LOG] matrix is not yet sorted, sorting host matrix
[OGL LOG] sort_host_mtx_sparsity_pattern : 72 ms
[OGL LOG] sort_host_mtx : 43 ms
[OGL LOG] init_preconditioner : 0 ms
[OGL LOG] solve : 874 ms
BJompGKOBiCGStab:  Solving for Uy, Initial residual = 0.197564, Final residual = 8.07293e-07, No Iterations 35
[OGL LOG] init_host_sparsity_pattern : 111 ms
[OGL LOG] matrix not stored update host matrix
[OGL LOG] update_host_mtx : 53 ms
[OGL LOG] matrix is not yet sorted, sorting host matrix
[OGL LOG] sort_host_mtx_sparsity_pattern : 72 ms
[OGL LOG] sort_host_mtx : 43 ms
[OGL LOG] init_preconditioner : 0 ms
[OGL LOG] solve : 841 ms
BJompGKOBiCGStab:  Solving for Uz, Initial residual = 0.732482, Final residual = 9.03101e-07, No Iterations 34
[OGL LOG] init_preconditioner : 0 ms
 CG create  precond 
[OGL LOG] solve : 7719 ms
BJompGKOCG:  Solving for p, Initial residual = 0.617354, Final residual = 9.60682e-07, No Iterations 622
time step continuity errors : sum local = 1.00089e-09, global = 7.92885e-21, cumulative = 1.66557e-21
[OGL LOG] init_preconditioner : 0 ms
 CG create  precond 
[OGL LOG] solve : 7694 ms
BJompGKOCG:  Solving for p, Initial residual = 0.554749, Final residual = 9.7542e-07, No Iterations 618
time step continuity errors : sum local = 1.03079e-09, global = 2.59677e-21, cumulative = 4.26234e-21
ExecutionTime = 283.97 s  ClockTime = 79 s

Time = 0.00666667

Courant Number mean: 0.122084 max: 0.929082
[OGL LOG] init_host_sparsity_pattern : 112 ms
[OGL LOG] matrix not stored update host matrix
[OGL LOG] update_host_mtx : 54 ms
[OGL LOG] matrix is not yet sorted, sorting host matrix
[OGL LOG] sort_host_mtx_sparsity_pattern : 79 ms
[OGL LOG] sort_host_mtx : 43 ms
[OGL LOG] init_preconditioner : 0 ms
[OGL LOG] solve : 649 ms
BJompGKOBiCGStab:  Solving for Ux, Initial residual = 0.0319073, Final residual = 4.06152e-07, No Iterations 26
[OGL LOG] init_host_sparsity_pattern : 112 ms
[OGL LOG] matrix not stored update host matrix
[OGL LOG] update_host_mtx : 53 ms
[OGL LOG] matrix is not yet sorted, sorting host matrix
[OGL LOG] sort_host_mtx_sparsity_pattern : 72 ms
[OGL LOG] sort_host_mtx : 43 ms
[OGL LOG] init_preconditioner : 0 ms
[OGL LOG] solve : 904 ms
BJompGKOBiCGStab:  Solving for Uy, Initial residual = 0.0804623, Final residual = 7.12568e-07, No Iterations 36
[OGL LOG] init_host_sparsity_pattern : 112 ms
[OGL LOG] matrix not stored update host matrix
[OGL LOG] update_host_mtx : 53 ms
[OGL LOG] matrix is not yet sorted, sorting host matrix
[OGL LOG] sort_host_mtx_sparsity_pattern : 72 ms
[OGL LOG] sort_host_mtx : 43 ms
[OGL LOG] init_preconditioner : 0 ms
[OGL LOG] solve : 954 ms
BJompGKOBiCGStab:  Solving for Uz, Initial residual = 0.513468, Final residual = 9.13619e-07, No Iterations 38
[OGL LOG] init_preconditioner : 0 ms
 CG create  precond 
[OGL LOG] solve : 7439 ms
BJompGKOCG:  Solving for p, Initial residual = 0.591993, Final residual = 9.71829e-07, No Iterations 601
time step continuity errors : sum local = 8.13373e-10, global = -1.95938e-21, cumulative = 2.30297e-21
[OGL LOG] init_preconditioner : 0 ms
 CG create  precond 
[OGL LOG] solve : 7438 ms
BJompGKOCG:  Solving for p, Initial residual = 0.543119, Final residual = 9.51375e-07, No Iterations 600
time step continuity errors : sum local = 7.86389e-10, global = 7.47179e-21, cumulative = 9.77475e-21
ExecutionTime = 354.7 s  ClockTime = 98 s

End

