/*---------------------------------------------------------------------------*\
  =========                 |
  \\      /  F ield         | OpenFOAM: The Open Source CFD Toolbox
   \\    /   O peration     | Website:  https://openfoam.org
    \\  /    A nd           | Version:  8
     \\/     M anipulation  |
\*---------------------------------------------------------------------------*/
Build  : 8-13d66902f78c
Exec   : icoFoam
Date   : Jul 13 2021
Time   : 22:18:18
Host   : "uc2n525.localdomain"
PID    : 3750296
I/O    : uncollated
Case   : /pfs/data5/home/kit/scc/nq7776/code/OGL_DATA/lidDrivenCavity3D/v0.1-136-g40fef35/f584ccac99/IntelXeonGold6230CPU@2.10GHz/Test_2021-07-13-22:16:26/25/p-BiCGStab-GKO-none-omp/lidDrivenCavity3D
nProcs : 1
sigFpe : Enabling floating point exception trapping (FOAM_SIGFPE).
fileModificationChecking : Monitoring run-time modified files using timeStampMaster (fileModificationSkew 10)
allowSystemOperations : Allowing user-supplied system call operations

// * * * * * * * * * * * * * * * * * * * * * * * * * * * * * * * * * * * * * //
Create time

Create mesh for time = 0

Reading transportProperties

Reading field p

Reading field U

Reading/calculating face flux field phi


Starting time loop

Time = 0.004

Courant Number mean: 0 max: 0
nonePBiCGStab:  Solving for Ux, Initial residual = 1, Final residual = 0.0337517, No Iterations 5
nonePBiCGStab:  Solving for Uy, Initial residual = 0, Final residual = 0, No Iterations 0
nonePBiCGStab:  Solving for Uz, Initial residual = 0, Final residual = 0, No Iterations 0
[OGL LOG] init_host_sparsity_pattern : 4 ms
[OGL LOG] matrix not stored update host matrix
[OGL LOG] update_host_mtx : 2 ms
[OGL LOG] matrix is not yet sorted, compute sorting idxs
[OGL LOG] compute_sort : 98 ms
[OGL LOG] matrix is not yet sorted, sorting host matrix
[OGL LOG] sort_host_mtx_sparsity_pattern : 2 ms
[OGL LOG] sort_host_mtx : 1 ms
[OGL LOG] init_preconditioner : 0 ms
[OGL LOG] solve : 111 ms
noneompGKOBiCGStab:  Solving for p, Initial residual = 1, Final residual = 8.85604e-07, No Iterations 176
time step continuity errors : sum local = 1.17245e-08, global = 2.50843e-21, cumulative = 2.50843e-21
[OGL LOG] init_preconditioner : 0 ms
[OGL LOG] solve : 108 ms
noneompGKOBiCGStab:  Solving for p, Initial residual = 0.622288, Final residual = 8.78454e-07, No Iterations 169
time step continuity errors : sum local = 5.42202e-07, global = 7.45881e-20, cumulative = 7.70965e-20
ExecutionTime = 0.67 s  ClockTime = 0 s

Time = 0.008

Courant Number mean: 0.0842282 max: 0.621061
nonePBiCGStab:  Solving for Ux, Initial residual = 0.149591, Final residual = 0.00942706, No Iterations 5
nonePBiCGStab:  Solving for Uy, Initial residual = 0.281196, Final residual = 0.0142223, No Iterations 5
nonePBiCGStab:  Solving for Uz, Initial residual = 0.932924, Final residual = 0.0511357, No Iterations 5
[OGL LOG] init_preconditioner : 0 ms
[OGL LOG] solve : 110 ms
noneompGKOBiCGStab:  Solving for p, Initial residual = 0.518052, Final residual = 7.46625e-07, No Iterations 174
time step continuity errors : sum local = 3.06801e-07, global = 4.56912e-20, cumulative = 1.22788e-19
[OGL LOG] init_preconditioner : 0 ms
[OGL LOG] solve : 128 ms
noneompGKOBiCGStab:  Solving for p, Initial residual = 0.415887, Final residual = 7.87971e-07, No Iterations 170
time step continuity errors : sum local = 4.36621e-08, global = -1.24138e-19, cumulative = -1.34986e-21
ExecutionTime = 1.18 s  ClockTime = 0 s

Time = 0.012

Courant Number mean: 0.124051 max: 0.792234
nonePBiCGStab:  Solving for Ux, Initial residual = 0.0425005, Final residual = 0.00204641, No Iterations 5
nonePBiCGStab:  Solving for Uy, Initial residual = 0.0761496, Final residual = 0.00263882, No Iterations 5
nonePBiCGStab:  Solving for Uz, Initial residual = 0.142797, Final residual = 0.0067104, No Iterations 5
[OGL LOG] init_preconditioner : 0 ms
[OGL LOG] solve : 128 ms
noneompGKOBiCGStab:  Solving for p, Initial residual = 0.2792, Final residual = 8.62027e-07, No Iterations 169
time step continuity errors : sum local = 6.1182e-08, global = 1.22489e-19, cumulative = 1.21139e-19
[OGL LOG] init_preconditioner : 0 ms
[OGL LOG] solve : 130 ms
noneompGKOBiCGStab:  Solving for p, Initial residual = 0.22406, Final residual = 9.17477e-07, No Iterations 170
time step continuity errors : sum local = 2.94119e-08, global = -5.61431e-20, cumulative = 6.49957e-20
ExecutionTime = 1.71 s  ClockTime = 1 s

Time = 0.016

Courant Number mean: 0.142529 max: 0.824384
nonePBiCGStab:  Solving for Ux, Initial residual = 0.0219012, Final residual = 0.000752756, No Iterations 5
nonePBiCGStab:  Solving for Uy, Initial residual = 0.0474751, Final residual = 0.000975059, No Iterations 5
nonePBiCGStab:  Solving for Uz, Initial residual = 0.0926257, Final residual = 0.00329713, No Iterations 5
[OGL LOG] init_preconditioner : 0 ms
[OGL LOG] solve : 126 ms
noneompGKOBiCGStab:  Solving for p, Initial residual = 0.138551, Final residual = 9.68543e-07, No Iterations 164
time step continuity errors : sum local = 2.40797e-08, global = 5.97119e-20, cumulative = 1.24708e-19
[OGL LOG] init_preconditioner : 0 ms
[OGL LOG] solve : 122 ms
noneompGKOBiCGStab:  Solving for p, Initial residual = 0.10656, Final residual = 9.76356e-07, No Iterations 160
time step continuity errors : sum local = 2.12714e-08, global = -4.83477e-20, cumulative = 7.63599e-20
ExecutionTime = 2.22 s  ClockTime = 1 s

Time = 0.02

Courant Number mean: 0.154857 max: 0.843613
nonePBiCGStab:  Solving for Ux, Initial residual = 0.0136619, Final residual = 0.000405192, No Iterations 5
nonePBiCGStab:  Solving for Uy, Initial residual = 0.0288078, Final residual = 0.000728553, No Iterations 5
nonePBiCGStab:  Solving for Uz, Initial residual = 0.0552362, Final residual = 0.00175588, No Iterations 5
[OGL LOG] init_preconditioner : 0 ms
[OGL LOG] solve : 116 ms
noneompGKOBiCGStab:  Solving for p, Initial residual = 0.065417, Final residual = 7.54874e-07, No Iterations 154
time step continuity errors : sum local = 3.4728e-08, global = -6.33422e-20, cumulative = 1.30178e-20
[OGL LOG] init_preconditioner : 0 ms
[OGL LOG] solve : 114 ms
noneompGKOBiCGStab:  Solving for p, Initial residual = 0.0510776, Final residual = 6.74434e-07, No Iterations 154
time step continuity errors : sum local = 1.42848e-08, global = -4.74613e-20, cumulative = -3.44436e-20
ExecutionTime = 2.7 s  ClockTime = 1 s

End

