/*---------------------------------------------------------------------------*\
  =========                 |
  \\      /  F ield         | OpenFOAM: The Open Source CFD Toolbox
   \\    /   O peration     | Website:  https://openfoam.org
    \\  /    A nd           | Version:  8
     \\/     M anipulation  |
\*---------------------------------------------------------------------------*/
Build  : 8-13d66902f78c
Exec   : icoFoam
Date   : Jul 12 2021
Time   : 13:03:10
Host   : "uc2n400.localdomain"
PID    : 3892740
I/O    : uncollated
Case   : /pfs/data5/home/kit/scc/nq7776/code/OGL_DATA/lidDrivenCavity3D/v0.1-136-g40fef35/f584ccac99/IntelXeonGold6230CPU@2.10GHz/Test_2021-07-12-12:50:00/50/p-U-BiCGStab-GKO-none-omp/lidDrivenCavity3D
nProcs : 1
sigFpe : Enabling floating point exception trapping (FOAM_SIGFPE).
fileModificationChecking : Monitoring run-time modified files using timeStampMaster (fileModificationSkew 10)
allowSystemOperations : Allowing user-supplied system call operations

// * * * * * * * * * * * * * * * * * * * * * * * * * * * * * * * * * * * * * //
Create time

Create mesh for time = 0

Reading transportProperties

Reading field p

Reading field U

Reading/calculating face flux field phi


Starting time loop

Time = 0.002

Courant Number mean: 0 max: 0
[OGL LOG] init_host_sparsity_pattern : 35 ms
[OGL LOG] matrix not stored update host matrix
[OGL LOG] update_host_mtx : 18 ms
[OGL LOG] matrix is not yet sorted, compute sorting idxs
[OGL LOG] compute_sort : 985 ms
[OGL LOG] matrix is not yet sorted, sorting host matrix
[OGL LOG] sort_host_mtx_sparsity_pattern : 23 ms
[OGL LOG] sort_host_mtx : 15 ms
[OGL LOG] init_preconditioner : 0 ms
[OGL LOG] solve : 148 ms
noneompGKOBiCGStab:  Solving for Ux, Initial residual = 1, Final residual = 8.72813e-07, No Iterations 41
[OGL LOG] init_host_sparsity_pattern : 34 ms
[OGL LOG] matrix not stored update host matrix
[OGL LOG] update_host_mtx : 18 ms
[OGL LOG] matrix is not yet sorted, sorting host matrix
[OGL LOG] sort_host_mtx_sparsity_pattern : 23 ms
[OGL LOG] sort_host_mtx : 12 ms
[OGL LOG] init_preconditioner : 0 ms
[OGL LOG] solve : 4 ms
noneompGKOBiCGStab:  Solving for Uy, Initial residual = 0, Final residual = 0, No Iterations 0
[OGL LOG] init_host_sparsity_pattern : 33 ms
[OGL LOG] matrix not stored update host matrix
[OGL LOG] update_host_mtx : 15 ms
[OGL LOG] matrix is not yet sorted, sorting host matrix
[OGL LOG] sort_host_mtx_sparsity_pattern : 23 ms
[OGL LOG] sort_host_mtx : 12 ms
[OGL LOG] init_preconditioner : 0 ms
[OGL LOG] solve : 3 ms
noneompGKOBiCGStab:  Solving for Uz, Initial residual = 0, Final residual = 0, No Iterations 0
[OGL LOG] init_host_sparsity_pattern : 33 ms
[OGL LOG] matrix not stored update host matrix
[OGL LOG] update_host_mtx : 18 ms
[OGL LOG] matrix is not yet sorted, sorting host matrix
[OGL LOG] sort_host_mtx_sparsity_pattern : 23 ms
[OGL LOG] sort_host_mtx : 13 ms
[OGL LOG] init_preconditioner : 0 ms
[OGL LOG] solve : 1292 ms
noneompGKOBiCGStab:  Solving for p, Initial residual = 1, Final residual = 8.43708e-07, No Iterations 349
time step continuity errors : sum local = 1.672e-08, global = -3.71319e-21, cumulative = -3.71319e-21
[OGL LOG] init_preconditioner : 0 ms
[OGL LOG] solve : 1192 ms
noneompGKOBiCGStab:  Solving for p, Initial residual = 0.721583, Final residual = 8.10796e-07, No Iterations 335
time step continuity errors : sum local = 1.71588e-07, global = 2.19694e-20, cumulative = 1.82562e-20
ExecutionTime = 12.6 s  ClockTime = 5 s

Time = 0.004

Courant Number mean: 0.0720723 max: 0.726639
[OGL LOG] init_host_sparsity_pattern : 33 ms
[OGL LOG] matrix not stored update host matrix
[OGL LOG] update_host_mtx : 16 ms
[OGL LOG] matrix is not yet sorted, sorting host matrix
[OGL LOG] sort_host_mtx_sparsity_pattern : 22 ms
[OGL LOG] sort_host_mtx : 12 ms
[OGL LOG] init_preconditioner : 0 ms
[OGL LOG] solve : 137 ms
noneompGKOBiCGStab:  Solving for Ux, Initial residual = 0.203472, Final residual = 8.29266e-07, No Iterations 37
[OGL LOG] init_host_sparsity_pattern : 33 ms
[OGL LOG] matrix not stored update host matrix
[OGL LOG] update_host_mtx : 15 ms
[OGL LOG] matrix is not yet sorted, sorting host matrix
[OGL LOG] sort_host_mtx_sparsity_pattern : 21 ms
[OGL LOG] sort_host_mtx : 12 ms
[OGL LOG] init_preconditioner : 0 ms
[OGL LOG] solve : 138 ms
noneompGKOBiCGStab:  Solving for Uy, Initial residual = 0.618424, Final residual = 9.5338e-07, No Iterations 37
[OGL LOG] init_host_sparsity_pattern : 35 ms
[OGL LOG] matrix not stored update host matrix
[OGL LOG] update_host_mtx : 15 ms
[OGL LOG] matrix is not yet sorted, sorting host matrix
[OGL LOG] sort_host_mtx_sparsity_pattern : 21 ms
[OGL LOG] sort_host_mtx : 12 ms
[OGL LOG] init_preconditioner : 0 ms
[OGL LOG] solve : 155 ms
noneompGKOBiCGStab:  Solving for Uz, Initial residual = 0.536594, Final residual = 7.40177e-07, No Iterations 39
[OGL LOG] init_preconditioner : 0 ms
[OGL LOG] solve : 1203 ms
noneompGKOBiCGStab:  Solving for p, Initial residual = 0.673324, Final residual = 3.04111e-07, No Iterations 333
time step continuity errors : sum local = 3.49752e-07, global = 1.24811e-21, cumulative = 1.95044e-20
[OGL LOG] init_preconditioner : 0 ms
[OGL LOG] solve : 1244 ms
noneompGKOBiCGStab:  Solving for p, Initial residual = 0.598904, Final residual = 9.50433e-07, No Iterations 345
time step continuity errors : sum local = 1.06744e-08, global = -2.48099e-20, cumulative = -5.30552e-21
ExecutionTime = 24.56 s  ClockTime = 8 s

Time = 0.006

Courant Number mean: 0.107408 max: 0.881756
[OGL LOG] init_host_sparsity_pattern : 32 ms
[OGL LOG] matrix not stored update host matrix
[OGL LOG] update_host_mtx : 16 ms
[OGL LOG] matrix is not yet sorted, sorting host matrix
[OGL LOG] sort_host_mtx_sparsity_pattern : 22 ms
[OGL LOG] sort_host_mtx : 12 ms
[OGL LOG] init_preconditioner : 0 ms
[OGL LOG] solve : 128 ms
noneompGKOBiCGStab:  Solving for Ux, Initial residual = 0.0995921, Final residual = 9.74649e-07, No Iterations 35
[OGL LOG] init_host_sparsity_pattern : 33 ms
[OGL LOG] matrix not stored update host matrix
[OGL LOG] update_host_mtx : 15 ms
[OGL LOG] matrix is not yet sorted, sorting host matrix
[OGL LOG] sort_host_mtx_sparsity_pattern : 21 ms
[OGL LOG] sort_host_mtx : 12 ms
[OGL LOG] init_preconditioner : 0 ms
[OGL LOG] solve : 132 ms
noneompGKOBiCGStab:  Solving for Uy, Initial residual = 0.249907, Final residual = 8.02712e-07, No Iterations 36
[OGL LOG] init_host_sparsity_pattern : 33 ms
[OGL LOG] matrix not stored update host matrix
[OGL LOG] update_host_mtx : 15 ms
[OGL LOG] matrix is not yet sorted, sorting host matrix
[OGL LOG] sort_host_mtx_sparsity_pattern : 21 ms
[OGL LOG] sort_host_mtx : 12 ms
[OGL LOG] init_preconditioner : 0 ms
[OGL LOG] solve : 139 ms
noneompGKOBiCGStab:  Solving for Uz, Initial residual = 0.542697, Final residual = 9.27667e-07, No Iterations 38
[OGL LOG] init_preconditioner : 0 ms
[OGL LOG] solve : 1250 ms
noneompGKOBiCGStab:  Solving for p, Initial residual = 0.606887, Final residual = 6.80167e-07, No Iterations 345
time step continuity errors : sum local = 1.00503e-07, global = 1.001e-21, cumulative = -4.30451e-21
[OGL LOG] init_preconditioner : 0 ms
[OGL LOG] solve : 1312 ms
noneompGKOBiCGStab:  Solving for p, Initial residual = 0.560803, Final residual = 8.98648e-07, No Iterations 365
time step continuity errors : sum local = 1.02771e-08, global = 3.85928e-20, cumulative = 3.42883e-20
ExecutionTime = 36.85 s  ClockTime = 11 s

Time = 0.008

Courant Number mean: 0.123244 max: 0.890102
[OGL LOG] init_host_sparsity_pattern : 33 ms
[OGL LOG] matrix not stored update host matrix
[OGL LOG] update_host_mtx : 16 ms
[OGL LOG] matrix is not yet sorted, sorting host matrix
[OGL LOG] sort_host_mtx_sparsity_pattern : 23 ms
[OGL LOG] sort_host_mtx : 12 ms
[OGL LOG] init_preconditioner : 0 ms
[OGL LOG] solve : 114 ms
noneompGKOBiCGStab:  Solving for Ux, Initial residual = 0.0341496, Final residual = 8.29975e-07, No Iterations 31
[OGL LOG] init_host_sparsity_pattern : 33 ms
[OGL LOG] matrix not stored update host matrix
[OGL LOG] update_host_mtx : 15 ms
[OGL LOG] matrix is not yet sorted, sorting host matrix
[OGL LOG] sort_host_mtx_sparsity_pattern : 21 ms
[OGL LOG] sort_host_mtx : 12 ms
[OGL LOG] init_preconditioner : 0 ms
[OGL LOG] solve : 131 ms
noneompGKOBiCGStab:  Solving for Uy, Initial residual = 0.13238, Final residual = 6.27082e-07, No Iterations 36
[OGL LOG] init_host_sparsity_pattern : 33 ms
[OGL LOG] matrix not stored update host matrix
[OGL LOG] update_host_mtx : 15 ms
[OGL LOG] matrix is not yet sorted, sorting host matrix
[OGL LOG] sort_host_mtx_sparsity_pattern : 21 ms
[OGL LOG] sort_host_mtx : 12 ms
[OGL LOG] init_preconditioner : 0 ms
[OGL LOG] solve : 135 ms
noneompGKOBiCGStab:  Solving for Uz, Initial residual = 0.473703, Final residual = 7.00001e-07, No Iterations 37
[OGL LOG] init_preconditioner : 0 ms
[OGL LOG] solve : 1271 ms
noneompGKOBiCGStab:  Solving for p, Initial residual = 0.423035, Final residual = 4.84805e-07, No Iterations 352
time step continuity errors : sum local = 2.94714e-08, global = -1.10408e-20, cumulative = 2.32475e-20
[OGL LOG] init_preconditioner : 0 ms
[OGL LOG] solve : 1243 ms
noneompGKOBiCGStab:  Solving for p, Initial residual = 0.368402, Final residual = 8.77222e-08, No Iterations 346
time step continuity errors : sum local = 1.31867e-07, global = -1.48264e-21, cumulative = 2.17649e-20
ExecutionTime = 48.87 s  ClockTime = 15 s

Time = 0.01

Courant Number mean: 0.136096 max: 0.906943
[OGL LOG] init_host_sparsity_pattern : 33 ms
[OGL LOG] matrix not stored update host matrix
[OGL LOG] update_host_mtx : 15 ms
[OGL LOG] matrix is not yet sorted, sorting host matrix
[OGL LOG] sort_host_mtx_sparsity_pattern : 21 ms
[OGL LOG] sort_host_mtx : 12 ms
[OGL LOG] init_preconditioner : 0 ms
[OGL LOG] solve : 110 ms
noneompGKOBiCGStab:  Solving for Ux, Initial residual = 0.023064, Final residual = 7.68519e-07, No Iterations 30
[OGL LOG] init_host_sparsity_pattern : 33 ms
[OGL LOG] matrix not stored update host matrix
[OGL LOG] update_host_mtx : 15 ms
[OGL LOG] matrix is not yet sorted, sorting host matrix
[OGL LOG] sort_host_mtx_sparsity_pattern : 21 ms
[OGL LOG] sort_host_mtx : 12 ms
[OGL LOG] init_preconditioner : 0 ms
[OGL LOG] solve : 114 ms
noneompGKOBiCGStab:  Solving for Uy, Initial residual = 0.048463, Final residual = 9.37976e-07, No Iterations 31
[OGL LOG] init_host_sparsity_pattern : 33 ms
[OGL LOG] matrix not stored update host matrix
[OGL LOG] update_host_mtx : 15 ms
[OGL LOG] matrix is not yet sorted, sorting host matrix
[OGL LOG] sort_host_mtx_sparsity_pattern : 21 ms
[OGL LOG] sort_host_mtx : 12 ms
[OGL LOG] init_preconditioner : 0 ms
[OGL LOG] solve : 131 ms
noneompGKOBiCGStab:  Solving for Uz, Initial residual = 0.159822, Final residual = 9.58987e-07, No Iterations 36
[OGL LOG] init_preconditioner : 0 ms
[OGL LOG] solve : 1174 ms
noneompGKOBiCGStab:  Solving for p, Initial residual = 0.361666, Final residual = 8.04426e-07, No Iterations 326
time step continuity errors : sum local = 4.94693e-08, global = -1.95729e-20, cumulative = 2.192e-21
[OGL LOG] init_preconditioner : 0 ms
[OGL LOG] solve : 1190 ms
noneompGKOBiCGStab:  Solving for p, Initial residual = 0.33308, Final residual = 8.17494e-08, No Iterations 329
time step continuity errors : sum local = 9.32805e-08, global = 1.17607e-20, cumulative = 1.39527e-20
ExecutionTime = 60.18 s  ClockTime = 18 s

End

