/*---------------------------------------------------------------------------*\
  =========                 |
  \\      /  F ield         | OpenFOAM: The Open Source CFD Toolbox
   \\    /   O peration     | Website:  https://openfoam.org
    \\  /    A nd           | Version:  8
     \\/     M anipulation  |
\*---------------------------------------------------------------------------*/
Build  : 8-13d66902f78c
Exec   : icoFoam
Date   : Jul 14 2021
Time   : 02:08:38
Host   : "uc2n398.localdomain"
PID    : 544766
I/O    : uncollated
Case   : /pfs/data5/home/kit/scc/nq7776/code/OGL_DATA/lidDrivenCavity3D/v0.1-136-g40fef35/f584ccac99/IntelXeonGold6230CPU@2.10GHz/Test_2021-07-14-01:40:40/50/p-U-BiCGStab-GKO-BJ-omp/lidDrivenCavity3D
nProcs : 1
sigFpe : Enabling floating point exception trapping (FOAM_SIGFPE).
fileModificationChecking : Monitoring run-time modified files using timeStampMaster (fileModificationSkew 10)
allowSystemOperations : Allowing user-supplied system call operations

// * * * * * * * * * * * * * * * * * * * * * * * * * * * * * * * * * * * * * //
Create time

Create mesh for time = 0

Reading transportProperties

Reading field p

Reading field U

Reading/calculating face flux field phi


Starting time loop

Time = 0.002

Courant Number mean: 0 max: 0
[OGL LOG] init_host_sparsity_pattern : 35 ms
[OGL LOG] matrix not stored update host matrix
[OGL LOG] update_host_mtx : 18 ms
[OGL LOG] matrix is not yet sorted, compute sorting idxs
[OGL LOG] compute_sort : 910 ms
[OGL LOG] matrix is not yet sorted, sorting host matrix
[OGL LOG] sort_host_mtx_sparsity_pattern : 23 ms
[OGL LOG] sort_host_mtx : 15 ms
[OGL LOG] init_preconditioner : 15 ms
[OGL LOG] solve : 200 ms
BJompGKOBiCGStab:  Solving for Ux, Initial residual = 1, Final residual = 3.61163e-07, No Iterations 40
[OGL LOG] init_host_sparsity_pattern : 35 ms
[OGL LOG] matrix not stored update host matrix
[OGL LOG] update_host_mtx : 18 ms
[OGL LOG] matrix is not yet sorted, sorting host matrix
[OGL LOG] sort_host_mtx_sparsity_pattern : 23 ms
[OGL LOG] sort_host_mtx : 12 ms
[OGL LOG] init_preconditioner : 2 ms
[OGL LOG] solve : 4 ms
BJompGKOBiCGStab:  Solving for Uy, Initial residual = 0, Final residual = 0, No Iterations 0
[OGL LOG] init_host_sparsity_pattern : 34 ms
[OGL LOG] matrix not stored update host matrix
[OGL LOG] update_host_mtx : 15 ms
[OGL LOG] matrix is not yet sorted, sorting host matrix
[OGL LOG] sort_host_mtx_sparsity_pattern : 23 ms
[OGL LOG] sort_host_mtx : 12 ms
[OGL LOG] init_preconditioner : 2 ms
[OGL LOG] solve : 3 ms
BJompGKOBiCGStab:  Solving for Uz, Initial residual = 0, Final residual = 0, No Iterations 0
[OGL LOG] init_host_sparsity_pattern : 33 ms
[OGL LOG] matrix not stored update host matrix
[OGL LOG] update_host_mtx : 18 ms
[OGL LOG] matrix is not yet sorted, sorting host matrix
[OGL LOG] sort_host_mtx_sparsity_pattern : 22 ms
[OGL LOG] sort_host_mtx : 13 ms
[OGL LOG] init_preconditioner : 2 ms
[OGL LOG] solve : 1202 ms
BJompGKOBiCGStab:  Solving for p, Initial residual = 1, Final residual = 8.1634e-07, No Iterations 313
time step continuity errors : sum local = 1.48831e-07, global = 1.41646e-20, cumulative = 1.41646e-20
[OGL LOG] init_preconditioner : 0 ms
[OGL LOG] solve : 1308 ms
BJompGKOBiCGStab:  Solving for p, Initial residual = 0.721587, Final residual = 6.57593e-07, No Iterations 319
time step continuity errors : sum local = 1.89562e-07, global = -6.2962e-22, cumulative = 1.3535e-20
ExecutionTime = 178.46 s  ClockTime = 5 s

Time = 0.004

Courant Number mean: 0.0720723 max: 0.726639
[OGL LOG] init_host_sparsity_pattern : 33 ms
[OGL LOG] matrix not stored update host matrix
[OGL LOG] update_host_mtx : 15 ms
[OGL LOG] matrix is not yet sorted, sorting host matrix
[OGL LOG] sort_host_mtx_sparsity_pattern : 24 ms
[OGL LOG] sort_host_mtx : 12 ms
[OGL LOG] init_preconditioner : 0 ms
[OGL LOG] solve : 157 ms
BJompGKOBiCGStab:  Solving for Ux, Initial residual = 0.203461, Final residual = 8.3793e-07, No Iterations 38
[OGL LOG] init_host_sparsity_pattern : 34 ms
[OGL LOG] matrix not stored update host matrix
[OGL LOG] update_host_mtx : 15 ms
[OGL LOG] matrix is not yet sorted, sorting host matrix
[OGL LOG] sort_host_mtx_sparsity_pattern : 22 ms
[OGL LOG] sort_host_mtx : 12 ms
[OGL LOG] init_preconditioner : 0 ms
[OGL LOG] solve : 145 ms
BJompGKOBiCGStab:  Solving for Uy, Initial residual = 0.618434, Final residual = 9.63868e-07, No Iterations 37
[OGL LOG] init_host_sparsity_pattern : 34 ms
[OGL LOG] matrix not stored update host matrix
[OGL LOG] update_host_mtx : 15 ms
[OGL LOG] matrix is not yet sorted, sorting host matrix
[OGL LOG] sort_host_mtx_sparsity_pattern : 22 ms
[OGL LOG] sort_host_mtx : 12 ms
[OGL LOG] init_preconditioner : 0 ms
[OGL LOG] solve : 145 ms
BJompGKOBiCGStab:  Solving for Uz, Initial residual = 0.536062, Final residual = 3.92053e-07, No Iterations 37
[OGL LOG] init_preconditioner : 0 ms
[OGL LOG] solve : 1230 ms
BJompGKOBiCGStab:  Solving for p, Initial residual = 0.673309, Final residual = 6.90706e-07, No Iterations 311
time step continuity errors : sum local = 9.78485e-08, global = 1.16695e-20, cumulative = 2.52045e-20
[OGL LOG] init_preconditioner : 0 ms
[OGL LOG] solve : 1271 ms
BJompGKOBiCGStab:  Solving for p, Initial residual = 0.598896, Final residual = 7.75243e-07, No Iterations 309
time step continuity errors : sum local = 1.04946e-07, global = -3.03741e-21, cumulative = 2.21671e-20
ExecutionTime = 369.26 s  ClockTime = 8 s

Time = 0.006

Courant Number mean: 0.107408 max: 0.881755
[OGL LOG] init_host_sparsity_pattern : 33 ms
[OGL LOG] matrix not stored update host matrix
[OGL LOG] update_host_mtx : 16 ms
[OGL LOG] matrix is not yet sorted, sorting host matrix
[OGL LOG] sort_host_mtx_sparsity_pattern : 24 ms
[OGL LOG] sort_host_mtx : 13 ms
[OGL LOG] init_preconditioner : 0 ms
[OGL LOG] solve : 149 ms
BJompGKOBiCGStab:  Solving for Ux, Initial residual = 0.099555, Final residual = 9.65061e-07, No Iterations 34
[OGL LOG] init_host_sparsity_pattern : 34 ms
[OGL LOG] matrix not stored update host matrix
[OGL LOG] update_host_mtx : 15 ms
[OGL LOG] matrix is not yet sorted, sorting host matrix
[OGL LOG] sort_host_mtx_sparsity_pattern : 22 ms
[OGL LOG] sort_host_mtx : 12 ms
[OGL LOG] init_preconditioner : 0 ms
[OGL LOG] solve : 153 ms
BJompGKOBiCGStab:  Solving for Uy, Initial residual = 0.250017, Final residual = 7.52859e-07, No Iterations 35
[OGL LOG] init_host_sparsity_pattern : 34 ms
[OGL LOG] matrix not stored update host matrix
[OGL LOG] update_host_mtx : 15 ms
[OGL LOG] matrix is not yet sorted, sorting host matrix
[OGL LOG] sort_host_mtx_sparsity_pattern : 22 ms
[OGL LOG] sort_host_mtx : 12 ms
[OGL LOG] init_preconditioner : 0 ms
[OGL LOG] solve : 168 ms
BJompGKOBiCGStab:  Solving for Uz, Initial residual = 0.541186, Final residual = 8.2504e-07, No Iterations 39
[OGL LOG] init_preconditioner : 0 ms
[OGL LOG] solve : 1396 ms
BJompGKOBiCGStab:  Solving for p, Initial residual = 0.606869, Final residual = 9.91244e-07, No Iterations 335
time step continuity errors : sum local = 2.10373e-09, global = 3.41593e-20, cumulative = 5.63264e-20
[OGL LOG] init_preconditioner : 0 ms
[OGL LOG] solve : 1343 ms
BJompGKOBiCGStab:  Solving for p, Initial residual = 0.560882, Final residual = 3.85272e-07, No Iterations 327
time step continuity errors : sum local = 7.2181e-09, global = 3.2799e-22, cumulative = 5.66544e-20
ExecutionTime = 576.76 s  ClockTime = 12 s

Time = 0.008

Courant Number mean: 0.123244 max: 0.890103
[OGL LOG] init_host_sparsity_pattern : 33 ms
[OGL LOG] matrix not stored update host matrix
[OGL LOG] update_host_mtx : 17 ms
[OGL LOG] matrix is not yet sorted, sorting host matrix
[OGL LOG] sort_host_mtx_sparsity_pattern : 27 ms
[OGL LOG] sort_host_mtx : 15 ms
[OGL LOG] init_preconditioner : 0 ms
[OGL LOG] solve : 138 ms
BJompGKOBiCGStab:  Solving for Ux, Initial residual = 0.034138, Final residual = 9.2014e-07, No Iterations 30
[OGL LOG] init_host_sparsity_pattern : 34 ms
[OGL LOG] matrix not stored update host matrix
[OGL LOG] update_host_mtx : 15 ms
[OGL LOG] matrix is not yet sorted, sorting host matrix
[OGL LOG] sort_host_mtx_sparsity_pattern : 22 ms
[OGL LOG] sort_host_mtx : 12 ms
[OGL LOG] init_preconditioner : 0 ms
[OGL LOG] solve : 152 ms
BJompGKOBiCGStab:  Solving for Uy, Initial residual = 0.132386, Final residual = 9.54291e-07, No Iterations 34
[OGL LOG] init_host_sparsity_pattern : 34 ms
[OGL LOG] matrix not stored update host matrix
[OGL LOG] update_host_mtx : 15 ms
[OGL LOG] matrix is not yet sorted, sorting host matrix
[OGL LOG] sort_host_mtx_sparsity_pattern : 22 ms
[OGL LOG] sort_host_mtx : 12 ms
[OGL LOG] init_preconditioner : 0 ms
[OGL LOG] solve : 167 ms
BJompGKOBiCGStab:  Solving for Uz, Initial residual = 0.472144, Final residual = 5.20045e-07, No Iterations 38
[OGL LOG] init_preconditioner : 0 ms
[OGL LOG] solve : 1290 ms
BJompGKOBiCGStab:  Solving for p, Initial residual = 0.423007, Final residual = 9.85658e-07, No Iterations 320
time step continuity errors : sum local = 2.23981e-09, global = 1.02801e-20, cumulative = 6.69345e-20
[OGL LOG] init_preconditioner : 0 ms
[OGL LOG] solve : 1324 ms
BJompGKOBiCGStab:  Solving for p, Initial residual = 0.368346, Final residual = 8.79084e-07, No Iterations 330
time step continuity errors : sum local = 2.11898e-08, global = 6.01107e-21, cumulative = 7.29456e-20
ExecutionTime = 775.47 s  ClockTime = 15 s

Time = 0.01

Courant Number mean: 0.136094 max: 0.906943
[OGL LOG] init_host_sparsity_pattern : 33 ms
[OGL LOG] matrix not stored update host matrix
[OGL LOG] update_host_mtx : 15 ms
[OGL LOG] matrix is not yet sorted, sorting host matrix
[OGL LOG] sort_host_mtx_sparsity_pattern : 22 ms
[OGL LOG] sort_host_mtx : 12 ms
[OGL LOG] init_preconditioner : 0 ms
[OGL LOG] solve : 125 ms
BJompGKOBiCGStab:  Solving for Ux, Initial residual = 0.0230745, Final residual = 8.43918e-07, No Iterations 29
[OGL LOG] init_host_sparsity_pattern : 34 ms
[OGL LOG] matrix not stored update host matrix
[OGL LOG] update_host_mtx : 15 ms
[OGL LOG] matrix is not yet sorted, sorting host matrix
[OGL LOG] sort_host_mtx_sparsity_pattern : 22 ms
[OGL LOG] sort_host_mtx : 12 ms
[OGL LOG] init_preconditioner : 0 ms
[OGL LOG] solve : 135 ms
BJompGKOBiCGStab:  Solving for Uy, Initial residual = 0.0484105, Final residual = 9.81513e-07, No Iterations 32
[OGL LOG] init_host_sparsity_pattern : 34 ms
[OGL LOG] matrix not stored update host matrix
[OGL LOG] update_host_mtx : 15 ms
[OGL LOG] matrix is not yet sorted, sorting host matrix
[OGL LOG] sort_host_mtx_sparsity_pattern : 22 ms
[OGL LOG] sort_host_mtx : 12 ms
[OGL LOG] init_preconditioner : 0 ms
[OGL LOG] solve : 145 ms
BJompGKOBiCGStab:  Solving for Uz, Initial residual = 0.159331, Final residual = 9.20364e-07, No Iterations 34
[OGL LOG] init_preconditioner : 0 ms
[OGL LOG] solve : 1096 ms
BJompGKOBiCGStab:  Solving for p, Initial residual = 0.361718, Final residual = 3.7759e-07, No Iterations 273
time step continuity errors : sum local = 8.33256e-08, global = 5.20928e-20, cumulative = 1.25038e-19
[OGL LOG] init_preconditioner : 0 ms
[OGL LOG] solve : 1134 ms
BJompGKOBiCGStab:  Solving for p, Initial residual = 0.333231, Final residual = 9.62316e-07, No Iterations 283
time step continuity errors : sum local = 1.3097e-09, global = 1.86448e-20, cumulative = 1.43683e-19
ExecutionTime = 946.44 s  ClockTime = 18 s

End

