/*---------------------------------------------------------------------------*\
  =========                 |
  \\      /  F ield         | OpenFOAM: The Open Source CFD Toolbox
   \\    /   O peration     | Website:  https://openfoam.org
    \\  /    A nd           | Version:  8
     \\/     M anipulation  |
\*---------------------------------------------------------------------------*/
Build  : 8-13d66902f78c
Exec   : icoFoam
Date   : Jul 14 2021
Time   : 04:05:29
Host   : "uc2n399.localdomain"
PID    : 4107758
I/O    : uncollated
Case   : /pfs/data5/home/kit/scc/nq7776/code/OGL_DATA/lidDrivenCavity3D/v0.1-136-g40fef35/f584ccac99/IntelXeonGold6230CPU@2.10GHz/Test_2021-07-14-01:16:21/100/p-U-BiCGStab-GKO-none-omp/lidDrivenCavity3D
nProcs : 1
sigFpe : Enabling floating point exception trapping (FOAM_SIGFPE).
fileModificationChecking : Monitoring run-time modified files using timeStampMaster (fileModificationSkew 10)
allowSystemOperations : Allowing user-supplied system call operations

// * * * * * * * * * * * * * * * * * * * * * * * * * * * * * * * * * * * * * //
Create time

Create mesh for time = 0

Reading transportProperties

Reading field p

Reading field U

Reading/calculating face flux field phi


Starting time loop

Time = 0.001

Courant Number mean: 0 max: 0
[OGL LOG] init_host_sparsity_pattern : 292 ms
[OGL LOG] matrix not stored update host matrix
[OGL LOG] update_host_mtx : 145 ms
[OGL LOG] matrix is not yet sorted, compute sorting idxs
[OGL LOG] compute_sort : 8338 ms
[OGL LOG] matrix is not yet sorted, sorting host matrix
[OGL LOG] sort_host_mtx_sparsity_pattern : 184 ms
[OGL LOG] sort_host_mtx : 125 ms
[OGL LOG] init_preconditioner : 0 ms
[OGL LOG] solve : 1755 ms
noneompGKOBiCGStab:  Solving for Ux, Initial residual = 1, Final residual = 8.92714e-07, No Iterations 56
[OGL LOG] init_host_sparsity_pattern : 276 ms
[OGL LOG] matrix not stored update host matrix
[OGL LOG] update_host_mtx : 148 ms
[OGL LOG] matrix is not yet sorted, sorting host matrix
[OGL LOG] sort_host_mtx_sparsity_pattern : 193 ms
[OGL LOG] sort_host_mtx : 124 ms
[OGL LOG] init_preconditioner : 0 ms
[OGL LOG] solve : 44 ms
noneompGKOBiCGStab:  Solving for Uy, Initial residual = 0, Final residual = 0, No Iterations 0
[OGL LOG] init_host_sparsity_pattern : 271 ms
[OGL LOG] matrix not stored update host matrix
[OGL LOG] update_host_mtx : 145 ms
[OGL LOG] matrix is not yet sorted, sorting host matrix
[OGL LOG] sort_host_mtx_sparsity_pattern : 193 ms
[OGL LOG] sort_host_mtx : 124 ms
[OGL LOG] init_preconditioner : 0 ms
[OGL LOG] solve : 131 ms
noneompGKOBiCGStab:  Solving for Uz, Initial residual = 0, Final residual = 0, No Iterations 0
[OGL LOG] init_host_sparsity_pattern : 286 ms
[OGL LOG] matrix not stored update host matrix
[OGL LOG] update_host_mtx : 147 ms
[OGL LOG] matrix is not yet sorted, sorting host matrix
[OGL LOG] sort_host_mtx_sparsity_pattern : 192 ms
[OGL LOG] sort_host_mtx : 124 ms
[OGL LOG] init_preconditioner : 0 ms
[OGL LOG] solve : 22614 ms
noneompGKOBiCGStab:  Solving for p, Initial residual = 1, Final residual = 5.91819e-07, No Iterations 757
time step continuity errors : sum local = 8.05788e-08, global = -9.14955e-21, cumulative = -9.14955e-21
[OGL LOG] init_preconditioner : 0 ms
[OGL LOG] solve : 20953 ms
noneompGKOBiCGStab:  Solving for p, Initial residual = 0.783577, Final residual = 6.82796e-07, No Iterations 726
time step continuity errors : sum local = 3.93015e-08, global = 4.0834e-21, cumulative = -5.06614e-21
ExecutionTime = 197.7 s  ClockTime = 61 s

Time = 0.002

Courant Number mean: 0.0571435 max: 0.804774
[OGL LOG] init_host_sparsity_pattern : 275 ms
[OGL LOG] matrix not stored update host matrix
[OGL LOG] update_host_mtx : 129 ms
[OGL LOG] matrix is not yet sorted, sorting host matrix
[OGL LOG] sort_host_mtx_sparsity_pattern : 196 ms
[OGL LOG] sort_host_mtx : 124 ms
[OGL LOG] init_preconditioner : 0 ms
[OGL LOG] solve : 1661 ms
noneompGKOBiCGStab:  Solving for Ux, Initial residual = 0.169073, Final residual = 6.58512e-07, No Iterations 51
[OGL LOG] init_host_sparsity_pattern : 266 ms
[OGL LOG] matrix not stored update host matrix
[OGL LOG] update_host_mtx : 126 ms
[OGL LOG] matrix is not yet sorted, sorting host matrix
[OGL LOG] sort_host_mtx_sparsity_pattern : 193 ms
[OGL LOG] sort_host_mtx : 125 ms
[OGL LOG] init_preconditioner : 0 ms
[OGL LOG] solve : 1756 ms
noneompGKOBiCGStab:  Solving for Uy, Initial residual = 0.620184, Final residual = 9.59267e-07, No Iterations 54
[OGL LOG] init_host_sparsity_pattern : 269 ms
[OGL LOG] matrix not stored update host matrix
[OGL LOG] update_host_mtx : 128 ms
[OGL LOG] matrix is not yet sorted, sorting host matrix
[OGL LOG] sort_host_mtx_sparsity_pattern : 196 ms
[OGL LOG] sort_host_mtx : 130 ms
[OGL LOG] init_preconditioner : 0 ms
[OGL LOG] solve : 1591 ms
noneompGKOBiCGStab:  Solving for Uz, Initial residual = 0.646885, Final residual = 7.37726e-07, No Iterations 52
[OGL LOG] init_preconditioner : 0 ms
[OGL LOG] solve : 20879 ms
noneompGKOBiCGStab:  Solving for p, Initial residual = 0.798443, Final residual = 6.57518e-07, No Iterations 708
time step continuity errors : sum local = 5.95405e-08, global = -1.02603e-20, cumulative = -1.53265e-20
[OGL LOG] init_preconditioner : 0 ms
[OGL LOG] solve : 21544 ms
noneompGKOBiCGStab:  Solving for p, Initial residual = 0.738625, Final residual = 5.0333e-07, No Iterations 738
time step continuity errors : sum local = 4.30122e-08, global = -9.19673e-21, cumulative = -2.45232e-20
ExecutionTime = 390.37 s  ClockTime = 112 s

Time = 0.003

Courant Number mean: 0.0867388 max: 0.944827
[OGL LOG] init_host_sparsity_pattern : 266 ms
[OGL LOG] matrix not stored update host matrix
[OGL LOG] update_host_mtx : 131 ms
[OGL LOG] matrix is not yet sorted, sorting host matrix
[OGL LOG] sort_host_mtx_sparsity_pattern : 198 ms
[OGL LOG] sort_host_mtx : 125 ms
[OGL LOG] init_preconditioner : 0 ms
[OGL LOG] solve : 1353 ms
noneompGKOBiCGStab:  Solving for Ux, Initial residual = 0.102648, Final residual = 7.14205e-07, No Iterations 45
[OGL LOG] init_host_sparsity_pattern : 266 ms
[OGL LOG] matrix not stored update host matrix
[OGL LOG] update_host_mtx : 129 ms
[OGL LOG] matrix is not yet sorted, sorting host matrix
[OGL LOG] sort_host_mtx_sparsity_pattern : 192 ms
[OGL LOG] sort_host_mtx : 125 ms
[OGL LOG] init_preconditioner : 0 ms
[OGL LOG] solve : 1428 ms
noneompGKOBiCGStab:  Solving for Uy, Initial residual = 0.396894, Final residual = 9.31562e-07, No Iterations 47
[OGL LOG] init_host_sparsity_pattern : 266 ms
[OGL LOG] matrix not stored update host matrix
[OGL LOG] update_host_mtx : 129 ms
[OGL LOG] matrix is not yet sorted, sorting host matrix
[OGL LOG] sort_host_mtx_sparsity_pattern : 192 ms
[OGL LOG] sort_host_mtx : 125 ms
[OGL LOG] init_preconditioner : 0 ms
[OGL LOG] solve : 1666 ms
noneompGKOBiCGStab:  Solving for Uz, Initial residual = 1.00102, Final residual = 7.91725e-07, No Iterations 55
[OGL LOG] init_preconditioner : 0 ms
[OGL LOG] solve : 20690 ms
noneompGKOBiCGStab:  Solving for p, Initial residual = 0.832646, Final residual = 8.08906e-07, No Iterations 732
time step continuity errors : sum local = 1.27072e-08, global = -8.6208e-21, cumulative = -3.3144e-20
[OGL LOG] init_preconditioner : 0 ms
[OGL LOG] solve : 23831 ms
noneompGKOBiCGStab:  Solving for p, Initial residual = 0.802865, Final residual = 5.05356e-07, No Iterations 841
time step continuity errors : sum local = 6.87572e-08, global = 4.78485e-22, cumulative = -3.26655e-20
ExecutionTime = 589.38 s  ClockTime = 165 s

Time = 0.004

Courant Number mean: 0.0995265 max: 0.926351
[OGL LOG] init_host_sparsity_pattern : 266 ms
[OGL LOG] matrix not stored update host matrix
[OGL LOG] update_host_mtx : 130 ms
[OGL LOG] matrix is not yet sorted, sorting host matrix
[OGL LOG] sort_host_mtx_sparsity_pattern : 198 ms
[OGL LOG] sort_host_mtx : 124 ms
[OGL LOG] init_preconditioner : 0 ms
[OGL LOG] solve : 1331 ms
noneompGKOBiCGStab:  Solving for Ux, Initial residual = 0.0541728, Final residual = 9.80441e-07, No Iterations 44
[OGL LOG] init_host_sparsity_pattern : 266 ms
[OGL LOG] matrix not stored update host matrix
[OGL LOG] update_host_mtx : 127 ms
[OGL LOG] matrix is not yet sorted, sorting host matrix
[OGL LOG] sort_host_mtx_sparsity_pattern : 192 ms
[OGL LOG] sort_host_mtx : 125 ms
[OGL LOG] init_preconditioner : 0 ms
[OGL LOG] solve : 1504 ms
noneompGKOBiCGStab:  Solving for Uy, Initial residual = 0.255034, Final residual = 8.57555e-07, No Iterations 50
[OGL LOG] init_host_sparsity_pattern : 266 ms
[OGL LOG] matrix not stored update host matrix
[OGL LOG] update_host_mtx : 127 ms
[OGL LOG] matrix is not yet sorted, sorting host matrix
[OGL LOG] sort_host_mtx_sparsity_pattern : 192 ms
[OGL LOG] sort_host_mtx : 125 ms
[OGL LOG] init_preconditioner : 0 ms
[OGL LOG] solve : 1665 ms
noneompGKOBiCGStab:  Solving for Uz, Initial residual = 0.873246, Final residual = 9.81319e-07, No Iterations 55
[OGL LOG] init_preconditioner : 0 ms
[OGL LOG] solve : 20364 ms
noneompGKOBiCGStab:  Solving for p, Initial residual = 0.750173, Final residual = 6.53014e-07, No Iterations 716
time step continuity errors : sum local = 4.27569e-07, global = 8.76951e-21, cumulative = -2.3896e-20
[OGL LOG] init_preconditioner : 0 ms
[OGL LOG] solve : 21349 ms
noneompGKOBiCGStab:  Solving for p, Initial residual = 0.685395, Final residual = 9.01417e-07, No Iterations 755
time step continuity errors : sum local = 1.5836e-08, global = -7.10192e-21, cumulative = -3.09979e-20
ExecutionTime = 777.3 s  ClockTime = 215 s

Time = 0.005

Courant Number mean: 0.112163 max: 0.946349
[OGL LOG] init_host_sparsity_pattern : 266 ms
[OGL LOG] matrix not stored update host matrix
[OGL LOG] update_host_mtx : 130 ms
[OGL LOG] matrix is not yet sorted, sorting host matrix
[OGL LOG] sort_host_mtx_sparsity_pattern : 198 ms
[OGL LOG] sort_host_mtx : 124 ms
[OGL LOG] init_preconditioner : 0 ms
[OGL LOG] solve : 1346 ms
noneompGKOBiCGStab:  Solving for Ux, Initial residual = 0.0411464, Final residual = 6.84147e-07, No Iterations 45
[OGL LOG] init_host_sparsity_pattern : 266 ms
[OGL LOG] matrix not stored update host matrix
[OGL LOG] update_host_mtx : 127 ms
[OGL LOG] matrix is not yet sorted, sorting host matrix
[OGL LOG] sort_host_mtx_sparsity_pattern : 192 ms
[OGL LOG] sort_host_mtx : 125 ms
[OGL LOG] init_preconditioner : 0 ms
[OGL LOG] solve : 1473 ms
noneompGKOBiCGStab:  Solving for Uy, Initial residual = 0.132101, Final residual = 9.86867e-07, No Iterations 49
[OGL LOG] init_host_sparsity_pattern : 266 ms
[OGL LOG] matrix not stored update host matrix
[OGL LOG] update_host_mtx : 126 ms
[OGL LOG] matrix is not yet sorted, sorting host matrix
[OGL LOG] sort_host_mtx_sparsity_pattern : 192 ms
[OGL LOG] sort_host_mtx : 125 ms
[OGL LOG] init_preconditioner : 0 ms
[OGL LOG] solve : 1648 ms
noneompGKOBiCGStab:  Solving for Uz, Initial residual = 0.872628, Final residual = 5.72087e-07, No Iterations 55
[OGL LOG] init_preconditioner : 0 ms
[OGL LOG] solve : 20103 ms
noneompGKOBiCGStab:  Solving for p, Initial residual = 0.760045, Final residual = 4.73177e-07, No Iterations 712
time step continuity errors : sum local = 4.44082e-08, global = 5.29292e-21, cumulative = -2.5705e-20
[OGL LOG] init_preconditioner : 0 ms
[OGL LOG] solve : 18871 ms
noneompGKOBiCGStab:  Solving for p, Initial residual = 0.713203, Final residual = 9.27854e-07, No Iterations 669
time step continuity errors : sum local = 8.42615e-10, global = -3.95339e-21, cumulative = -2.96584e-20
ExecutionTime = 954.1 s  ClockTime = 261 s

End

