/*---------------------------------------------------------------------------*\
  =========                 |
  \\      /  F ield         | OpenFOAM: The Open Source CFD Toolbox
   \\    /   O peration     | Website:  https://openfoam.org
    \\  /    A nd           | Version:  8
     \\/     M anipulation  |
\*---------------------------------------------------------------------------*/
Build  : 8-13d66902f78c
Exec   : icoFoam
Date   : Jul 14 2021
Time   : 02:05:29
Host   : "uc2n538.localdomain"
PID    : 2781516
I/O    : uncollated
Case   : /pfs/data5/home/kit/scc/nq7776/code/OGL_DATA/lidDrivenCavity3D/v0.1-136-g40fef35/f584ccac99/IntelXeonGold6230CPU@2.10GHz/Test_2021-07-14-01:57:38/100/p-U-CG-OF-none-reference/lidDrivenCavity3D
nProcs : 1
sigFpe : Enabling floating point exception trapping (FOAM_SIGFPE).
fileModificationChecking : Monitoring run-time modified files using timeStampMaster (fileModificationSkew 10)
allowSystemOperations : Allowing user-supplied system call operations

// * * * * * * * * * * * * * * * * * * * * * * * * * * * * * * * * * * * * * //
Create time

Create mesh for time = 0

Reading transportProperties

Reading field p

Reading field U

Reading/calculating face flux field phi


Starting time loop

Time = 0.001

Courant Number mean: 0 max: 0
nonePBiCGStab:  Solving for Ux, Initial residual = 1, Final residual = 6.69674e-07, No Iterations 58
nonePBiCGStab:  Solving for Uy, Initial residual = 0, Final residual = 0, No Iterations 0
nonePBiCGStab:  Solving for Uz, Initial residual = 0, Final residual = 0, No Iterations 0
nonePCG:  Solving for p, Initial residual = 1, Final residual = 9.83596e-07, No Iterations 900
time step continuity errors : sum local = 5.89717e-10, global = 1.78348e-21, cumulative = 1.78348e-21
nonePCG:  Solving for p, Initial residual = 0.783584, Final residual = 9.55326e-07, No Iterations 893
time step continuity errors : sum local = 7.16071e-10, global = -1.47232e-22, cumulative = 1.63625e-21
ExecutionTime = 29.77 s  ClockTime = 30 s

Time = 0.002

Courant Number mean: 0.0571436 max: 0.804774
nonePBiCGStab:  Solving for Ux, Initial residual = 0.14043, Final residual = 7.24241e-07, No Iterations 46
nonePBiCGStab:  Solving for Uy, Initial residual = 0.429361, Final residual = 8.72311e-07, No Iterations 48
nonePBiCGStab:  Solving for Uz, Initial residual = 0.990579, Final residual = 9.28031e-07, No Iterations 53
nonePCG:  Solving for p, Initial residual = 0.798486, Final residual = 9.83787e-07, No Iterations 884
time step continuity errors : sum local = 1.00059e-09, global = 3.80507e-21, cumulative = 5.44132e-21
nonePCG:  Solving for p, Initial residual = 0.738456, Final residual = 9.74192e-07, No Iterations 872
time step continuity errors : sum local = 1.01223e-09, global = -1.42115e-20, cumulative = -8.77015e-21
ExecutionTime = 58.03 s  ClockTime = 58 s

Time = 0.003

Courant Number mean: 0.0867389 max: 0.94479
nonePBiCGStab:  Solving for Ux, Initial residual = 0.0658873, Final residual = 7.68108e-07, No Iterations 47
nonePBiCGStab:  Solving for Uy, Initial residual = 0.228207, Final residual = 9.01279e-07, No Iterations 49
nonePBiCGStab:  Solving for Uz, Initial residual = 0.809609, Final residual = 9.46472e-07, No Iterations 55
nonePCG:  Solving for p, Initial residual = 0.831848, Final residual = 9.74865e-07, No Iterations 885
time step continuity errors : sum local = 9.36095e-10, global = -3.96076e-21, cumulative = -1.27309e-20
nonePCG:  Solving for p, Initial residual = 0.80222, Final residual = 9.67014e-07, No Iterations 884
time step continuity errors : sum local = 9.0519e-10, global = -4.04357e-21, cumulative = -1.67745e-20
ExecutionTime = 86.56 s  ClockTime = 87 s

Time = 0.004

Courant Number mean: 0.0995269 max: 0.926339
nonePBiCGStab:  Solving for Ux, Initial residual = 0.0395631, Final residual = 5.62068e-07, No Iterations 47
nonePBiCGStab:  Solving for Uy, Initial residual = 0.171315, Final residual = 9.36543e-07, No Iterations 46
nonePBiCGStab:  Solving for Uz, Initial residual = 0.629673, Final residual = 6.62979e-07, No Iterations 52
nonePCG:  Solving for p, Initial residual = 0.747319, Final residual = 9.68772e-07, No Iterations 877
time step continuity errors : sum local = 8.53163e-10, global = 9.86631e-21, cumulative = -6.90817e-21
nonePCG:  Solving for p, Initial residual = 0.681793, Final residual = 9.80578e-07, No Iterations 875
time step continuity errors : sum local = 8.80151e-10, global = 1.48293e-21, cumulative = -5.42524e-21
ExecutionTime = 114.74 s  ClockTime = 115 s

Time = 0.005

Courant Number mean: 0.112162 max: 0.945919
nonePBiCGStab:  Solving for Ux, Initial residual = 0.0308397, Final residual = 9.14091e-07, No Iterations 42
nonePBiCGStab:  Solving for Uy, Initial residual = 0.0978908, Final residual = 6.67986e-07, No Iterations 45
nonePBiCGStab:  Solving for Uz, Initial residual = 0.595342, Final residual = 8.35391e-07, No Iterations 54
nonePCG:  Solving for p, Initial residual = 0.756573, Final residual = 9.99013e-07, No Iterations 882
time step continuity errors : sum local = 7.4233e-10, global = -1.46713e-21, cumulative = -6.89237e-21
nonePCG:  Solving for p, Initial residual = 0.707992, Final residual = 9.75226e-07, No Iterations 880
time step continuity errors : sum local = 7.12879e-10, global = 5.15877e-21, cumulative = -1.7336e-21
ExecutionTime = 142.95 s  ClockTime = 143 s

End

