/*---------------------------------------------------------------------------*\
  =========                 |
  \\      /  F ield         | OpenFOAM: The Open Source CFD Toolbox
   \\    /   O peration     | Website:  https://openfoam.org
    \\  /    A nd           | Version:  8
     \\/     M anipulation  |
\*---------------------------------------------------------------------------*/
Build  : 8-13d66902f78c
Exec   : icoFoam
Date   : Jul 13 2021
Time   : 22:59:34
Host   : "uc2n525.localdomain"
PID    : 3758663
I/O    : uncollated
Case   : /pfs/data5/home/kit/scc/nq7776/code/OGL_DATA/lidDrivenCavity3D/v0.1-136-g40fef35/f584ccac99/IntelXeonGold6230CPU@2.10GHz/Test_2021-07-13-22:16:26/75/p-BiCGStab-GKO-none-omp/lidDrivenCavity3D
nProcs : 1
sigFpe : Enabling floating point exception trapping (FOAM_SIGFPE).
fileModificationChecking : Monitoring run-time modified files using timeStampMaster (fileModificationSkew 10)
allowSystemOperations : Allowing user-supplied system call operations

// * * * * * * * * * * * * * * * * * * * * * * * * * * * * * * * * * * * * * //
Create time

Create mesh for time = 0

Reading transportProperties

Reading field p

Reading field U

Reading/calculating face flux field phi


Starting time loop

Time = 0.00133333

Courant Number mean: 0 max: 0
nonePBiCGStab:  Solving for Ux, Initial residual = 1, Final residual = 0.0730209, No Iterations 5
nonePBiCGStab:  Solving for Uy, Initial residual = 0, Final residual = 0, No Iterations 0
nonePBiCGStab:  Solving for Uz, Initial residual = 0, Final residual = 0, No Iterations 0
[OGL LOG] init_host_sparsity_pattern : 124 ms
[OGL LOG] matrix not stored update host matrix
[OGL LOG] update_host_mtx : 62 ms
[OGL LOG] matrix is not yet sorted, compute sorting idxs
[OGL LOG] compute_sort : 3339 ms
[OGL LOG] matrix is not yet sorted, sorting host matrix
[OGL LOG] sort_host_mtx_sparsity_pattern : 80 ms
[OGL LOG] sort_host_mtx : 52 ms
[OGL LOG] init_preconditioner : 0 ms
[OGL LOG] solve : 6445 ms
noneompGKOBiCGStab:  Solving for p, Initial residual = 1, Final residual = 8.1714e-07, No Iterations 521
time step continuity errors : sum local = 7.73612e-09, global = 7.57635e-21, cumulative = 7.57635e-21
[OGL LOG] init_preconditioner : 0 ms
[OGL LOG] solve : 6593 ms
noneompGKOBiCGStab:  Solving for p, Initial residual = 0.697113, Final residual = 5.13948e-07, No Iterations 536
time step continuity errors : sum local = 1.25186e-07, global = 7.72222e-21, cumulative = 1.52986e-20
ExecutionTime = 57.87 s  ClockTime = 18 s

Time = 0.00266667

Courant Number mean: 0.0508076 max: 0.767258
nonePBiCGStab:  Solving for Ux, Initial residual = 0.140583, Final residual = 0.0324471, No Iterations 5
nonePBiCGStab:  Solving for Uy, Initial residual = 0.413637, Final residual = 0.0924182, No Iterations 5
nonePBiCGStab:  Solving for Uz, Initial residual = 0.982336, Final residual = 0.250253, No Iterations 5
[OGL LOG] init_preconditioner : 0 ms
[OGL LOG] solve : 6778 ms
noneompGKOBiCGStab:  Solving for p, Initial residual = 0.746881, Final residual = 8.85883e-07, No Iterations 539
time step continuity errors : sum local = 5.12937e-08, global = -7.53258e-21, cumulative = 7.76599e-21
[OGL LOG] init_preconditioner : 0 ms
[OGL LOG] solve : 7474 ms
noneompGKOBiCGStab:  Solving for p, Initial residual = 0.66813, Final residual = 4.69238e-08, No Iterations 589
time step continuity errors : sum local = 1.11964e-07, global = -1.56827e-21, cumulative = 6.19772e-21
ExecutionTime = 115.3 s  ClockTime = 33 s

Time = 0.004

Courant Number mean: 0.0796117 max: 0.886041
nonePBiCGStab:  Solving for Ux, Initial residual = 0.058438, Final residual = 0.0111468, No Iterations 5
nonePBiCGStab:  Solving for Uy, Initial residual = 0.172066, Final residual = 0.0399416, No Iterations 5
nonePBiCGStab:  Solving for Uz, Initial residual = 0.610038, Final residual = 0.14289, No Iterations 5
[OGL LOG] init_preconditioner : 0 ms
[OGL LOG] solve : 6466 ms
noneompGKOBiCGStab:  Solving for p, Initial residual = 0.73033, Final residual = 9.87334e-07, No Iterations 522
time step continuity errors : sum local = 7.8574e-08, global = -1.90219e-20, cumulative = -1.28242e-20
[OGL LOG] init_preconditioner : 0 ms
[OGL LOG] solve : 6820 ms
noneompGKOBiCGStab:  Solving for p, Initial residual = 0.66092, Final residual = 2.25872e-07, No Iterations 549
time step continuity errors : sum local = 4.14615e-08, global = -4.91486e-21, cumulative = -1.7739e-20
ExecutionTime = 168.92 s  ClockTime = 47 s

Time = 0.00533333

Courant Number mean: 0.0948084 max: 0.902569
nonePBiCGStab:  Solving for Ux, Initial residual = 0.034592, Final residual = 0.00683316, No Iterations 5
nonePBiCGStab:  Solving for Uy, Initial residual = 0.119566, Final residual = 0.0298696, No Iterations 5
nonePBiCGStab:  Solving for Uz, Initial residual = 0.386262, Final residual = 0.0821552, No Iterations 5
[OGL LOG] init_preconditioner : 0 ms
[OGL LOG] solve : 7004 ms
noneompGKOBiCGStab:  Solving for p, Initial residual = 0.609762, Final residual = 3.36719e-07, No Iterations 562
time step continuity errors : sum local = 4.87626e-08, global = -8.31937e-21, cumulative = -2.60584e-20
[OGL LOG] init_preconditioner : 0 ms
[OGL LOG] solve : 6558 ms
noneompGKOBiCGStab:  Solving for p, Initial residual = 0.521087, Final residual = 9.00921e-07, No Iterations 533
time step continuity errors : sum local = 6.90165e-09, global = 9.28032e-21, cumulative = -1.67781e-20
ExecutionTime = 223.65 s  ClockTime = 61 s

Time = 0.00666667

Courant Number mean: 0.107174 max: 0.916779
nonePBiCGStab:  Solving for Ux, Initial residual = 0.0257302, Final residual = 0.00503147, No Iterations 5
nonePBiCGStab:  Solving for Uy, Initial residual = 0.0750666, Final residual = 0.0208862, No Iterations 5
nonePBiCGStab:  Solving for Uz, Initial residual = 0.212962, Final residual = 0.049675, No Iterations 5
[OGL LOG] init_preconditioner : 0 ms
[OGL LOG] solve : 7412 ms
noneompGKOBiCGStab:  Solving for p, Initial residual = 0.629274, Final residual = 9.4482e-07, No Iterations 605
time step continuity errors : sum local = 1.65638e-09, global = 2.86255e-21, cumulative = -1.39155e-20
[OGL LOG] init_preconditioner : 0 ms
[OGL LOG] solve : 6129 ms
noneompGKOBiCGStab:  Solving for p, Initial residual = 0.552133, Final residual = 9.2418e-07, No Iterations 507
time step continuity errors : sum local = 1.65201e-09, global = 1.57168e-20, cumulative = 1.80129e-21
ExecutionTime = 278.26 s  ClockTime = 75 s

End

