/*---------------------------------------------------------------------------*\
  =========                 |
  \\      /  F ield         | OpenFOAM: The Open Source CFD Toolbox
   \\    /   O peration     | Website:  https://openfoam.org
    \\  /    A nd           | Version:  8
     \\/     M anipulation  |
\*---------------------------------------------------------------------------*/
Build  : 8-13d66902f78c
Exec   : icoFoam
Date   : Jul 14 2021
Time   : 02:10:00
Host   : "uc2n525.localdomain"
PID    : 3778051
I/O    : uncollated
Case   : /pfs/data5/home/kit/scc/nq7776/code/OGL_DATA/lidDrivenCavity3D/v0.1-136-g40fef35/f584ccac99/IntelXeonGold6230CPU@2.10GHz/Test_2021-07-14-02:08:08/50/p-U-BiCGStab-OF-none-reference/lidDrivenCavity3D
nProcs : 1
sigFpe : Enabling floating point exception trapping (FOAM_SIGFPE).
fileModificationChecking : Monitoring run-time modified files using timeStampMaster (fileModificationSkew 10)
allowSystemOperations : Allowing user-supplied system call operations

// * * * * * * * * * * * * * * * * * * * * * * * * * * * * * * * * * * * * * //
Create time

Create mesh for time = 0

Reading transportProperties

Reading field p

Reading field U

Reading/calculating face flux field phi


Starting time loop

Time = 0.002

Courant Number mean: 0 max: 0
nonePBiCGStab:  Solving for Ux, Initial residual = 1, Final residual = 9.47854e-07, No Iterations 42
nonePBiCGStab:  Solving for Uy, Initial residual = 0, Final residual = 0, No Iterations 0
nonePBiCGStab:  Solving for Uz, Initial residual = 0, Final residual = 0, No Iterations 0
nonePBiCGStab:  Solving for p, Initial residual = 1, Final residual = 9.69988e-07, No Iterations 351
time step continuity errors : sum local = 3.19408e-09, global = -1.16959e-20, cumulative = -1.16959e-20
nonePBiCGStab:  Solving for p, Initial residual = 0.721585, Final residual = 2.0035e-07, No Iterations 343
time step continuity errors : sum local = 8.74715e-10, global = 7.6714e-21, cumulative = -4.02452e-21
ExecutionTime = 2.68 s  ClockTime = 3 s

Time = 0.004

Courant Number mean: 0.0720722 max: 0.726639
nonePBiCGStab:  Solving for Ux, Initial residual = 0.15183, Final residual = 7.71714e-07, No Iterations 37
nonePBiCGStab:  Solving for Uy, Initial residual = 0.353387, Final residual = 3.74721e-07, No Iterations 39
nonePBiCGStab:  Solving for Uz, Initial residual = 0.977977, Final residual = 4.72991e-07, No Iterations 42
nonePBiCGStab:  Solving for p, Initial residual = 0.67358, Final residual = 4.92793e-07, No Iterations 335
time step continuity errors : sum local = 2.33823e-09, global = 4.35505e-21, cumulative = 3.30536e-22
nonePBiCGStab:  Solving for p, Initial residual = 0.598434, Final residual = 6.74985e-07, No Iterations 345
time step continuity errors : sum local = 3.28848e-09, global = -2.42748e-20, cumulative = -2.39443e-20
ExecutionTime = 5.04 s  ClockTime = 5 s

Time = 0.006

Courant Number mean: 0.107408 max: 0.881779
nonePBiCGStab:  Solving for Ux, Initial residual = 0.0527321, Final residual = 9.75102e-07, No Iterations 33
nonePBiCGStab:  Solving for Uy, Initial residual = 0.117611, Final residual = 9.47555e-07, No Iterations 34
nonePBiCGStab:  Solving for Uz, Initial residual = 0.456697, Final residual = 8.94988e-07, No Iterations 38
nonePBiCGStab:  Solving for p, Initial residual = 0.600429, Final residual = 9.19994e-07, No Iterations 367
time step continuity errors : sum local = 3.06652e-09, global = -7.1429e-21, cumulative = -3.10872e-20
nonePBiCGStab:  Solving for p, Initial residual = 0.55119, Final residual = 2.81276e-07, No Iterations 376
time step continuity errors : sum local = 9.05225e-10, global = 1.24622e-20, cumulative = -1.86249e-20
ExecutionTime = 7.56 s  ClockTime = 8 s

Time = 0.008

Courant Number mean: 0.123246 max: 0.890085
nonePBiCGStab:  Solving for Ux, Initial residual = 0.0254315, Final residual = 8.11885e-07, No Iterations 31
nonePBiCGStab:  Solving for Uy, Initial residual = 0.0796804, Final residual = 9.73959e-07, No Iterations 34
nonePBiCGStab:  Solving for Uz, Initial residual = 0.252312, Final residual = 6.27441e-07, No Iterations 38
nonePBiCGStab:  Solving for p, Initial residual = 0.384622, Final residual = 5.02834e-07, No Iterations 363
time step continuity errors : sum local = 1.49038e-09, global = -2.19755e-20, cumulative = -4.06005e-20
nonePBiCGStab:  Solving for p, Initial residual = 0.3244, Final residual = 1.68391e-07, No Iterations 342
time step continuity errors : sum local = 5.07291e-10, global = -3.018e-21, cumulative = -4.36185e-20
ExecutionTime = 9.95 s  ClockTime = 10 s

Time = 0.01

Courant Number mean: 0.136097 max: 0.906812
nonePBiCGStab:  Solving for Ux, Initial residual = 0.0177746, Final residual = 7.92087e-07, No Iterations 30
nonePBiCGStab:  Solving for Uy, Initial residual = 0.038939, Final residual = 8.18775e-07, No Iterations 32
nonePBiCGStab:  Solving for Uz, Initial residual = 0.0851119, Final residual = 9.38386e-07, No Iterations 34
nonePBiCGStab:  Solving for p, Initial residual = 0.290079, Final residual = 9.85963e-07, No Iterations 308
time step continuity errors : sum local = 2.41217e-09, global = -7.19294e-20, cumulative = -1.15548e-19
nonePBiCGStab:  Solving for p, Initial residual = 0.248647, Final residual = 9.12039e-07, No Iterations 340
time step continuity errors : sum local = 1.34892e-09, global = -3.66557e-20, cumulative = -1.52204e-19
ExecutionTime = 12.17 s  ClockTime = 12 s

End

