/*---------------------------------------------------------------------------*\
  =========                 |
  \\      /  F ield         | OpenFOAM: The Open Source CFD Toolbox
   \\    /   O peration     | Website:  https://openfoam.org
    \\  /    A nd           | Version:  8
     \\/     M anipulation  |
\*---------------------------------------------------------------------------*/
Build  : 8-13d66902f78c
Exec   : icoFoam
Date   : Jul 12 2021
Time   : 15:36:39
Host   : "uc2n400.localdomain"
PID    : 3903451
I/O    : uncollated
Case   : /pfs/data5/home/kit/scc/nq7776/code/OGL_DATA/lidDrivenCavity3D/v0.1-136-g40fef35/f584ccac99/IntelXeonGold6230CPU@2.10GHz/Test_2021-07-12-12:50:00/100/p-U-BiCGStab-GKO-none-omp/lidDrivenCavity3D
nProcs : 1
sigFpe : Enabling floating point exception trapping (FOAM_SIGFPE).
fileModificationChecking : Monitoring run-time modified files using timeStampMaster (fileModificationSkew 10)
allowSystemOperations : Allowing user-supplied system call operations

// * * * * * * * * * * * * * * * * * * * * * * * * * * * * * * * * * * * * * //
Create time

Create mesh for time = 0

Reading transportProperties

Reading field p

Reading field U

Reading/calculating face flux field phi


Starting time loop

Time = 0.001

Courant Number mean: 0 max: 0
[OGL LOG] init_host_sparsity_pattern : 288 ms
[OGL LOG] matrix not stored update host matrix
[OGL LOG] update_host_mtx : 147 ms
[OGL LOG] matrix is not yet sorted, compute sorting idxs
[OGL LOG] compute_sort : 9069 ms
[OGL LOG] matrix is not yet sorted, sorting host matrix
[OGL LOG] sort_host_mtx_sparsity_pattern : 184 ms
[OGL LOG] sort_host_mtx : 124 ms
[OGL LOG] init_preconditioner : 0 ms
[OGL LOG] solve : 1786 ms
noneompGKOBiCGStab:  Solving for Ux, Initial residual = 1, Final residual = 9.90061e-07, No Iterations 57
[OGL LOG] init_host_sparsity_pattern : 283 ms
[OGL LOG] matrix not stored update host matrix
[OGL LOG] update_host_mtx : 153 ms
[OGL LOG] matrix is not yet sorted, sorting host matrix
[OGL LOG] sort_host_mtx_sparsity_pattern : 193 ms
[OGL LOG] sort_host_mtx : 125 ms
[OGL LOG] init_preconditioner : 0 ms
[OGL LOG] solve : 45 ms
noneompGKOBiCGStab:  Solving for Uy, Initial residual = 0, Final residual = 0, No Iterations 0
[OGL LOG] init_host_sparsity_pattern : 268 ms
[OGL LOG] matrix not stored update host matrix
[OGL LOG] update_host_mtx : 145 ms
[OGL LOG] matrix is not yet sorted, sorting host matrix
[OGL LOG] sort_host_mtx_sparsity_pattern : 194 ms
[OGL LOG] sort_host_mtx : 124 ms
[OGL LOG] init_preconditioner : 0 ms
[OGL LOG] solve : 41 ms
noneompGKOBiCGStab:  Solving for Uz, Initial residual = 0, Final residual = 0, No Iterations 0
[OGL LOG] init_host_sparsity_pattern : 288 ms
[OGL LOG] matrix not stored update host matrix
[OGL LOG] update_host_mtx : 147 ms
[OGL LOG] matrix is not yet sorted, sorting host matrix
[OGL LOG] sort_host_mtx_sparsity_pattern : 192 ms
[OGL LOG] sort_host_mtx : 125 ms
[OGL LOG] init_preconditioner : 0 ms
[OGL LOG] solve : 21651 ms
noneompGKOBiCGStab:  Solving for p, Initial residual = 1, Final residual = 1.66322e-07, No Iterations 720
time step continuity errors : sum local = 6.34017e-08, global = -5.19534e-21, cumulative = -5.19534e-21
[OGL LOG] init_preconditioner : 0 ms
[OGL LOG] solve : 20891 ms
noneompGKOBiCGStab:  Solving for p, Initial residual = 0.783639, Final residual = 8.86404e-07, No Iterations 717
time step continuity errors : sum local = 8.30848e-07, global = 7.33961e-22, cumulative = -4.46138e-21
ExecutionTime = 194.09 s  ClockTime = 61 s

Time = 0.002

Courant Number mean: 0.0571444 max: 0.804774
[OGL LOG] init_host_sparsity_pattern : 267 ms
[OGL LOG] matrix not stored update host matrix
[OGL LOG] update_host_mtx : 133 ms
[OGL LOG] matrix is not yet sorted, sorting host matrix
[OGL LOG] sort_host_mtx_sparsity_pattern : 211 ms
[OGL LOG] sort_host_mtx : 125 ms
[OGL LOG] init_preconditioner : 0 ms
[OGL LOG] solve : 1580 ms
noneompGKOBiCGStab:  Solving for Ux, Initial residual = 0.169244, Final residual = 3.84778e-07, No Iterations 52
[OGL LOG] init_host_sparsity_pattern : 267 ms
[OGL LOG] matrix not stored update host matrix
[OGL LOG] update_host_mtx : 127 ms
[OGL LOG] matrix is not yet sorted, sorting host matrix
[OGL LOG] sort_host_mtx_sparsity_pattern : 195 ms
[OGL LOG] sort_host_mtx : 126 ms
[OGL LOG] init_preconditioner : 0 ms
[OGL LOG] solve : 1548 ms
noneompGKOBiCGStab:  Solving for Uy, Initial residual = 0.620016, Final residual = 9.24637e-07, No Iterations 51
[OGL LOG] init_host_sparsity_pattern : 268 ms
[OGL LOG] matrix not stored update host matrix
[OGL LOG] update_host_mtx : 127 ms
[OGL LOG] matrix is not yet sorted, sorting host matrix
[OGL LOG] sort_host_mtx_sparsity_pattern : 195 ms
[OGL LOG] sort_host_mtx : 126 ms
[OGL LOG] init_preconditioner : 0 ms
[OGL LOG] solve : 1568 ms
noneompGKOBiCGStab:  Solving for Uz, Initial residual = 0.652803, Final residual = 6.96847e-07, No Iterations 51
[OGL LOG] init_preconditioner : 0 ms
[OGL LOG] solve : 20016 ms
noneompGKOBiCGStab:  Solving for p, Initial residual = 0.798449, Final residual = 8.58897e-07, No Iterations 655
time step continuity errors : sum local = 3.41054e-07, global = 2.52707e-21, cumulative = -1.93431e-21
[OGL LOG] init_preconditioner : 0 ms
[OGL LOG] solve : 21447 ms
noneompGKOBiCGStab:  Solving for p, Initial residual = 0.738331, Final residual = 9.99292e-07, No Iterations 698
time step continuity errors : sum local = 3.79907e-09, global = 1.18255e-20, cumulative = 9.8912e-21
ExecutionTime = 381.68 s  ClockTime = 111 s

Time = 0.003

Courant Number mean: 0.0867505 max: 0.944842
[OGL LOG] init_host_sparsity_pattern : 268 ms
[OGL LOG] matrix not stored update host matrix
[OGL LOG] update_host_mtx : 138 ms
[OGL LOG] matrix is not yet sorted, sorting host matrix
[OGL LOG] sort_host_mtx_sparsity_pattern : 200 ms
[OGL LOG] sort_host_mtx : 125 ms
[OGL LOG] init_preconditioner : 0 ms
[OGL LOG] solve : 1574 ms
noneompGKOBiCGStab:  Solving for Ux, Initial residual = 0.102752, Final residual = 5.90346e-07, No Iterations 51
[OGL LOG] init_host_sparsity_pattern : 278 ms
[OGL LOG] matrix not stored update host matrix
[OGL LOG] update_host_mtx : 146 ms
[OGL LOG] matrix is not yet sorted, sorting host matrix
[OGL LOG] sort_host_mtx_sparsity_pattern : 193 ms
[OGL LOG] sort_host_mtx : 124 ms
[OGL LOG] init_preconditioner : 0 ms
[OGL LOG] solve : 1683 ms
noneompGKOBiCGStab:  Solving for Uy, Initial residual = 0.396996, Final residual = 5.6048e-07, No Iterations 54
[OGL LOG] init_host_sparsity_pattern : 276 ms
[OGL LOG] matrix not stored update host matrix
[OGL LOG] update_host_mtx : 137 ms
[OGL LOG] matrix is not yet sorted, sorting host matrix
[OGL LOG] sort_host_mtx_sparsity_pattern : 224 ms
[OGL LOG] sort_host_mtx : 124 ms
[OGL LOG] init_preconditioner : 0 ms
[OGL LOG] solve : 1777 ms
noneompGKOBiCGStab:  Solving for Uz, Initial residual = 1.00096, Final residual = 8.59845e-07, No Iterations 58
[OGL LOG] init_preconditioner : 0 ms
[OGL LOG] solve : 25346 ms
noneompGKOBiCGStab:  Solving for p, Initial residual = 0.832685, Final residual = 8.66796e-07, No Iterations 848
time step continuity errors : sum local = 1.37732e-08, global = -1.10233e-20, cumulative = -1.13206e-21
[OGL LOG] init_preconditioner : 0 ms
[OGL LOG] solve : 21435 ms
noneompGKOBiCGStab:  Solving for p, Initial residual = 0.802999, Final residual = 9.7315e-07, No Iterations 748
time step continuity errors : sum local = 4.20272e-08, global = -6.95919e-21, cumulative = -8.09124e-21
ExecutionTime = 592.07 s  ClockTime = 167 s

Time = 0.004

Courant Number mean: 0.0995302 max: 0.926364
[OGL LOG] init_host_sparsity_pattern : 267 ms
[OGL LOG] matrix not stored update host matrix
[OGL LOG] update_host_mtx : 136 ms
[OGL LOG] matrix is not yet sorted, sorting host matrix
[OGL LOG] sort_host_mtx_sparsity_pattern : 201 ms
[OGL LOG] sort_host_mtx : 127 ms
[OGL LOG] init_preconditioner : 0 ms
[OGL LOG] solve : 1327 ms
noneompGKOBiCGStab:  Solving for Ux, Initial residual = 0.0541277, Final residual = 4.47249e-07, No Iterations 44
[OGL LOG] init_host_sparsity_pattern : 267 ms
[OGL LOG] matrix not stored update host matrix
[OGL LOG] update_host_mtx : 129 ms
[OGL LOG] matrix is not yet sorted, sorting host matrix
[OGL LOG] sort_host_mtx_sparsity_pattern : 194 ms
[OGL LOG] sort_host_mtx : 126 ms
[OGL LOG] init_preconditioner : 0 ms
[OGL LOG] solve : 1526 ms
noneompGKOBiCGStab:  Solving for Uy, Initial residual = 0.255153, Final residual = 9.86766e-07, No Iterations 50
[OGL LOG] init_host_sparsity_pattern : 284 ms
[OGL LOG] matrix not stored update host matrix
[OGL LOG] update_host_mtx : 143 ms
[OGL LOG] matrix is not yet sorted, sorting host matrix
[OGL LOG] sort_host_mtx_sparsity_pattern : 193 ms
[OGL LOG] sort_host_mtx : 126 ms
[OGL LOG] init_preconditioner : 0 ms
[OGL LOG] solve : 1630 ms
noneompGKOBiCGStab:  Solving for Uz, Initial residual = 0.873647, Final residual = 8.13418e-07, No Iterations 54
[OGL LOG] init_preconditioner : 0 ms
[OGL LOG] solve : 19935 ms
noneompGKOBiCGStab:  Solving for p, Initial residual = 0.750213, Final residual = 6.28128e-07, No Iterations 690
time step continuity errors : sum local = 8.30033e-08, global = -8.5477e-21, cumulative = -1.66389e-20
[OGL LOG] init_preconditioner : 0 ms
[OGL LOG] solve : 21812 ms
noneompGKOBiCGStab:  Solving for p, Initial residual = 0.685354, Final residual = 9.39145e-07, No Iterations 755
time step continuity errors : sum local = 1.17665e-08, global = -1.52922e-21, cumulative = -1.81682e-20
ExecutionTime = 780.3 s  ClockTime = 217 s

Time = 0.005

Courant Number mean: 0.112165 max: 0.946349
[OGL LOG] init_host_sparsity_pattern : 267 ms
[OGL LOG] matrix not stored update host matrix
[OGL LOG] update_host_mtx : 129 ms
[OGL LOG] matrix is not yet sorted, sorting host matrix
[OGL LOG] sort_host_mtx_sparsity_pattern : 213 ms
[OGL LOG] sort_host_mtx : 125 ms
[OGL LOG] init_preconditioner : 0 ms
[OGL LOG] solve : 1296 ms
noneompGKOBiCGStab:  Solving for Ux, Initial residual = 0.0411748, Final residual = 9.73094e-07, No Iterations 42
[OGL LOG] init_host_sparsity_pattern : 268 ms
[OGL LOG] matrix not stored update host matrix
[OGL LOG] update_host_mtx : 126 ms
[OGL LOG] matrix is not yet sorted, sorting host matrix
[OGL LOG] sort_host_mtx_sparsity_pattern : 193 ms
[OGL LOG] sort_host_mtx : 125 ms
[OGL LOG] init_preconditioner : 0 ms
[OGL LOG] solve : 1378 ms
noneompGKOBiCGStab:  Solving for Uy, Initial residual = 0.131913, Final residual = 7.82039e-07, No Iterations 45
[OGL LOG] init_host_sparsity_pattern : 268 ms
[OGL LOG] matrix not stored update host matrix
[OGL LOG] update_host_mtx : 127 ms
[OGL LOG] matrix is not yet sorted, sorting host matrix
[OGL LOG] sort_host_mtx_sparsity_pattern : 194 ms
[OGL LOG] sort_host_mtx : 125 ms
[OGL LOG] init_preconditioner : 0 ms
[OGL LOG] solve : 1735 ms
noneompGKOBiCGStab:  Solving for Uz, Initial residual = 0.871458, Final residual = 4.41207e-07, No Iterations 57
[OGL LOG] init_preconditioner : 0 ms
[OGL LOG] solve : 20239 ms
noneompGKOBiCGStab:  Solving for p, Initial residual = 0.760027, Final residual = 2.93403e-07, No Iterations 701
time step continuity errors : sum local = 3.65286e-08, global = 7.33254e-21, cumulative = -1.08356e-20
[OGL LOG] init_preconditioner : 0 ms
[OGL LOG] solve : 20759 ms
noneompGKOBiCGStab:  Solving for p, Initial residual = 0.713335, Final residual = 1.88225e-07, No Iterations 722
time step continuity errors : sum local = 2.94126e-08, global = 3.61486e-21, cumulative = -7.22076e-21
ExecutionTime = 965.06 s  ClockTime = 265 s

End

