/*---------------------------------------------------------------------------*\
  =========                 |
  \\      /  F ield         | OpenFOAM: The Open Source CFD Toolbox
   \\    /   O peration     | Website:  https://openfoam.org
    \\  /    A nd           | Version:  8
     \\/     M anipulation  |
\*---------------------------------------------------------------------------*/
Build  : 8-13d66902f78c
Exec   : icoFoam
Date   : Jul 12 2021
Time   : 14:55:48
Host   : "uc2n445.localdomain"
PID    : 3213963
I/O    : uncollated
Case   : /pfs/data5/home/kit/scc/nq7776/code/OGL_DATA/lidDrivenCavity3D/v0.1-136-g40fef35/f584ccac99/IntelXeonGold6230CPU@2.10GHz/Test_2021-07-12-13:12:59/75/p-U-BiCGStab-GKO-BJ-omp/lidDrivenCavity3D
nProcs : 1
sigFpe : Enabling floating point exception trapping (FOAM_SIGFPE).
fileModificationChecking : Monitoring run-time modified files using timeStampMaster (fileModificationSkew 10)
allowSystemOperations : Allowing user-supplied system call operations

// * * * * * * * * * * * * * * * * * * * * * * * * * * * * * * * * * * * * * //
Create time

Create mesh for time = 0

Reading transportProperties

Reading field p

Reading field U

Reading/calculating face flux field phi


Starting time loop

Time = 0.00133333

Courant Number mean: 0 max: 0
[OGL LOG] init_host_sparsity_pattern : 120 ms
[OGL LOG] matrix not stored update host matrix
[OGL LOG] update_host_mtx : 61 ms
[OGL LOG] matrix is not yet sorted, compute sorting idxs
[OGL LOG] compute_sort : 3635 ms
[OGL LOG] matrix is not yet sorted, sorting host matrix
[OGL LOG] sort_host_mtx_sparsity_pattern : 77 ms
[OGL LOG] sort_host_mtx : 52 ms
[OGL LOG] init_preconditioner : 26 ms
[OGL LOG] solve : 666 ms
BJompGKOBiCGStab:  Solving for Ux, Initial residual = 1, Final residual = 8.57454e-07, No Iterations 40
[OGL LOG] init_host_sparsity_pattern : 117 ms
[OGL LOG] matrix not stored update host matrix
[OGL LOG] update_host_mtx : 61 ms
[OGL LOG] matrix is not yet sorted, sorting host matrix
[OGL LOG] sort_host_mtx_sparsity_pattern : 80 ms
[OGL LOG] sort_host_mtx : 44 ms
[OGL LOG] init_preconditioner : 11 ms
[OGL LOG] solve : 17 ms
BJompGKOBiCGStab:  Solving for Uy, Initial residual = 0, Final residual = 0, No Iterations 0
[OGL LOG] init_host_sparsity_pattern : 112 ms
[OGL LOG] matrix not stored update host matrix
[OGL LOG] update_host_mtx : 53 ms
[OGL LOG] matrix is not yet sorted, sorting host matrix
[OGL LOG] sort_host_mtx_sparsity_pattern : 76 ms
[OGL LOG] sort_host_mtx : 48 ms
[OGL LOG] init_preconditioner : 10 ms
[OGL LOG] solve : 24 ms
BJompGKOBiCGStab:  Solving for Uz, Initial residual = 0, Final residual = 0, No Iterations 0
[OGL LOG] init_host_sparsity_pattern : 112 ms
[OGL LOG] matrix not stored update host matrix
[OGL LOG] update_host_mtx : 64 ms
[OGL LOG] matrix is not yet sorted, sorting host matrix
[OGL LOG] sort_host_mtx_sparsity_pattern : 85 ms
[OGL LOG] sort_host_mtx : 43 ms
[OGL LOG] init_preconditioner : 10 ms
[OGL LOG] solve : 5624 ms
BJompGKOBiCGStab:  Solving for p, Initial residual = 1, Final residual = 9.34813e-07, No Iterations 429
time step continuity errors : sum local = 5.60583e-09, global = -5.47476e-21, cumulative = -5.47476e-21
[OGL LOG] init_preconditioner : 0 ms
[OGL LOG] solve : 4849 ms
BJompGKOBiCGStab:  Solving for p, Initial residual = 0.759333, Final residual = 9.48152e-07, No Iterations 413
time step continuity errors : sum local = 4.48747e-08, global = -4.36593e-21, cumulative = -9.8407e-21
ExecutionTime = 365.52 s  ClockTime = 19 s

Time = 0.00266667

Courant Number mean: 0.0631768 max: 0.775367
[OGL LOG] init_host_sparsity_pattern : 112 ms
[OGL LOG] matrix not stored update host matrix
[OGL LOG] update_host_mtx : 53 ms
[OGL LOG] matrix is not yet sorted, sorting host matrix
[OGL LOG] sort_host_mtx_sparsity_pattern : 85 ms
[OGL LOG] sort_host_mtx : 43 ms
[OGL LOG] init_preconditioner : 0 ms
[OGL LOG] solve : 389 ms
BJompGKOBiCGStab:  Solving for Ux, Initial residual = 0.18304, Final residual = 7.80633e-07, No Iterations 28
[OGL LOG] init_host_sparsity_pattern : 116 ms
[OGL LOG] matrix not stored update host matrix
[OGL LOG] update_host_mtx : 58 ms
[OGL LOG] matrix is not yet sorted, sorting host matrix
[OGL LOG] sort_host_mtx_sparsity_pattern : 73 ms
[OGL LOG] sort_host_mtx : 43 ms
[OGL LOG] init_preconditioner : 0 ms
[OGL LOG] solve : 521 ms
BJompGKOBiCGStab:  Solving for Uy, Initial residual = 0.619623, Final residual = 9.41905e-07, No Iterations 39
[OGL LOG] init_host_sparsity_pattern : 112 ms
[OGL LOG] matrix not stored update host matrix
[OGL LOG] update_host_mtx : 54 ms
[OGL LOG] matrix is not yet sorted, sorting host matrix
[OGL LOG] sort_host_mtx_sparsity_pattern : 73 ms
[OGL LOG] sort_host_mtx : 43 ms
[OGL LOG] init_preconditioner : 0 ms
[OGL LOG] solve : 501 ms
BJompGKOBiCGStab:  Solving for Uz, Initial residual = 0.604932, Final residual = 8.54252e-07, No Iterations 37
[OGL LOG] init_preconditioner : 0 ms
[OGL LOG] solve : 5063 ms
BJompGKOBiCGStab:  Solving for p, Initial residual = 0.74912, Final residual = 9.01498e-07, No Iterations 406
time step continuity errors : sum local = 1.60409e-08, global = -1.43463e-21, cumulative = -1.12753e-20
[OGL LOG] init_preconditioner : 0 ms
[OGL LOG] solve : 4850 ms
BJompGKOBiCGStab:  Solving for p, Initial residual = 0.683894, Final residual = 9.87809e-07, No Iterations 396
time step continuity errors : sum local = 6.40656e-09, global = -2.50467e-21, cumulative = -1.378e-20
ExecutionTime = 728.69 s  ClockTime = 32 s

Time = 0.004

Courant Number mean: 0.0951463 max: 0.917098
[OGL LOG] init_host_sparsity_pattern : 112 ms
[OGL LOG] matrix not stored update host matrix
[OGL LOG] update_host_mtx : 60 ms
[OGL LOG] matrix is not yet sorted, sorting host matrix
[OGL LOG] sort_host_mtx_sparsity_pattern : 80 ms
[OGL LOG] sort_host_mtx : 43 ms
[OGL LOG] init_preconditioner : 0 ms
[OGL LOG] solve : 385 ms
BJompGKOBiCGStab:  Solving for Ux, Initial residual = 0.101947, Final residual = 8.45743e-07, No Iterations 25
[OGL LOG] init_host_sparsity_pattern : 111 ms
[OGL LOG] matrix not stored update host matrix
[OGL LOG] update_host_mtx : 53 ms
[OGL LOG] matrix is not yet sorted, sorting host matrix
[OGL LOG] sort_host_mtx_sparsity_pattern : 72 ms
[OGL LOG] sort_host_mtx : 43 ms
[OGL LOG] init_preconditioner : 0 ms
[OGL LOG] solve : 489 ms
BJompGKOBiCGStab:  Solving for Uy, Initial residual = 0.33543, Final residual = 7.96339e-07, No Iterations 37
[OGL LOG] init_host_sparsity_pattern : 114 ms
[OGL LOG] matrix not stored update host matrix
[OGL LOG] update_host_mtx : 58 ms
[OGL LOG] matrix is not yet sorted, sorting host matrix
[OGL LOG] sort_host_mtx_sparsity_pattern : 73 ms
[OGL LOG] sort_host_mtx : 44 ms
[OGL LOG] init_preconditioner : 0 ms
[OGL LOG] solve : 490 ms
BJompGKOBiCGStab:  Solving for Uz, Initial residual = 0.920636, Final residual = 9.41838e-07, No Iterations 39
[OGL LOG] init_preconditioner : 0 ms
[OGL LOG] solve : 5339 ms
BJompGKOBiCGStab:  Solving for p, Initial residual = 0.754755, Final residual = 8.8807e-07, No Iterations 422
time step continuity errors : sum local = 2.80018e-09, global = 2.54262e-20, cumulative = 1.16462e-20
[OGL LOG] init_preconditioner : 0 ms
[OGL LOG] solve : 4871 ms
BJompGKOBiCGStab:  Solving for p, Initial residual = 0.717032, Final residual = 8.1712e-07, No Iterations 405
time step continuity errors : sum local = 3.17748e-09, global = -1.57617e-20, cumulative = -4.11548e-21
ExecutionTime = 1100.5 s  ClockTime = 45 s

Time = 0.00533333

Courant Number mean: 0.109256 max: 0.913437
[OGL LOG] init_host_sparsity_pattern : 112 ms
[OGL LOG] matrix not stored update host matrix
[OGL LOG] update_host_mtx : 55 ms
[OGL LOG] matrix is not yet sorted, sorting host matrix
[OGL LOG] sort_host_mtx_sparsity_pattern : 83 ms
[OGL LOG] sort_host_mtx : 43 ms
[OGL LOG] init_preconditioner : 0 ms
[OGL LOG] solve : 389 ms
BJompGKOBiCGStab:  Solving for Ux, Initial residual = 0.0446949, Final residual = 6.77835e-07, No Iterations 27
[OGL LOG] init_host_sparsity_pattern : 112 ms
[OGL LOG] matrix not stored update host matrix
[OGL LOG] update_host_mtx : 58 ms
[OGL LOG] matrix is not yet sorted, sorting host matrix
[OGL LOG] sort_host_mtx_sparsity_pattern : 73 ms
[OGL LOG] sort_host_mtx : 43 ms
[OGL LOG] init_preconditioner : 0 ms
[OGL LOG] solve : 495 ms
BJompGKOBiCGStab:  Solving for Uy, Initial residual = 0.197566, Final residual = 9.4893e-07, No Iterations 35
[OGL LOG] init_host_sparsity_pattern : 112 ms
[OGL LOG] matrix not stored update host matrix
[OGL LOG] update_host_mtx : 55 ms
[OGL LOG] matrix is not yet sorted, sorting host matrix
[OGL LOG] sort_host_mtx_sparsity_pattern : 75 ms
[OGL LOG] sort_host_mtx : 45 ms
[OGL LOG] init_preconditioner : 0 ms
[OGL LOG] solve : 458 ms
BJompGKOBiCGStab:  Solving for Uz, Initial residual = 0.732545, Final residual = 4.98175e-07, No Iterations 34
[OGL LOG] init_preconditioner : 0 ms
[OGL LOG] solve : 5315 ms
BJompGKOBiCGStab:  Solving for p, Initial residual = 0.617344, Final residual = 8.62655e-07, No Iterations 425
time step continuity errors : sum local = 1.83346e-09, global = -4.492e-20, cumulative = -4.90355e-20
[OGL LOG] init_preconditioner : 0 ms
[OGL LOG] solve : 4772 ms
BJompGKOBiCGStab:  Solving for p, Initial residual = 0.55474, Final residual = 5.40045e-07, No Iterations 397
time step continuity errors : sum local = 2.44786e-09, global = 6.88258e-21, cumulative = -4.21529e-20
ExecutionTime = 1467.54 s  ClockTime = 57 s

Time = 0.00666667

Courant Number mean: 0.122084 max: 0.929083
[OGL LOG] init_host_sparsity_pattern : 112 ms
[OGL LOG] matrix not stored update host matrix
[OGL LOG] update_host_mtx : 55 ms
[OGL LOG] matrix is not yet sorted, sorting host matrix
[OGL LOG] sort_host_mtx_sparsity_pattern : 80 ms
[OGL LOG] sort_host_mtx : 43 ms
[OGL LOG] init_preconditioner : 0 ms
[OGL LOG] solve : 359 ms
BJompGKOBiCGStab:  Solving for Ux, Initial residual = 0.0319074, Final residual = 4.06266e-07, No Iterations 26
[OGL LOG] init_host_sparsity_pattern : 111 ms
[OGL LOG] matrix not stored update host matrix
[OGL LOG] update_host_mtx : 53 ms
[OGL LOG] matrix is not yet sorted, sorting host matrix
[OGL LOG] sort_host_mtx_sparsity_pattern : 73 ms
[OGL LOG] sort_host_mtx : 43 ms
[OGL LOG] init_preconditioner : 0 ms
[OGL LOG] solve : 486 ms
BJompGKOBiCGStab:  Solving for Uy, Initial residual = 0.0804603, Final residual = 6.10501e-07, No Iterations 35
[OGL LOG] init_host_sparsity_pattern : 112 ms
[OGL LOG] matrix not stored update host matrix
[OGL LOG] update_host_mtx : 53 ms
[OGL LOG] matrix is not yet sorted, sorting host matrix
[OGL LOG] sort_host_mtx_sparsity_pattern : 73 ms
[OGL LOG] sort_host_mtx : 43 ms
[OGL LOG] init_preconditioner : 0 ms
[OGL LOG] solve : 500 ms
BJompGKOBiCGStab:  Solving for Uz, Initial residual = 0.513571, Final residual = 8.54044e-07, No Iterations 36
[OGL LOG] init_preconditioner : 0 ms
[OGL LOG] solve : 5243 ms
BJompGKOBiCGStab:  Solving for p, Initial residual = 0.591998, Final residual = 8.98807e-07, No Iterations 432
time step continuity errors : sum local = 1.01999e-09, global = 1.26889e-21, cumulative = -4.0884e-20
[OGL LOG] init_preconditioner : 0 ms
[OGL LOG] solve : 5124 ms
BJompGKOBiCGStab:  Solving for p, Initial residual = 0.543125, Final residual = 9.33914e-07, No Iterations 428
time step continuity errors : sum local = 7.7372e-10, global = -6.14882e-21, cumulative = -4.70329e-20
ExecutionTime = 1843.67 s  ClockTime = 70 s

End

