/*---------------------------------------------------------------------------*\
  =========                 |
  \\      /  F ield         | OpenFOAM: The Open Source CFD Toolbox
   \\    /   O peration     | Website:  https://openfoam.org
    \\  /    A nd           | Version:  8
     \\/     M anipulation  |
\*---------------------------------------------------------------------------*/
Build  : 8-13d66902f78c
Exec   : icoFoam
Date   : Jul 14 2021
Time   : 03:15:23
Host   : "uc2n553.localdomain"
PID    : 764044
I/O    : uncollated
Case   : /pfs/data5/home/kit/scc/nq7776/code/OGL_DATA/lidDrivenCavity3D/v0.1-136-g40fef35/f584ccac99/IntelXeonGold6230CPU@2.10GHz/Test_2021-07-14-00:17:39/100/p-U-CG-GKO-none-omp/lidDrivenCavity3D
nProcs : 1
sigFpe : Enabling floating point exception trapping (FOAM_SIGFPE).
fileModificationChecking : Monitoring run-time modified files using timeStampMaster (fileModificationSkew 10)
allowSystemOperations : Allowing user-supplied system call operations

// * * * * * * * * * * * * * * * * * * * * * * * * * * * * * * * * * * * * * //
Create time

Create mesh for time = 0

Reading transportProperties

Reading field p

Reading field U

Reading/calculating face flux field phi


Starting time loop

Time = 0.001

Courant Number mean: 0 max: 0
[OGL LOG] init_host_sparsity_pattern : 293 ms
[OGL LOG] matrix not stored update host matrix
[OGL LOG] update_host_mtx : 146 ms
[OGL LOG] matrix is not yet sorted, compute sorting idxs
[OGL LOG] compute_sort : 8349 ms
[OGL LOG] matrix is not yet sorted, sorting host matrix
[OGL LOG] sort_host_mtx_sparsity_pattern : 193 ms
[OGL LOG] sort_host_mtx : 124 ms
[OGL LOG] init_preconditioner : 0 ms
[OGL LOG] solve : 1501 ms
noneompGKOBiCGStab:  Solving for Ux, Initial residual = 1, Final residual = 8.92714e-07, No Iterations 56
[OGL LOG] init_host_sparsity_pattern : 278 ms
[OGL LOG] matrix not stored update host matrix
[OGL LOG] update_host_mtx : 147 ms
[OGL LOG] matrix is not yet sorted, sorting host matrix
[OGL LOG] sort_host_mtx_sparsity_pattern : 193 ms
[OGL LOG] sort_host_mtx : 124 ms
[OGL LOG] init_preconditioner : 0 ms
[OGL LOG] solve : 36 ms
noneompGKOBiCGStab:  Solving for Uy, Initial residual = 0, Final residual = 0, No Iterations 0
[OGL LOG] init_host_sparsity_pattern : 266 ms
[OGL LOG] matrix not stored update host matrix
[OGL LOG] update_host_mtx : 150 ms
[OGL LOG] matrix is not yet sorted, sorting host matrix
[OGL LOG] sort_host_mtx_sparsity_pattern : 199 ms
[OGL LOG] sort_host_mtx : 127 ms
[OGL LOG] init_preconditioner : 0 ms
[OGL LOG] solve : 35 ms
noneompGKOBiCGStab:  Solving for Uz, Initial residual = 0, Final residual = 0, No Iterations 0
[OGL LOG] init_host_sparsity_pattern : 289 ms
[OGL LOG] matrix not stored update host matrix
[OGL LOG] update_host_mtx : 152 ms
[OGL LOG] matrix is not yet sorted, sorting host matrix
[OGL LOG] sort_host_mtx_sparsity_pattern : 206 ms
[OGL LOG] sort_host_mtx : 125 ms
[OGL LOG] init_preconditioner : 0 ms
[OGL LOG] solve : 10925 ms
noneompGKOCG:  Solving for p, Initial residual = 1, Final residual = 9.84208e-07, No Iterations 900
time step continuity errors : sum local = 5.90082e-10, global = -8.95303e-21, cumulative = -8.95303e-21
[OGL LOG] init_preconditioner : 0 ms
[OGL LOG] solve : 10467 ms
noneompGKOCG:  Solving for p, Initial residual = 0.783585, Final residual = 9.5502e-07, No Iterations 893
time step continuity errors : sum local = 7.1584e-10, global = 7.31783e-21, cumulative = -1.6352e-21
ExecutionTime = 1480.35 s  ClockTime = 40 s

Time = 0.002

Courant Number mean: 0.0571435 max: 0.804774
[OGL LOG] init_host_sparsity_pattern : 266 ms
[OGL LOG] matrix not stored update host matrix
[OGL LOG] update_host_mtx : 136 ms
[OGL LOG] matrix is not yet sorted, sorting host matrix
[OGL LOG] sort_host_mtx_sparsity_pattern : 199 ms
[OGL LOG] sort_host_mtx : 125 ms
[OGL LOG] init_preconditioner : 0 ms
[OGL LOG] solve : 1421 ms
noneompGKOBiCGStab:  Solving for Ux, Initial residual = 0.169075, Final residual = 5.6465e-07, No Iterations 54
[OGL LOG] init_host_sparsity_pattern : 266 ms
[OGL LOG] matrix not stored update host matrix
[OGL LOG] update_host_mtx : 127 ms
[OGL LOG] matrix is not yet sorted, sorting host matrix
[OGL LOG] sort_host_mtx_sparsity_pattern : 193 ms
[OGL LOG] sort_host_mtx : 125 ms
[OGL LOG] init_preconditioner : 0 ms
[OGL LOG] solve : 1406 ms
noneompGKOBiCGStab:  Solving for Uy, Initial residual = 0.620181, Final residual = 9.74724e-07, No Iterations 54
[OGL LOG] init_host_sparsity_pattern : 271 ms
[OGL LOG] matrix not stored update host matrix
[OGL LOG] update_host_mtx : 127 ms
[OGL LOG] matrix is not yet sorted, sorting host matrix
[OGL LOG] sort_host_mtx_sparsity_pattern : 200 ms
[OGL LOG] sort_host_mtx : 125 ms
[OGL LOG] init_preconditioner : 0 ms
[OGL LOG] solve : 1551 ms
noneompGKOBiCGStab:  Solving for Uz, Initial residual = 0.646977, Final residual = 9.30435e-07, No Iterations 59
[OGL LOG] init_preconditioner : 0 ms
[OGL LOG] solve : 10903 ms
noneompGKOCG:  Solving for p, Initial residual = 0.798451, Final residual = 9.80533e-07, No Iterations 884
time step continuity errors : sum local = 9.971e-10, global = 5.33119e-21, cumulative = 3.69599e-21
[OGL LOG] init_preconditioner : 0 ms
[OGL LOG] solve : 10867 ms
noneompGKOCG:  Solving for p, Initial residual = 0.738605, Final residual = 9.64943e-07, No Iterations 872
time step continuity errors : sum local = 1.00236e-09, global = -9.67496e-21, cumulative = -5.97897e-21
ExecutionTime = 3151.47 s  ClockTime = 69 s

Time = 0.003

Courant Number mean: 0.0867391 max: 0.944826
[OGL LOG] init_host_sparsity_pattern : 269 ms
[OGL LOG] matrix not stored update host matrix
[OGL LOG] update_host_mtx : 137 ms
[OGL LOG] matrix is not yet sorted, sorting host matrix
[OGL LOG] sort_host_mtx_sparsity_pattern : 203 ms
[OGL LOG] sort_host_mtx : 127 ms
[OGL LOG] init_preconditioner : 0 ms
[OGL LOG] solve : 1362 ms
noneompGKOBiCGStab:  Solving for Ux, Initial residual = 0.102638, Final residual = 9.06395e-07, No Iterations 45
[OGL LOG] init_host_sparsity_pattern : 267 ms
[OGL LOG] matrix not stored update host matrix
[OGL LOG] update_host_mtx : 128 ms
[OGL LOG] matrix is not yet sorted, sorting host matrix
[OGL LOG] sort_host_mtx_sparsity_pattern : 195 ms
[OGL LOG] sort_host_mtx : 127 ms
[OGL LOG] init_preconditioner : 0 ms
[OGL LOG] solve : 1374 ms
noneompGKOBiCGStab:  Solving for Uy, Initial residual = 0.396946, Final residual = 5.22601e-07, No Iterations 51
[OGL LOG] init_host_sparsity_pattern : 266 ms
[OGL LOG] matrix not stored update host matrix
[OGL LOG] update_host_mtx : 144 ms
[OGL LOG] matrix is not yet sorted, sorting host matrix
[OGL LOG] sort_host_mtx_sparsity_pattern : 193 ms
[OGL LOG] sort_host_mtx : 124 ms
[OGL LOG] init_preconditioner : 0 ms
[OGL LOG] solve : 1362 ms
noneompGKOBiCGStab:  Solving for Uz, Initial residual = 1.00087, Final residual = 4.23892e-07, No Iterations 52
[OGL LOG] init_preconditioner : 0 ms
[OGL LOG] solve : 11253 ms
noneompGKOCG:  Solving for p, Initial residual = 0.832647, Final residual = 9.53139e-07, No Iterations 890
time step continuity errors : sum local = 9.18177e-10, global = 6.81896e-21, cumulative = 8.39989e-22
[OGL LOG] init_preconditioner : 0 ms
[OGL LOG] solve : 10876 ms
noneompGKOCG:  Solving for p, Initial residual = 0.802906, Final residual = 9.86289e-07, No Iterations 888
time step continuity errors : sum local = 9.26356e-10, global = -1.45848e-22, cumulative = 6.94141e-22
ExecutionTime = 4821.03 s  ClockTime = 99 s

Time = 0.004

Courant Number mean: 0.0995267 max: 0.926351
[OGL LOG] init_host_sparsity_pattern : 267 ms
[OGL LOG] matrix not stored update host matrix
[OGL LOG] update_host_mtx : 136 ms
[OGL LOG] matrix is not yet sorted, sorting host matrix
[OGL LOG] sort_host_mtx_sparsity_pattern : 201 ms
[OGL LOG] sort_host_mtx : 127 ms
[OGL LOG] init_preconditioner : 0 ms
[OGL LOG] solve : 1204 ms
noneompGKOBiCGStab:  Solving for Ux, Initial residual = 0.0541604, Final residual = 8.45272e-07, No Iterations 46
[OGL LOG] init_host_sparsity_pattern : 268 ms
[OGL LOG] matrix not stored update host matrix
[OGL LOG] update_host_mtx : 143 ms
[OGL LOG] matrix is not yet sorted, sorting host matrix
[OGL LOG] sort_host_mtx_sparsity_pattern : 222 ms
[OGL LOG] sort_host_mtx : 157 ms
[OGL LOG] init_preconditioner : 0 ms
[OGL LOG] solve : 1386 ms
noneompGKOBiCGStab:  Solving for Uy, Initial residual = 0.255021, Final residual = 4.02329e-07, No Iterations 52
[OGL LOG] init_host_sparsity_pattern : 266 ms
[OGL LOG] matrix not stored update host matrix
[OGL LOG] update_host_mtx : 142 ms
[OGL LOG] matrix is not yet sorted, sorting host matrix
[OGL LOG] sort_host_mtx_sparsity_pattern : 195 ms
[OGL LOG] sort_host_mtx : 126 ms
[OGL LOG] init_preconditioner : 0 ms
[OGL LOG] solve : 1344 ms
noneompGKOBiCGStab:  Solving for Uz, Initial residual = 0.87301, Final residual = 7.95684e-07, No Iterations 53
[OGL LOG] init_preconditioner : 0 ms
[OGL LOG] solve : 11063 ms
noneompGKOCG:  Solving for p, Initial residual = 0.75017, Final residual = 9.60442e-07, No Iterations 889
time step continuity errors : sum local = 8.54658e-10, global = 3.22723e-21, cumulative = 3.92137e-21
[OGL LOG] init_preconditioner : 0 ms
[OGL LOG] solve : 10205 ms
noneompGKOCG:  Solving for p, Initial residual = 0.685316, Final residual = 9.85432e-07, No Iterations 886
time step continuity errors : sum local = 8.9349e-10, global = 3.03203e-21, cumulative = 6.9534e-21
ExecutionTime = 6423.7 s  ClockTime = 128 s

Time = 0.005

Courant Number mean: 0.112163 max: 0.946348
[OGL LOG] init_host_sparsity_pattern : 267 ms
[OGL LOG] matrix not stored update host matrix
[OGL LOG] update_host_mtx : 133 ms
[OGL LOG] matrix is not yet sorted, sorting host matrix
[OGL LOG] sort_host_mtx_sparsity_pattern : 214 ms
[OGL LOG] sort_host_mtx : 125 ms
[OGL LOG] init_preconditioner : 0 ms
[OGL LOG] solve : 1208 ms
noneompGKOBiCGStab:  Solving for Ux, Initial residual = 0.0411813, Final residual = 9.10571e-07, No Iterations 46
[OGL LOG] init_host_sparsity_pattern : 266 ms
[OGL LOG] matrix not stored update host matrix
[OGL LOG] update_host_mtx : 126 ms
[OGL LOG] matrix is not yet sorted, sorting host matrix
[OGL LOG] sort_host_mtx_sparsity_pattern : 193 ms
[OGL LOG] sort_host_mtx : 126 ms
[OGL LOG] init_preconditioner : 0 ms
[OGL LOG] solve : 1239 ms
noneompGKOBiCGStab:  Solving for Uy, Initial residual = 0.131859, Final residual = 9.35327e-07, No Iterations 47
[OGL LOG] init_host_sparsity_pattern : 278 ms
[OGL LOG] matrix not stored update host matrix
[OGL LOG] update_host_mtx : 141 ms
[OGL LOG] matrix is not yet sorted, sorting host matrix
[OGL LOG] sort_host_mtx_sparsity_pattern : 193 ms
[OGL LOG] sort_host_mtx : 126 ms
[OGL LOG] init_preconditioner : 0 ms
[OGL LOG] solve : 1441 ms
noneompGKOBiCGStab:  Solving for Uz, Initial residual = 0.871786, Final residual = 5.84827e-07, No Iterations 54
[OGL LOG] init_preconditioner : 0 ms
[OGL LOG] solve : 10741 ms
noneompGKOCG:  Solving for p, Initial residual = 0.760002, Final residual = 9.99861e-07, No Iterations 895
time step continuity errors : sum local = 7.5601e-10, global = 5.27675e-21, cumulative = 1.22302e-20
[OGL LOG] init_preconditioner : 0 ms
[OGL LOG] solve : 11005 ms
noneompGKOCG:  Solving for p, Initial residual = 0.713347, Final residual = 9.78806e-07, No Iterations 894
time step continuity errors : sum local = 7.28277e-10, global = 5.3134e-21, cumulative = 1.75436e-20
ExecutionTime = 8061.26 s  ClockTime = 157 s

End

