/*---------------------------------------------------------------------------*\
  =========                 |
  \\      /  F ield         | OpenFOAM: The Open Source CFD Toolbox
   \\    /   O peration     | Website:  https://openfoam.org
    \\  /    A nd           | Version:  8
     \\/     M anipulation  |
\*---------------------------------------------------------------------------*/
Build  : 8-13d66902f78c
Exec   : icoFoam
Date   : Jul 13 2021
Time   : 22:20:23
Host   : "uc2n525.localdomain"
PID    : 3750769
I/O    : uncollated
Case   : /pfs/data5/home/kit/scc/nq7776/code/OGL_DATA/lidDrivenCavity3D/v0.1-136-g40fef35/f584ccac99/IntelXeonGold6230CPU@2.10GHz/Test_2021-07-13-22:16:26/25/p-BiCGStab-GKO-none-omp/lidDrivenCavity3D
nProcs : 1
sigFpe : Enabling floating point exception trapping (FOAM_SIGFPE).
fileModificationChecking : Monitoring run-time modified files using timeStampMaster (fileModificationSkew 10)
allowSystemOperations : Allowing user-supplied system call operations

// * * * * * * * * * * * * * * * * * * * * * * * * * * * * * * * * * * * * * //
Create time

Create mesh for time = 0

Reading transportProperties

Reading field p

Reading field U

Reading/calculating face flux field phi


Starting time loop

Time = 0.004

Courant Number mean: 0 max: 0
nonePBiCGStab:  Solving for Ux, Initial residual = 1, Final residual = 0.0337517, No Iterations 5
nonePBiCGStab:  Solving for Uy, Initial residual = 0, Final residual = 0, No Iterations 0
nonePBiCGStab:  Solving for Uz, Initial residual = 0, Final residual = 0, No Iterations 0
[OGL LOG] init_host_sparsity_pattern : 4 ms
[OGL LOG] matrix not stored update host matrix
[OGL LOG] update_host_mtx : 2 ms
[OGL LOG] matrix is not yet sorted, compute sorting idxs
[OGL LOG] compute_sort : 97 ms
[OGL LOG] matrix is not yet sorted, sorting host matrix
[OGL LOG] sort_host_mtx_sparsity_pattern : 2 ms
[OGL LOG] sort_host_mtx : 1 ms
[OGL LOG] init_preconditioner : 0 ms
[OGL LOG] solve : 82 ms
noneompGKOBiCGStab:  Solving for p, Initial residual = 1, Final residual = 8.85604e-07, No Iterations 176
time step continuity errors : sum local = 2.821e-08, global = 2.53614e-21, cumulative = 2.53614e-21
[OGL LOG] init_preconditioner : 0 ms
[OGL LOG] solve : 67 ms
noneompGKOBiCGStab:  Solving for p, Initial residual = 0.622286, Final residual = 9.71121e-07, No Iterations 171
time step continuity errors : sum local = 2.81738e-08, global = 3.79056e-20, cumulative = 4.04417e-20
ExecutionTime = 1.47 s  ClockTime = 1 s

Time = 0.008

Courant Number mean: 0.084228 max: 0.621061
nonePBiCGStab:  Solving for Ux, Initial residual = 0.14959, Final residual = 0.00942691, No Iterations 5
nonePBiCGStab:  Solving for Uy, Initial residual = 0.281195, Final residual = 0.0142203, No Iterations 5
nonePBiCGStab:  Solving for Uz, Initial residual = 0.933286, Final residual = 0.0511131, No Iterations 5
[OGL LOG] init_preconditioner : 0 ms
[OGL LOG] solve : 63 ms
noneompGKOBiCGStab:  Solving for p, Initial residual = 0.518044, Final residual = 9.317e-07, No Iterations 162
time step continuity errors : sum local = 9.8066e-09, global = -9.21133e-20, cumulative = -5.16716e-20
[OGL LOG] init_preconditioner : 0 ms
[OGL LOG] solve : 66 ms
noneompGKOBiCGStab:  Solving for p, Initial residual = 0.415895, Final residual = 7.91585e-07, No Iterations 170
time step continuity errors : sum local = 3.78101e-08, global = -2.13279e-20, cumulative = -7.29995e-20
ExecutionTime = 2.58 s  ClockTime = 1 s

Time = 0.012

Courant Number mean: 0.124051 max: 0.792234
nonePBiCGStab:  Solving for Ux, Initial residual = 0.0424994, Final residual = 0.00204628, No Iterations 5
nonePBiCGStab:  Solving for Uy, Initial residual = 0.0761475, Final residual = 0.00263679, No Iterations 5
nonePBiCGStab:  Solving for Uz, Initial residual = 0.142697, Final residual = 0.0066834, No Iterations 5
[OGL LOG] init_preconditioner : 0 ms
[OGL LOG] solve : 76 ms
noneompGKOBiCGStab:  Solving for p, Initial residual = 0.279196, Final residual = 9.08444e-07, No Iterations 169
time step continuity errors : sum local = 1.89428e-07, global = 9.03984e-20, cumulative = 1.73989e-20
[OGL LOG] init_preconditioner : 0 ms
[OGL LOG] solve : 85 ms
noneompGKOBiCGStab:  Solving for p, Initial residual = 0.224061, Final residual = 7.9925e-07, No Iterations 170
time step continuity errors : sum local = 1.05292e-08, global = 7.2525e-20, cumulative = 8.99239e-20
ExecutionTime = 3.94 s  ClockTime = 1 s

Time = 0.016

Courant Number mean: 0.142529 max: 0.824384
nonePBiCGStab:  Solving for Ux, Initial residual = 0.0219012, Final residual = 0.000752869, No Iterations 5
nonePBiCGStab:  Solving for Uy, Initial residual = 0.0474746, Final residual = 0.000975532, No Iterations 5
nonePBiCGStab:  Solving for Uz, Initial residual = 0.0926334, Final residual = 0.00331897, No Iterations 5
[OGL LOG] init_preconditioner : 0 ms
[OGL LOG] solve : 83 ms
noneompGKOBiCGStab:  Solving for p, Initial residual = 0.138543, Final residual = 7.19385e-07, No Iterations 163
time step continuity errors : sum local = 4.20761e-08, global = -9.60826e-20, cumulative = -6.15867e-21
[OGL LOG] init_preconditioner : 0 ms
[OGL LOG] solve : 79 ms
noneompGKOBiCGStab:  Solving for p, Initial residual = 0.10656, Final residual = 9.24488e-07, No Iterations 158
time step continuity errors : sum local = 1.29232e-07, global = -3.46123e-20, cumulative = -4.0771e-20
ExecutionTime = 5.3 s  ClockTime = 1 s

Time = 0.02

Courant Number mean: 0.154857 max: 0.843613
nonePBiCGStab:  Solving for Ux, Initial residual = 0.0136608, Final residual = 0.000405792, No Iterations 5
nonePBiCGStab:  Solving for Uy, Initial residual = 0.0288101, Final residual = 0.000728166, No Iterations 5
nonePBiCGStab:  Solving for Uz, Initial residual = 0.0552574, Final residual = 0.00178422, No Iterations 5
[OGL LOG] init_preconditioner : 0 ms
[OGL LOG] solve : 82 ms
noneompGKOBiCGStab:  Solving for p, Initial residual = 0.0654426, Final residual = 8.20929e-07, No Iterations 163
time step continuity errors : sum local = 3.30375e-08, global = -3.71507e-20, cumulative = -7.79218e-20
[OGL LOG] init_preconditioner : 0 ms
[OGL LOG] solve : 77 ms
noneompGKOBiCGStab:  Solving for p, Initial residual = 0.0510799, Final residual = 5.01519e-07, No Iterations 154
time step continuity errors : sum local = 1.22588e-07, global = 9.91947e-20, cumulative = 2.12729e-20
ExecutionTime = 6.63 s  ClockTime = 1 s

End

