/*---------------------------------------------------------------------------*\
  =========                 |
  \\      /  F ield         | OpenFOAM: The Open Source CFD Toolbox
   \\    /   O peration     | Website:  https://openfoam.org
    \\  /    A nd           | Version:  8
     \\/     M anipulation  |
\*---------------------------------------------------------------------------*/
Build  : 8-13d66902f78c
Exec   : icoFoam
Date   : Jul 14 2021
Time   : 03:32:10
Host   : "uc2n398.localdomain"
PID    : 550373
I/O    : uncollated
Case   : /pfs/data5/home/kit/scc/nq7776/code/OGL_DATA/lidDrivenCavity3D/v0.1-136-g40fef35/f584ccac99/IntelXeonGold6230CPU@2.10GHz/Test_2021-07-14-01:40:40/75/p-U-BiCGStab-GKO-BJ-omp/lidDrivenCavity3D
nProcs : 1
sigFpe : Enabling floating point exception trapping (FOAM_SIGFPE).
fileModificationChecking : Monitoring run-time modified files using timeStampMaster (fileModificationSkew 10)
allowSystemOperations : Allowing user-supplied system call operations

// * * * * * * * * * * * * * * * * * * * * * * * * * * * * * * * * * * * * * //
Create time

Create mesh for time = 0

Reading transportProperties

Reading field p

Reading field U

Reading/calculating face flux field phi


Starting time loop

Time = 0.00133333

Courant Number mean: 0 max: 0
[OGL LOG] init_host_sparsity_pattern : 121 ms
[OGL LOG] matrix not stored update host matrix
[OGL LOG] update_host_mtx : 61 ms
[OGL LOG] matrix is not yet sorted, compute sorting idxs
[OGL LOG] compute_sort : 3352 ms
[OGL LOG] matrix is not yet sorted, sorting host matrix
[OGL LOG] sort_host_mtx_sparsity_pattern : 81 ms
[OGL LOG] sort_host_mtx : 52 ms
[OGL LOG] init_preconditioner : 17 ms
[OGL LOG] solve : 765 ms
BJompGKOBiCGStab:  Solving for Ux, Initial residual = 1, Final residual = 8.05502e-07, No Iterations 44
[OGL LOG] init_host_sparsity_pattern : 117 ms
[OGL LOG] matrix not stored update host matrix
[OGL LOG] update_host_mtx : 61 ms
[OGL LOG] matrix is not yet sorted, sorting host matrix
[OGL LOG] sort_host_mtx_sparsity_pattern : 80 ms
[OGL LOG] sort_host_mtx : 44 ms
[OGL LOG] init_preconditioner : 16 ms
[OGL LOG] solve : 16 ms
BJompGKOBiCGStab:  Solving for Uy, Initial residual = 0, Final residual = 0, No Iterations 0
[OGL LOG] init_host_sparsity_pattern : 113 ms
[OGL LOG] matrix not stored update host matrix
[OGL LOG] update_host_mtx : 53 ms
[OGL LOG] matrix is not yet sorted, sorting host matrix
[OGL LOG] sort_host_mtx_sparsity_pattern : 76 ms
[OGL LOG] sort_host_mtx : 47 ms
[OGL LOG] init_preconditioner : 17 ms
[OGL LOG] solve : 16 ms
BJompGKOBiCGStab:  Solving for Uz, Initial residual = 0, Final residual = 0, No Iterations 0
[OGL LOG] init_host_sparsity_pattern : 114 ms
[OGL LOG] matrix not stored update host matrix
[OGL LOG] update_host_mtx : 62 ms
[OGL LOG] matrix is not yet sorted, sorting host matrix
[OGL LOG] sort_host_mtx_sparsity_pattern : 80 ms
[OGL LOG] sort_host_mtx : 43 ms
[OGL LOG] init_preconditioner : 17 ms
[OGL LOG] solve : 6323 ms
BJompGKOBiCGStab:  Solving for p, Initial residual = 1, Final residual = 9.90854e-07, No Iterations 491
time step continuity errors : sum local = 3.03224e-07, global = 1.39987e-21, cumulative = 1.39987e-21
[OGL LOG] init_preconditioner : 0 ms
[OGL LOG] solve : 6069 ms
BJompGKOBiCGStab:  Solving for p, Initial residual = 0.759327, Final residual = 9.40614e-07, No Iterations 484
time step continuity errors : sum local = 9.72027e-08, global = 7.22936e-21, cumulative = 8.62923e-21
ExecutionTime = 218.34 s  ClockTime = 20 s

Time = 0.00266667

Courant Number mean: 0.0631769 max: 0.775391
[OGL LOG] init_host_sparsity_pattern : 112 ms
[OGL LOG] matrix not stored update host matrix
[OGL LOG] update_host_mtx : 56 ms
[OGL LOG] matrix is not yet sorted, sorting host matrix
[OGL LOG] sort_host_mtx_sparsity_pattern : 88 ms
[OGL LOG] sort_host_mtx : 44 ms
[OGL LOG] init_preconditioner : 0 ms
[OGL LOG] solve : 657 ms
BJompGKOBiCGStab:  Solving for Ux, Initial residual = 0.183019, Final residual = 3.05194e-07, No Iterations 48
[OGL LOG] init_host_sparsity_pattern : 112 ms
[OGL LOG] matrix not stored update host matrix
[OGL LOG] update_host_mtx : 60 ms
[OGL LOG] matrix is not yet sorted, sorting host matrix
[OGL LOG] sort_host_mtx_sparsity_pattern : 73 ms
[OGL LOG] sort_host_mtx : 44 ms
[OGL LOG] init_preconditioner : 0 ms
[OGL LOG] solve : 643 ms
BJompGKOBiCGStab:  Solving for Uy, Initial residual = 0.61964, Final residual = 7.46992e-07, No Iterations 46
[OGL LOG] init_host_sparsity_pattern : 116 ms
[OGL LOG] matrix not stored update host matrix
[OGL LOG] update_host_mtx : 65 ms
[OGL LOG] matrix is not yet sorted, sorting host matrix
[OGL LOG] sort_host_mtx_sparsity_pattern : 73 ms
[OGL LOG] sort_host_mtx : 44 ms
[OGL LOG] init_preconditioner : 0 ms
[OGL LOG] solve : 670 ms
BJompGKOBiCGStab:  Solving for Uz, Initial residual = 0.604391, Final residual = 2.90542e-07, No Iterations 49
[OGL LOG] init_preconditioner : 0 ms
[OGL LOG] solve : 6443 ms
BJompGKOBiCGStab:  Solving for p, Initial residual = 0.749109, Final residual = 3.883e-07, No Iterations 519
time step continuity errors : sum local = 1.18495e-09, global = 1.02326e-20, cumulative = 1.88619e-20
[OGL LOG] init_preconditioner : 0 ms
[OGL LOG] solve : 5904 ms
BJompGKOBiCGStab:  Solving for p, Initial residual = 0.683931, Final residual = 5.59012e-07, No Iterations 485
time step continuity errors : sum local = 1.24264e-07, global = 8.43357e-21, cumulative = 2.72954e-20
ExecutionTime = 448.4 s  ClockTime = 36 s

Time = 0.004

Courant Number mean: 0.095146 max: 0.917121
[OGL LOG] init_host_sparsity_pattern : 113 ms
[OGL LOG] matrix not stored update host matrix
[OGL LOG] update_host_mtx : 55 ms
[OGL LOG] matrix is not yet sorted, sorting host matrix
[OGL LOG] sort_host_mtx_sparsity_pattern : 80 ms
[OGL LOG] sort_host_mtx : 43 ms
[OGL LOG] init_preconditioner : 0 ms
[OGL LOG] solve : 554 ms
BJompGKOBiCGStab:  Solving for Ux, Initial residual = 0.101923, Final residual = 8.39521e-07, No Iterations 42
[OGL LOG] init_host_sparsity_pattern : 112 ms
[OGL LOG] matrix not stored update host matrix
[OGL LOG] update_host_mtx : 54 ms
[OGL LOG] matrix is not yet sorted, sorting host matrix
[OGL LOG] sort_host_mtx_sparsity_pattern : 73 ms
[OGL LOG] sort_host_mtx : 43 ms
[OGL LOG] init_preconditioner : 0 ms
[OGL LOG] solve : 657 ms
BJompGKOBiCGStab:  Solving for Uy, Initial residual = 0.335524, Final residual = 3.05553e-07, No Iterations 50
[OGL LOG] init_host_sparsity_pattern : 112 ms
[OGL LOG] matrix not stored update host matrix
[OGL LOG] update_host_mtx : 53 ms
[OGL LOG] matrix is not yet sorted, sorting host matrix
[OGL LOG] sort_host_mtx_sparsity_pattern : 73 ms
[OGL LOG] sort_host_mtx : 43 ms
[OGL LOG] init_preconditioner : 0 ms
[OGL LOG] solve : 566 ms
BJompGKOBiCGStab:  Solving for Uz, Initial residual = 0.920873, Final residual = 9.45796e-07, No Iterations 43
[OGL LOG] init_preconditioner : 0 ms
[OGL LOG] solve : 6890 ms
BJompGKOBiCGStab:  Solving for p, Initial residual = 0.754717, Final residual = 9.63359e-07, No Iterations 567
time step continuity errors : sum local = 2.94031e-08, global = 1.32452e-20, cumulative = 4.05407e-20
[OGL LOG] init_preconditioner : 0 ms
[OGL LOG] solve : 6110 ms
BJompGKOBiCGStab:  Solving for p, Initial residual = 0.717075, Final residual = 9.85196e-07, No Iterations 491
time step continuity errors : sum local = 2.65464e-09, global = 1.94336e-21, cumulative = 4.2484e-20
ExecutionTime = 686.03 s  ClockTime = 52 s

Time = 0.00533333

Courant Number mean: 0.109256 max: 0.913462
[OGL LOG] init_host_sparsity_pattern : 112 ms
[OGL LOG] matrix not stored update host matrix
[OGL LOG] update_host_mtx : 57 ms
[OGL LOG] matrix is not yet sorted, sorting host matrix
[OGL LOG] sort_host_mtx_sparsity_pattern : 81 ms
[OGL LOG] sort_host_mtx : 44 ms
[OGL LOG] init_preconditioner : 0 ms
[OGL LOG] solve : 533 ms
BJompGKOBiCGStab:  Solving for Ux, Initial residual = 0.0446928, Final residual = 9.37349e-07, No Iterations 40
[OGL LOG] init_host_sparsity_pattern : 112 ms
[OGL LOG] matrix not stored update host matrix
[OGL LOG] update_host_mtx : 54 ms
[OGL LOG] matrix is not yet sorted, sorting host matrix
[OGL LOG] sort_host_mtx_sparsity_pattern : 73 ms
[OGL LOG] sort_host_mtx : 44 ms
[OGL LOG] init_preconditioner : 0 ms
[OGL LOG] solve : 525 ms
BJompGKOBiCGStab:  Solving for Uy, Initial residual = 0.197565, Final residual = 9.9952e-07, No Iterations 39
[OGL LOG] init_host_sparsity_pattern : 112 ms
[OGL LOG] matrix not stored update host matrix
[OGL LOG] update_host_mtx : 54 ms
[OGL LOG] matrix is not yet sorted, sorting host matrix
[OGL LOG] sort_host_mtx_sparsity_pattern : 73 ms
[OGL LOG] sort_host_mtx : 44 ms
[OGL LOG] init_preconditioner : 0 ms
[OGL LOG] solve : 603 ms
BJompGKOBiCGStab:  Solving for Uz, Initial residual = 0.73337, Final residual = 7.01326e-07, No Iterations 45
[OGL LOG] init_preconditioner : 0 ms
[OGL LOG] solve : 6396 ms
BJompGKOBiCGStab:  Solving for p, Initial residual = 0.617337, Final residual = 1.71218e-07, No Iterations 502
time step continuity errors : sum local = 7.33701e-09, global = 4.01133e-21, cumulative = 4.64954e-20
[OGL LOG] init_preconditioner : 0 ms
[OGL LOG] solve : 6248 ms
BJompGKOBiCGStab:  Solving for p, Initial residual = 0.554721, Final residual = 8.8938e-07, No Iterations 481
time step continuity errors : sum local = 1.08679e-09, global = -1.02635e-20, cumulative = 3.62318e-20
ExecutionTime = 916.23 s  ClockTime = 68 s

Time = 0.00666667

Courant Number mean: 0.122085 max: 0.929107
[OGL LOG] init_host_sparsity_pattern : 112 ms
[OGL LOG] matrix not stored update host matrix
[OGL LOG] update_host_mtx : 54 ms
[OGL LOG] matrix is not yet sorted, sorting host matrix
[OGL LOG] sort_host_mtx_sparsity_pattern : 74 ms
[OGL LOG] sort_host_mtx : 44 ms
[OGL LOG] init_preconditioner : 0 ms
[OGL LOG] solve : 478 ms
BJompGKOBiCGStab:  Solving for Ux, Initial residual = 0.0319116, Final residual = 6.43224e-07, No Iterations 37
[OGL LOG] init_host_sparsity_pattern : 113 ms
[OGL LOG] matrix not stored update host matrix
[OGL LOG] update_host_mtx : 54 ms
[OGL LOG] matrix is not yet sorted, sorting host matrix
[OGL LOG] sort_host_mtx_sparsity_pattern : 73 ms
[OGL LOG] sort_host_mtx : 44 ms
[OGL LOG] init_preconditioner : 0 ms
[OGL LOG] solve : 434 ms
BJompGKOBiCGStab:  Solving for Uy, Initial residual = 0.0804308, Final residual = 8.73569e-07, No Iterations 33
[OGL LOG] init_host_sparsity_pattern : 112 ms
[OGL LOG] matrix not stored update host matrix
[OGL LOG] update_host_mtx : 53 ms
[OGL LOG] matrix is not yet sorted, sorting host matrix
[OGL LOG] sort_host_mtx_sparsity_pattern : 73 ms
[OGL LOG] sort_host_mtx : 44 ms
[OGL LOG] init_preconditioner : 0 ms
[OGL LOG] solve : 566 ms
BJompGKOBiCGStab:  Solving for Uz, Initial residual = 0.514125, Final residual = 9.48274e-07, No Iterations 44
[OGL LOG] init_preconditioner : 0 ms
[OGL LOG] solve : 6899 ms
BJompGKOBiCGStab:  Solving for p, Initial residual = 0.591991, Final residual = 9.73963e-07, No Iterations 536
time step continuity errors : sum local = 2.86396e-09, global = 4.32474e-21, cumulative = 4.05566e-20
[OGL LOG] init_preconditioner : 0 ms
[OGL LOG] solve : 3675 ms
BJompGKOBiCGStab:  Solving for p, Initial residual = 0.543131, Final residual = 9.91323e-07, No Iterations 284
time step continuity errors : sum local = 1.20691e-09, global = 1.10393e-20, cumulative = 5.15959e-20
ExecutionTime = 1110.32 s  ClockTime = 81 s

End

