/*---------------------------------------------------------------------------*\
  =========                 |
  \\      /  F ield         | OpenFOAM: The Open Source CFD Toolbox
   \\    /   O peration     | Website:  https://openfoam.org
    \\  /    A nd           | Version:  8
     \\/     M anipulation  |
\*---------------------------------------------------------------------------*/
Build  : 8-13d66902f78c
Exec   : icoFoam
Date   : Jul 12 2021
Time   : 14:27:24
Host   : "uc2n448.localdomain"
PID    : 417155
I/O    : uncollated
Case   : /pfs/data5/home/kit/scc/nq7776/code/OGL_DATA/lidDrivenCavity3D/v0.1-136-g40fef35/f584ccac99/IntelXeonGold6230CPU@2.10GHz/Test_2021-07-12-13:00:18/75/p-U-CG-GKO-BJ-omp/lidDrivenCavity3D
nProcs : 1
sigFpe : Enabling floating point exception trapping (FOAM_SIGFPE).
fileModificationChecking : Monitoring run-time modified files using timeStampMaster (fileModificationSkew 10)
allowSystemOperations : Allowing user-supplied system call operations

// * * * * * * * * * * * * * * * * * * * * * * * * * * * * * * * * * * * * * //
Create time

Create mesh for time = 0

Reading transportProperties

Reading field p

Reading field U

Reading/calculating face flux field phi


Starting time loop

Time = 0.00133333

Courant Number mean: 0 max: 0
[OGL LOG] init_host_sparsity_pattern : 121 ms
[OGL LOG] matrix not stored update host matrix
[OGL LOG] update_host_mtx : 61 ms
[OGL LOG] matrix is not yet sorted, compute sorting idxs
[OGL LOG] compute_sort : 3648 ms
[OGL LOG] matrix is not yet sorted, sorting host matrix
[OGL LOG] sort_host_mtx_sparsity_pattern : 78 ms
[OGL LOG] sort_host_mtx : 54 ms
[OGL LOG] init_preconditioner : 19 ms
[OGL LOG] solve : 719 ms
BJompGKOBiCGStab:  Solving for Ux, Initial residual = 1, Final residual = 8.57454e-07, No Iterations 40
[OGL LOG] init_host_sparsity_pattern : 117 ms
[OGL LOG] matrix not stored update host matrix
[OGL LOG] update_host_mtx : 61 ms
[OGL LOG] matrix is not yet sorted, sorting host matrix
[OGL LOG] sort_host_mtx_sparsity_pattern : 80 ms
[OGL LOG] sort_host_mtx : 45 ms
[OGL LOG] init_preconditioner : 8 ms
[OGL LOG] solve : 17 ms
BJompGKOBiCGStab:  Solving for Uy, Initial residual = 0, Final residual = 0, No Iterations 0
[OGL LOG] init_host_sparsity_pattern : 112 ms
[OGL LOG] matrix not stored update host matrix
[OGL LOG] update_host_mtx : 53 ms
[OGL LOG] matrix is not yet sorted, sorting host matrix
[OGL LOG] sort_host_mtx_sparsity_pattern : 76 ms
[OGL LOG] sort_host_mtx : 49 ms
[OGL LOG] init_preconditioner : 8 ms
[OGL LOG] solve : 17 ms
BJompGKOBiCGStab:  Solving for Uz, Initial residual = 0, Final residual = 0, No Iterations 0
[OGL LOG] init_host_sparsity_pattern : 116 ms
[OGL LOG] matrix not stored update host matrix
[OGL LOG] update_host_mtx : 64 ms
[OGL LOG] matrix is not yet sorted, sorting host matrix
[OGL LOG] sort_host_mtx_sparsity_pattern : 82 ms
[OGL LOG] sort_host_mtx : 44 ms
[OGL LOG] init_preconditioner : 10 ms
 CG create  precond 
[OGL LOG] solve : 4090 ms
BJompGKOCG:  Solving for p, Initial residual = 1, Final residual = 9.42284e-07, No Iterations 578
time step continuity errors : sum local = 8.60698e-10, global = -8.69e-22, cumulative = -8.69e-22
[OGL LOG] init_preconditioner : 0 ms
 CG create  precond 
[OGL LOG] solve : 3596 ms
BJompGKOCG:  Solving for p, Initial residual = 0.759329, Final residual = 9.81626e-07, No Iterations 571
time step continuity errors : sum local = 1.14781e-09, global = 2.1662e-21, cumulative = 1.2972e-21
ExecutionTime = 548.19 s  ClockTime = 15 s

Time = 0.00266667

Courant Number mean: 0.0631768 max: 0.775367
[OGL LOG] init_host_sparsity_pattern : 116 ms
[OGL LOG] matrix not stored update host matrix
[OGL LOG] update_host_mtx : 58 ms
[OGL LOG] matrix is not yet sorted, sorting host matrix
[OGL LOG] sort_host_mtx_sparsity_pattern : 79 ms
[OGL LOG] sort_host_mtx : 45 ms
[OGL LOG] init_preconditioner : 0 ms
[OGL LOG] solve : 471 ms
BJompGKOBiCGStab:  Solving for Ux, Initial residual = 0.183034, Final residual = 7.80716e-07, No Iterations 28
[OGL LOG] init_host_sparsity_pattern : 112 ms
[OGL LOG] matrix not stored update host matrix
[OGL LOG] update_host_mtx : 54 ms
[OGL LOG] matrix is not yet sorted, sorting host matrix
[OGL LOG] sort_host_mtx_sparsity_pattern : 81 ms
[OGL LOG] sort_host_mtx : 45 ms
[OGL LOG] init_preconditioner : 0 ms
[OGL LOG] solve : 559 ms
BJompGKOBiCGStab:  Solving for Uy, Initial residual = 0.619629, Final residual = 9.4185e-07, No Iterations 39
[OGL LOG] init_host_sparsity_pattern : 112 ms
[OGL LOG] matrix not stored update host matrix
[OGL LOG] update_host_mtx : 67 ms
[OGL LOG] matrix is not yet sorted, sorting host matrix
[OGL LOG] sort_host_mtx_sparsity_pattern : 73 ms
[OGL LOG] sort_host_mtx : 45 ms
[OGL LOG] init_preconditioner : 0 ms
[OGL LOG] solve : 635 ms
BJompGKOBiCGStab:  Solving for Uz, Initial residual = 0.604718, Final residual = 8.02962e-07, No Iterations 37
[OGL LOG] init_preconditioner : 0 ms
 CG create  precond 
[OGL LOG] solve : 4317 ms
BJompGKOCG:  Solving for p, Initial residual = 0.749131, Final residual = 9.60224e-07, No Iterations 573
time step continuity errors : sum local = 1.36719e-09, global = -4.2619e-21, cumulative = -2.9647e-21
[OGL LOG] init_preconditioner : 0 ms
 CG create  precond 
[OGL LOG] solve : 4348 ms
BJompGKOCG:  Solving for p, Initial residual = 0.683908, Final residual = 9.38557e-07, No Iterations 572
time step continuity errors : sum local = 1.36578e-09, global = -1.55437e-20, cumulative = -1.85084e-20
ExecutionTime = 1209.35 s  ClockTime = 27 s

Time = 0.004

Courant Number mean: 0.095146 max: 0.917097
[OGL LOG] init_host_sparsity_pattern : 113 ms
[OGL LOG] matrix not stored update host matrix
[OGL LOG] update_host_mtx : 58 ms
[OGL LOG] matrix is not yet sorted, sorting host matrix
[OGL LOG] sort_host_mtx_sparsity_pattern : 80 ms
[OGL LOG] sort_host_mtx : 45 ms
[OGL LOG] init_preconditioner : 0 ms
[OGL LOG] solve : 388 ms
BJompGKOBiCGStab:  Solving for Ux, Initial residual = 0.101944, Final residual = 8.39997e-07, No Iterations 25
[OGL LOG] init_host_sparsity_pattern : 112 ms
[OGL LOG] matrix not stored update host matrix
[OGL LOG] update_host_mtx : 54 ms
[OGL LOG] matrix is not yet sorted, sorting host matrix
[OGL LOG] sort_host_mtx_sparsity_pattern : 73 ms
[OGL LOG] sort_host_mtx : 45 ms
[OGL LOG] init_preconditioner : 0 ms
[OGL LOG] solve : 525 ms
BJompGKOBiCGStab:  Solving for Uy, Initial residual = 0.335433, Final residual = 8.21467e-07, No Iterations 38
[OGL LOG] init_host_sparsity_pattern : 112 ms
[OGL LOG] matrix not stored update host matrix
[OGL LOG] update_host_mtx : 54 ms
[OGL LOG] matrix is not yet sorted, sorting host matrix
[OGL LOG] sort_host_mtx_sparsity_pattern : 73 ms
[OGL LOG] sort_host_mtx : 45 ms
[OGL LOG] init_preconditioner : 0 ms
[OGL LOG] solve : 540 ms
BJompGKOBiCGStab:  Solving for Uz, Initial residual = 0.920729, Final residual = 6.1267e-07, No Iterations 39
[OGL LOG] init_preconditioner : 0 ms
 CG create  precond 
[OGL LOG] solve : 4494 ms
BJompGKOCG:  Solving for p, Initial residual = 0.754752, Final residual = 9.84804e-07, No Iterations 617
time step continuity errors : sum local = 1.15768e-09, global = 3.52695e-20, cumulative = 1.67611e-20
[OGL LOG] init_preconditioner : 0 ms
 CG create  precond 
[OGL LOG] solve : 4482 ms
BJompGKOCG:  Solving for p, Initial residual = 0.717018, Final residual = 9.7376e-07, No Iterations 617
time step continuity errors : sum local = 1.11078e-09, global = 2.51155e-20, cumulative = 4.18766e-20
ExecutionTime = 1878.65 s  ClockTime = 39 s

Time = 0.00533333

Courant Number mean: 0.109256 max: 0.913435
[OGL LOG] init_host_sparsity_pattern : 112 ms
[OGL LOG] matrix not stored update host matrix
[OGL LOG] update_host_mtx : 58 ms
[OGL LOG] matrix is not yet sorted, sorting host matrix
[OGL LOG] sort_host_mtx_sparsity_pattern : 90 ms
[OGL LOG] sort_host_mtx : 45 ms
[OGL LOG] init_preconditioner : 0 ms
[OGL LOG] solve : 444 ms
BJompGKOBiCGStab:  Solving for Ux, Initial residual = 0.0446964, Final residual = 6.59929e-07, No Iterations 27
[OGL LOG] init_host_sparsity_pattern : 117 ms
[OGL LOG] matrix not stored update host matrix
[OGL LOG] update_host_mtx : 57 ms
[OGL LOG] matrix is not yet sorted, sorting host matrix
[OGL LOG] sort_host_mtx_sparsity_pattern : 72 ms
[OGL LOG] sort_host_mtx : 44 ms
[OGL LOG] init_preconditioner : 0 ms
[OGL LOG] solve : 620 ms
BJompGKOBiCGStab:  Solving for Uy, Initial residual = 0.197564, Final residual = 9.27961e-07, No Iterations 38
[OGL LOG] init_host_sparsity_pattern : 112 ms
[OGL LOG] matrix not stored update host matrix
[OGL LOG] update_host_mtx : 59 ms
[OGL LOG] matrix is not yet sorted, sorting host matrix
[OGL LOG] sort_host_mtx_sparsity_pattern : 74 ms
[OGL LOG] sort_host_mtx : 45 ms
[OGL LOG] init_preconditioner : 0 ms
[OGL LOG] solve : 519 ms
BJompGKOBiCGStab:  Solving for Uz, Initial residual = 0.73249, Final residual = 8.318e-07, No Iterations 34
[OGL LOG] init_preconditioner : 0 ms
 CG create  precond 
[OGL LOG] solve : 4601 ms
BJompGKOCG:  Solving for p, Initial residual = 0.617354, Final residual = 9.60679e-07, No Iterations 622
time step continuity errors : sum local = 1.00089e-09, global = -2.19079e-20, cumulative = 1.99687e-20
[OGL LOG] init_preconditioner : 0 ms
 CG create  precond 
[OGL LOG] solve : 4587 ms
BJompGKOCG:  Solving for p, Initial residual = 0.554748, Final residual = 9.7542e-07, No Iterations 618
time step continuity errors : sum local = 1.03079e-09, global = 2.89819e-21, cumulative = 2.28669e-20
ExecutionTime = 2568.33 s  ClockTime = 51 s

Time = 0.00666667

Courant Number mean: 0.122084 max: 0.929082
[OGL LOG] init_host_sparsity_pattern : 112 ms
[OGL LOG] matrix not stored update host matrix
[OGL LOG] update_host_mtx : 57 ms
[OGL LOG] matrix is not yet sorted, sorting host matrix
[OGL LOG] sort_host_mtx_sparsity_pattern : 79 ms
[OGL LOG] sort_host_mtx : 45 ms
[OGL LOG] init_preconditioner : 0 ms
[OGL LOG] solve : 408 ms
BJompGKOBiCGStab:  Solving for Ux, Initial residual = 0.0319073, Final residual = 4.06256e-07, No Iterations 26
[OGL LOG] init_host_sparsity_pattern : 112 ms
[OGL LOG] matrix not stored update host matrix
[OGL LOG] update_host_mtx : 53 ms
[OGL LOG] matrix is not yet sorted, sorting host matrix
[OGL LOG] sort_host_mtx_sparsity_pattern : 72 ms
[OGL LOG] sort_host_mtx : 45 ms
[OGL LOG] init_preconditioner : 0 ms
[OGL LOG] solve : 506 ms
BJompGKOBiCGStab:  Solving for Uy, Initial residual = 0.0804622, Final residual = 3.74202e-07, No Iterations 35
[OGL LOG] init_host_sparsity_pattern : 113 ms
[OGL LOG] matrix not stored update host matrix
[OGL LOG] update_host_mtx : 53 ms
[OGL LOG] matrix is not yet sorted, sorting host matrix
[OGL LOG] sort_host_mtx_sparsity_pattern : 75 ms
[OGL LOG] sort_host_mtx : 45 ms
[OGL LOG] init_preconditioner : 0 ms
[OGL LOG] solve : 537 ms
BJompGKOBiCGStab:  Solving for Uz, Initial residual = 0.513467, Final residual = 9.17944e-07, No Iterations 38
[OGL LOG] init_preconditioner : 0 ms
 CG create  precond 
[OGL LOG] solve : 4408 ms
BJompGKOCG:  Solving for p, Initial residual = 0.591991, Final residual = 9.72039e-07, No Iterations 601
time step continuity errors : sum local = 8.13545e-10, global = -6.30871e-22, cumulative = 2.2236e-20
[OGL LOG] init_preconditioner : 0 ms
 CG create  precond 
[OGL LOG] solve : 4522 ms
BJompGKOCG:  Solving for p, Initial residual = 0.543117, Final residual = 9.5159e-07, No Iterations 600
time step continuity errors : sum local = 7.86562e-10, global = 1.82507e-20, cumulative = 4.04867e-20
ExecutionTime = 3227.55 s  ClockTime = 63 s

End

