/*---------------------------------------------------------------------------*\
  =========                 |
  \\      /  F ield         | OpenFOAM: The Open Source CFD Toolbox
   \\    /   O peration     | Website:  https://openfoam.org
    \\  /    A nd           | Version:  8
     \\/     M anipulation  |
\*---------------------------------------------------------------------------*/
Build  : 8-13d66902f78c
Exec   : icoFoam
Date   : Jul 14 2021
Time   : 01:47:46
Host   : "uc2n398.localdomain"
PID    : 541284
I/O    : uncollated
Case   : /pfs/data5/home/kit/scc/nq7776/code/OGL_DATA/lidDrivenCavity3D/v0.1-136-g40fef35/f584ccac99/IntelXeonGold6230CPU@2.10GHz/Test_2021-07-14-01:40:40/25/p-U-BiCGStab-GKO-BJ-omp/lidDrivenCavity3D
nProcs : 1
sigFpe : Enabling floating point exception trapping (FOAM_SIGFPE).
fileModificationChecking : Monitoring run-time modified files using timeStampMaster (fileModificationSkew 10)
allowSystemOperations : Allowing user-supplied system call operations

// * * * * * * * * * * * * * * * * * * * * * * * * * * * * * * * * * * * * * //
Create time

Create mesh for time = 0

Reading transportProperties

Reading field p

Reading field U

Reading/calculating face flux field phi


Starting time loop

Time = 0.004

Courant Number mean: 0 max: 0
[OGL LOG] init_host_sparsity_pattern : 4 ms
[OGL LOG] matrix not stored update host matrix
[OGL LOG] update_host_mtx : 2 ms
[OGL LOG] matrix is not yet sorted, compute sorting idxs
[OGL LOG] compute_sort : 98 ms
[OGL LOG] matrix is not yet sorted, sorting host matrix
[OGL LOG] sort_host_mtx_sparsity_pattern : 3 ms
[OGL LOG] sort_host_mtx : 1 ms
[OGL LOG] init_preconditioner : 8 ms
[OGL LOG] solve : 30 ms
BJompGKOBiCGStab:  Solving for Ux, Initial residual = 1, Final residual = 9.85785e-07, No Iterations 27
[OGL LOG] init_host_sparsity_pattern : 6 ms
[OGL LOG] matrix not stored update host matrix
[OGL LOG] update_host_mtx : 2 ms
[OGL LOG] matrix is not yet sorted, sorting host matrix
[OGL LOG] sort_host_mtx_sparsity_pattern : 3 ms
[OGL LOG] sort_host_mtx : 1 ms
[OGL LOG] init_preconditioner : 0 ms
[OGL LOG] solve : 1 ms
BJompGKOBiCGStab:  Solving for Uy, Initial residual = 0, Final residual = 0, No Iterations 0
[OGL LOG] init_host_sparsity_pattern : 6 ms
[OGL LOG] matrix not stored update host matrix
[OGL LOG] update_host_mtx : 2 ms
[OGL LOG] matrix is not yet sorted, sorting host matrix
[OGL LOG] sort_host_mtx_sparsity_pattern : 2 ms
[OGL LOG] sort_host_mtx : 1 ms
[OGL LOG] init_preconditioner : 0 ms
[OGL LOG] solve : 1 ms
BJompGKOBiCGStab:  Solving for Uz, Initial residual = 0, Final residual = 0, No Iterations 0
[OGL LOG] init_host_sparsity_pattern : 5 ms
[OGL LOG] matrix not stored update host matrix
[OGL LOG] update_host_mtx : 2 ms
[OGL LOG] matrix is not yet sorted, sorting host matrix
[OGL LOG] sort_host_mtx_sparsity_pattern : 2 ms
[OGL LOG] sort_host_mtx : 1 ms
[OGL LOG] init_preconditioner : 0 ms
[OGL LOG] solve : 160 ms
BJompGKOBiCGStab:  Solving for p, Initial residual = 1, Final residual = 5.26425e-07, No Iterations 153
time step continuity errors : sum local = 5.62987e-07, global = -1.06574e-20, cumulative = -1.06574e-20
[OGL LOG] init_preconditioner : 0 ms
[OGL LOG] solve : 157 ms
BJompGKOBiCGStab:  Solving for p, Initial residual = 0.644082, Final residual = 7.39971e-07, No Iterations 148
time step continuity errors : sum local = 1.05001e-06, global = -7.74396e-21, cumulative = -1.84014e-20
ExecutionTime = 25.36 s  ClockTime = 1 s

Time = 0.008

Courant Number mean: 0.0870974 max: 0.619854
[OGL LOG] init_host_sparsity_pattern : 5 ms
[OGL LOG] matrix not stored update host matrix
[OGL LOG] update_host_mtx : 2 ms
[OGL LOG] matrix is not yet sorted, sorting host matrix
[OGL LOG] sort_host_mtx_sparsity_pattern : 2 ms
[OGL LOG] sort_host_mtx : 1 ms
[OGL LOG] init_preconditioner : 0 ms
[OGL LOG] solve : 24 ms
BJompGKOBiCGStab:  Solving for Ux, Initial residual = 0.238934, Final residual = 8.30486e-07, No Iterations 23
[OGL LOG] init_host_sparsity_pattern : 6 ms
[OGL LOG] matrix not stored update host matrix
[OGL LOG] update_host_mtx : 1 ms
[OGL LOG] matrix is not yet sorted, sorting host matrix
[OGL LOG] sort_host_mtx_sparsity_pattern : 2 ms
[OGL LOG] sort_host_mtx : 1 ms
[OGL LOG] init_preconditioner : 0 ms
[OGL LOG] solve : 24 ms
BJompGKOBiCGStab:  Solving for Uy, Initial residual = 0.615479, Final residual = 7.89485e-07, No Iterations 23
[OGL LOG] init_host_sparsity_pattern : 6 ms
[OGL LOG] matrix not stored update host matrix
[OGL LOG] update_host_mtx : 1 ms
[OGL LOG] matrix is not yet sorted, sorting host matrix
[OGL LOG] sort_host_mtx_sparsity_pattern : 2 ms
[OGL LOG] sort_host_mtx : 1 ms
[OGL LOG] init_preconditioner : 0 ms
[OGL LOG] solve : 25 ms
BJompGKOBiCGStab:  Solving for Uz, Initial residual = 0.391732, Final residual = 7.67294e-07, No Iterations 24
[OGL LOG] init_preconditioner : 0 ms
[OGL LOG] solve : 156 ms
BJompGKOBiCGStab:  Solving for p, Initial residual = 0.527342, Final residual = 8.22761e-07, No Iterations 148
time step continuity errors : sum local = 1.04441e-08, global = 1.36801e-19, cumulative = 1.184e-19
[OGL LOG] init_preconditioner : 0 ms
[OGL LOG] solve : 159 ms
BJompGKOBiCGStab:  Solving for p, Initial residual = 0.437509, Final residual = 4.28762e-07, No Iterations 149
time step continuity errors : sum local = 9.46326e-07, global = 8.41623e-20, cumulative = 2.02562e-19
ExecutionTime = 51.99 s  ClockTime = 1 s

Time = 0.012

Courant Number mean: 0.127403 max: 0.798792
[OGL LOG] init_host_sparsity_pattern : 5 ms
[OGL LOG] matrix not stored update host matrix
[OGL LOG] update_host_mtx : 1 ms
[OGL LOG] matrix is not yet sorted, sorting host matrix
[OGL LOG] sort_host_mtx_sparsity_pattern : 2 ms
[OGL LOG] sort_host_mtx : 1 ms
[OGL LOG] init_preconditioner : 0 ms
[OGL LOG] solve : 23 ms
BJompGKOBiCGStab:  Solving for Ux, Initial residual = 0.0920392, Final residual = 8.21016e-07, No Iterations 22
[OGL LOG] init_host_sparsity_pattern : 6 ms
[OGL LOG] matrix not stored update host matrix
[OGL LOG] update_host_mtx : 1 ms
[OGL LOG] matrix is not yet sorted, sorting host matrix
[OGL LOG] sort_host_mtx_sparsity_pattern : 2 ms
[OGL LOG] sort_host_mtx : 1 ms
[OGL LOG] init_preconditioner : 0 ms
[OGL LOG] solve : 23 ms
BJompGKOBiCGStab:  Solving for Uy, Initial residual = 0.145868, Final residual = 8.79074e-07, No Iterations 22
[OGL LOG] init_host_sparsity_pattern : 6 ms
[OGL LOG] matrix not stored update host matrix
[OGL LOG] update_host_mtx : 1 ms
[OGL LOG] matrix is not yet sorted, sorting host matrix
[OGL LOG] sort_host_mtx_sparsity_pattern : 2 ms
[OGL LOG] sort_host_mtx : 1 ms
[OGL LOG] init_preconditioner : 0 ms
[OGL LOG] solve : 24 ms
BJompGKOBiCGStab:  Solving for Uz, Initial residual = 0.340272, Final residual = 9.01432e-07, No Iterations 23
[OGL LOG] init_preconditioner : 0 ms
[OGL LOG] solve : 179 ms
BJompGKOBiCGStab:  Solving for p, Initial residual = 0.305725, Final residual = 9.68528e-07, No Iterations 155
time step continuity errors : sum local = 6.8882e-09, global = -9.96368e-20, cumulative = 1.02926e-19
[OGL LOG] init_preconditioner : 0 ms
[OGL LOG] solve : 163 ms
BJompGKOBiCGStab:  Solving for p, Initial residual = 0.265183, Final residual = 6.23594e-07, No Iterations 153
time step continuity errors : sum local = 9.19176e-09, global = -1.47222e-19, cumulative = -4.42961e-20
ExecutionTime = 80.23 s  ClockTime = 2 s

Time = 0.016

Courant Number mean: 0.145254 max: 0.82722
[OGL LOG] init_host_sparsity_pattern : 4 ms
[OGL LOG] matrix not stored update host matrix
[OGL LOG] update_host_mtx : 2 ms
[OGL LOG] matrix is not yet sorted, sorting host matrix
[OGL LOG] sort_host_mtx_sparsity_pattern : 3 ms
[OGL LOG] sort_host_mtx : 1 ms
[OGL LOG] init_preconditioner : 0 ms
[OGL LOG] solve : 24 ms
BJompGKOBiCGStab:  Solving for Ux, Initial residual = 0.0235024, Final residual = 9.6758e-07, No Iterations 18
[OGL LOG] init_host_sparsity_pattern : 6 ms
[OGL LOG] matrix not stored update host matrix
[OGL LOG] update_host_mtx : 1 ms
[OGL LOG] matrix is not yet sorted, sorting host matrix
[OGL LOG] sort_host_mtx_sparsity_pattern : 2 ms
[OGL LOG] sort_host_mtx : 1 ms
[OGL LOG] init_preconditioner : 0 ms
[OGL LOG] solve : 28 ms
BJompGKOBiCGStab:  Solving for Uy, Initial residual = 0.0608575, Final residual = 9.27005e-07, No Iterations 22
[OGL LOG] init_host_sparsity_pattern : 6 ms
[OGL LOG] matrix not stored update host matrix
[OGL LOG] update_host_mtx : 1 ms
[OGL LOG] matrix is not yet sorted, sorting host matrix
[OGL LOG] sort_host_mtx_sparsity_pattern : 2 ms
[OGL LOG] sort_host_mtx : 1 ms
[OGL LOG] init_preconditioner : 0 ms
[OGL LOG] solve : 28 ms
BJompGKOBiCGStab:  Solving for Uz, Initial residual = 0.184443, Final residual = 9.16636e-07, No Iterations 22
[OGL LOG] init_preconditioner : 0 ms
[OGL LOG] solve : 140 ms
BJompGKOBiCGStab:  Solving for p, Initial residual = 0.239443, Final residual = 6.96233e-07, No Iterations 134
time step continuity errors : sum local = 3.27935e-09, global = -3.63492e-20, cumulative = -8.06453e-20
[OGL LOG] init_preconditioner : 0 ms
[OGL LOG] solve : 150 ms
BJompGKOBiCGStab:  Solving for p, Initial residual = 0.222229, Final residual = 6.72243e-07, No Iterations 144
time step continuity errors : sum local = 3.37599e-09, global = -1.43137e-19, cumulative = -2.23782e-19
ExecutionTime = 105.67 s  ClockTime = 2 s

Time = 0.02

Courant Number mean: 0.157058 max: 0.845845
[OGL LOG] init_host_sparsity_pattern : 5 ms
[OGL LOG] matrix not stored update host matrix
[OGL LOG] update_host_mtx : 1 ms
[OGL LOG] matrix is not yet sorted, sorting host matrix
[OGL LOG] sort_host_mtx_sparsity_pattern : 2 ms
[OGL LOG] sort_host_mtx : 1 ms
[OGL LOG] init_preconditioner : 0 ms
[OGL LOG] solve : 17 ms
BJompGKOBiCGStab:  Solving for Ux, Initial residual = 0.0150184, Final residual = 9.44053e-07, No Iterations 16
[OGL LOG] init_host_sparsity_pattern : 6 ms
[OGL LOG] matrix not stored update host matrix
[OGL LOG] update_host_mtx : 2 ms
[OGL LOG] matrix is not yet sorted, sorting host matrix
[OGL LOG] sort_host_mtx_sparsity_pattern : 2 ms
[OGL LOG] sort_host_mtx : 1 ms
[OGL LOG] init_preconditioner : 0 ms
[OGL LOG] solve : 20 ms
BJompGKOBiCGStab:  Solving for Uy, Initial residual = 0.0280962, Final residual = 9.98547e-07, No Iterations 19
[OGL LOG] init_host_sparsity_pattern : 6 ms
[OGL LOG] matrix not stored update host matrix
[OGL LOG] update_host_mtx : 1 ms
[OGL LOG] matrix is not yet sorted, sorting host matrix
[OGL LOG] sort_host_mtx_sparsity_pattern : 2 ms
[OGL LOG] sort_host_mtx : 1 ms
[OGL LOG] init_preconditioner : 0 ms
[OGL LOG] solve : 21 ms
BJompGKOBiCGStab:  Solving for Uz, Initial residual = 0.0758273, Final residual = 9.54731e-07, No Iterations 20
[OGL LOG] init_preconditioner : 0 ms
[OGL LOG] solve : 139 ms
BJompGKOBiCGStab:  Solving for p, Initial residual = 0.234835, Final residual = 8.65297e-07, No Iterations 133
time step continuity errors : sum local = 1.58566e-08, global = 4.60003e-20, cumulative = -1.77782e-19
[OGL LOG] init_preconditioner : 0 ms
[OGL LOG] solve : 145 ms
BJompGKOBiCGStab:  Solving for p, Initial residual = 0.233063, Final residual = 6.72249e-07, No Iterations 140
time step continuity errors : sum local = 3.17931e-09, global = -6.18154e-20, cumulative = -2.39597e-19
ExecutionTime = 129.46 s  ClockTime = 2 s

End

