/*---------------------------------------------------------------------------*\
  =========                 |
  \\      /  F ield         | OpenFOAM: The Open Source CFD Toolbox
   \\    /   O peration     | Website:  https://openfoam.org
    \\  /    A nd           | Version:  8
     \\/     M anipulation  |
\*---------------------------------------------------------------------------*/
Build  : 8-13d66902f78c
Exec   : icoFoam
Date   : Jul 12 2021
Time   : 12:44:47
Host   : "uc2n438.localdomain"
PID    : 4122239
I/O    : uncollated
Case   : /pfs/data5/home/kit/scc/nq7776/code/OGL_DATA/lidDrivenCavity3D/v0.1-136-g40fef35/f584ccac99/IntelXeonGold6230CPU@2.10GHz/Test_2021-07-12-12:41:27/25/p-BiCGStab-GKO-BJ-omp/lidDrivenCavity3D
nProcs : 1
sigFpe : Enabling floating point exception trapping (FOAM_SIGFPE).
fileModificationChecking : Monitoring run-time modified files using timeStampMaster (fileModificationSkew 10)
allowSystemOperations : Allowing user-supplied system call operations

// * * * * * * * * * * * * * * * * * * * * * * * * * * * * * * * * * * * * * //
Create time

Create mesh for time = 0

Reading transportProperties

Reading field p

Reading field U

Reading/calculating face flux field phi


Starting time loop

Time = 0.004

Courant Number mean: 0 max: 0
nonePBiCGStab:  Solving for Ux, Initial residual = 1, Final residual = 0.0337517, No Iterations 5
nonePBiCGStab:  Solving for Uy, Initial residual = 0, Final residual = 0, No Iterations 0
nonePBiCGStab:  Solving for Uz, Initial residual = 0, Final residual = 0, No Iterations 0
[OGL LOG] init_host_sparsity_pattern : 4 ms
[OGL LOG] matrix not stored update host matrix
[OGL LOG] update_host_mtx : 2 ms
[OGL LOG] matrix is not yet sorted, compute sorting idxs
[OGL LOG] compute_sort : 106 ms
[OGL LOG] matrix is not yet sorted, sorting host matrix
[OGL LOG] sort_host_mtx_sparsity_pattern : 2 ms
[OGL LOG] sort_host_mtx : 1 ms
[OGL LOG] init_preconditioner : 1 ms
[OGL LOG] solve : 89 ms
BJompGKOBiCGStab:  Solving for p, Initial residual = 1, Final residual = 9.96727e-07, No Iterations 141
time step continuity errors : sum local = 7.42528e-07, global = 1.1717e-20, cumulative = 1.1717e-20
[OGL LOG] init_preconditioner : 0 ms
[OGL LOG] solve : 81 ms
BJompGKOBiCGStab:  Solving for p, Initial residual = 0.62234, Final residual = 5.73781e-07, No Iterations 130
time step continuity errors : sum local = 2.70373e-07, global = -4.68682e-20, cumulative = -3.51512e-20
ExecutionTime = 1.66 s  ClockTime = 0 s

Time = 0.008

Courant Number mean: 0.084228 max: 0.621061
nonePBiCGStab:  Solving for Ux, Initial residual = 0.149592, Final residual = 0.00942731, No Iterations 5
nonePBiCGStab:  Solving for Uy, Initial residual = 0.281197, Final residual = 0.0142292, No Iterations 5
nonePBiCGStab:  Solving for Uz, Initial residual = 0.933159, Final residual = 0.0513013, No Iterations 5
[OGL LOG] init_preconditioner : 0 ms
[OGL LOG] solve : 78 ms
BJompGKOBiCGStab:  Solving for p, Initial residual = 0.518052, Final residual = 6.4049e-07, No Iterations 123
time step continuity errors : sum local = 8.64598e-07, global = 1.79935e-20, cumulative = -1.71577e-20
[OGL LOG] init_preconditioner : 0 ms
[OGL LOG] solve : 80 ms
BJompGKOBiCGStab:  Solving for p, Initial residual = 0.41593, Final residual = 5.91077e-07, No Iterations 123
time step continuity errors : sum local = 2.77161e-07, global = 1.34734e-20, cumulative = -3.68432e-21
ExecutionTime = 2.99 s  ClockTime = 1 s

Time = 0.012

Courant Number mean: 0.124051 max: 0.792234
nonePBiCGStab:  Solving for Ux, Initial residual = 0.0424971, Final residual = 0.00204612, No Iterations 5
nonePBiCGStab:  Solving for Uy, Initial residual = 0.0761603, Final residual = 0.00263756, No Iterations 5
nonePBiCGStab:  Solving for Uz, Initial residual = 0.142835, Final residual = 0.00673263, No Iterations 5
[OGL LOG] init_preconditioner : 0 ms
[OGL LOG] solve : 81 ms
BJompGKOBiCGStab:  Solving for p, Initial residual = 0.279228, Final residual = 7.26045e-07, No Iterations 119
time step continuity errors : sum local = 6.06476e-09, global = 3.92029e-20, cumulative = 3.55186e-20
[OGL LOG] init_preconditioner : 0 ms
[OGL LOG] solve : 84 ms
BJompGKOBiCGStab:  Solving for p, Initial residual = 0.224057, Final residual = 9.54186e-07, No Iterations 122
time step continuity errors : sum local = 2.87146e-08, global = -2.24988e-19, cumulative = -1.89469e-19
ExecutionTime = 4.37 s  ClockTime = 1 s

Time = 0.016

Courant Number mean: 0.142529 max: 0.824384
nonePBiCGStab:  Solving for Ux, Initial residual = 0.0219033, Final residual = 0.00075301, No Iterations 5
nonePBiCGStab:  Solving for Uy, Initial residual = 0.0474715, Final residual = 0.000976114, No Iterations 5
nonePBiCGStab:  Solving for Uz, Initial residual = 0.0927321, Final residual = 0.00327599, No Iterations 5
[OGL LOG] init_preconditioner : 0 ms
[OGL LOG] solve : 78 ms
BJompGKOBiCGStab:  Solving for p, Initial residual = 0.138556, Final residual = 4.3939e-07, No Iterations 115
time step continuity errors : sum local = 3.5282e-08, global = 7.48032e-20, cumulative = -1.14666e-19
[OGL LOG] init_preconditioner : 0 ms
[OGL LOG] solve : 79 ms
BJompGKOBiCGStab:  Solving for p, Initial residual = 0.106562, Final residual = 5.86063e-07, No Iterations 116
time step continuity errors : sum local = 6.17851e-08, global = 4.54682e-20, cumulative = -6.91976e-20
ExecutionTime = 5.7 s  ClockTime = 1 s

Time = 0.02

Courant Number mean: 0.154856 max: 0.843613
nonePBiCGStab:  Solving for Ux, Initial residual = 0.0136628, Final residual = 0.000405214, No Iterations 5
nonePBiCGStab:  Solving for Uy, Initial residual = 0.0288069, Final residual = 0.000727689, No Iterations 5
nonePBiCGStab:  Solving for Uz, Initial residual = 0.0551927, Final residual = 0.00175421, No Iterations 5
[OGL LOG] init_preconditioner : 0 ms
[OGL LOG] solve : 82 ms
BJompGKOBiCGStab:  Solving for p, Initial residual = 0.0654225, Final residual = 8.16199e-07, No Iterations 119
time step continuity errors : sum local = 3.42144e-08, global = 1.23937e-20, cumulative = -5.68039e-20
[OGL LOG] init_preconditioner : 0 ms
[OGL LOG] solve : 81 ms
BJompGKOBiCGStab:  Solving for p, Initial residual = 0.0510794, Final residual = 9.25407e-07, No Iterations 114
time step continuity errors : sum local = 5.63083e-07, global = -8.09711e-20, cumulative = -1.37775e-19
ExecutionTime = 7.06 s  ClockTime = 1 s

End

