/*---------------------------------------------------------------------------*\
  =========                 |
  \\      /  F ield         | OpenFOAM: The Open Source CFD Toolbox
   \\    /   O peration     | Website:  https://openfoam.org
    \\  /    A nd           | Version:  8
     \\/     M anipulation  |
\*---------------------------------------------------------------------------*/
Build  : 8-13d66902f78c
Exec   : icoFoam
Date   : Jul 14 2021
Time   : 02:00:25
Host   : "uc2n480.localdomain"
PID    : 600677
I/O    : uncollated
Case   : /pfs/data5/home/kit/scc/nq7776/code/OGL_DATA/lidDrivenCavity3D/v0.1-136-g40fef35/f584ccac99/IntelXeonGold6230CPU@2.10GHz/Test_2021-07-14-01:53:11/100/p-BiCGStab-OF-DIC-reference/lidDrivenCavity3D
nProcs : 1
sigFpe : Enabling floating point exception trapping (FOAM_SIGFPE).
fileModificationChecking : Monitoring run-time modified files using timeStampMaster (fileModificationSkew 10)
allowSystemOperations : Allowing user-supplied system call operations

// * * * * * * * * * * * * * * * * * * * * * * * * * * * * * * * * * * * * * //
Create time

Create mesh for time = 0

Reading transportProperties

Reading field p

Reading field U

Reading/calculating face flux field phi


Starting time loop

Time = 0.001

Courant Number mean: 0 max: 0
nonePBiCGStab:  Solving for Ux, Initial residual = 1, Final residual = 0.0818707, No Iterations 5
nonePBiCGStab:  Solving for Uy, Initial residual = 0, Final residual = 0, No Iterations 0
nonePBiCGStab:  Solving for Uz, Initial residual = 0, Final residual = 0, No Iterations 0
DICPBiCGStab:  Solving for p, Initial residual = 1, Final residual = 4.5735e-07, No Iterations 194
time step continuity errors : sum local = 2.96355e-10, global = -4.29947e-21, cumulative = -4.29947e-21
DICPBiCGStab:  Solving for p, Initial residual = 0.707484, Final residual = 8.97511e-07, No Iterations 212
time step continuity errors : sum local = 5.23474e-10, global = -4.91689e-21, cumulative = -9.21636e-21
ExecutionTime = 23.82 s  ClockTime = 24 s

Time = 0.002

Courant Number mean: 0.0422155 max: 0.791725
nonePBiCGStab:  Solving for Ux, Initial residual = 0.137867, Final residual = 0.0400074, No Iterations 5
nonePBiCGStab:  Solving for Uy, Initial residual = 0.451746, Final residual = 0.130142, No Iterations 5
nonePBiCGStab:  Solving for Uz, Initial residual = 0.98752, Final residual = 0.323457, No Iterations 5
DICPBiCGStab:  Solving for p, Initial residual = 0.789699, Final residual = 7.73267e-07, No Iterations 206
time step continuity errors : sum local = 7.90199e-10, global = -3.66299e-21, cumulative = -1.28794e-20
DICPBiCGStab:  Solving for p, Initial residual = 0.713526, Final residual = 7.74693e-07, No Iterations 199
time step continuity errors : sum local = 9.02883e-10, global = 4.17203e-22, cumulative = -1.24622e-20
ExecutionTime = 44.23 s  ClockTime = 44 s

Time = 0.003

Courant Number mean: 0.0674676 max: 0.899981
nonePBiCGStab:  Solving for Ux, Initial residual = 0.0610639, Final residual = 0.0153016, No Iterations 5
nonePBiCGStab:  Solving for Uy, Initial residual = 0.208723, Final residual = 0.0593963, No Iterations 5
nonePBiCGStab:  Solving for Uz, Initial residual = 0.712566, Final residual = 0.213783, No Iterations 5
DICPBiCGStab:  Solving for p, Initial residual = 0.797065, Final residual = 3.00285e-07, No Iterations 196
time step continuity errors : sum local = 2.37755e-10, global = 6.12739e-22, cumulative = -1.18494e-20
DICPBiCGStab:  Solving for p, Initial residual = 0.724866, Final residual = 8.599e-07, No Iterations 204
time step continuity errors : sum local = 6.26993e-10, global = 1.69787e-22, cumulative = -1.16796e-20
ExecutionTime = 64.48 s  ClockTime = 64 s

Time = 0.004

Courant Number mean: 0.081474 max: 0.91289
nonePBiCGStab:  Solving for Ux, Initial residual = 0.0387869, Final residual = 0.0107238, No Iterations 5
nonePBiCGStab:  Solving for Uy, Initial residual = 0.148964, Final residual = 0.0502058, No Iterations 5
nonePBiCGStab:  Solving for Uz, Initial residual = 0.49289, Final residual = 0.135114, No Iterations 5
DICPBiCGStab:  Solving for p, Initial residual = 0.719472, Final residual = 8.4358e-07, No Iterations 202
time step continuity errors : sum local = 7.97552e-10, global = 9.42897e-21, cumulative = -2.25066e-21
DICPBiCGStab:  Solving for p, Initial residual = 0.619838, Final residual = 9.13014e-07, No Iterations 199
time step continuity errors : sum local = 1.03616e-09, global = -7.25731e-22, cumulative = -2.97639e-21
ExecutionTime = 84.77 s  ClockTime = 85 s

Time = 0.005

Courant Number mean: 0.0922791 max: 0.925557
nonePBiCGStab:  Solving for Ux, Initial residual = 0.0298142, Final residual = 0.00896147, No Iterations 5
nonePBiCGStab:  Solving for Uy, Initial residual = 0.0986382, Final residual = 0.0358062, No Iterations 5
nonePBiCGStab:  Solving for Uz, Initial residual = 0.305022, Final residual = 0.07886, No Iterations 5
DICPBiCGStab:  Solving for p, Initial residual = 0.75714, Final residual = 9.60803e-07, No Iterations 192
time step continuity errors : sum local = 7.46567e-10, global = 1.22911e-20, cumulative = 9.31475e-21
DICPBiCGStab:  Solving for p, Initial residual = 0.670837, Final residual = 7.67348e-07, No Iterations 175
time step continuity errors : sum local = 8.95725e-10, global = 2.80173e-21, cumulative = 1.21165e-20
ExecutionTime = 103.48 s  ClockTime = 104 s

End

