/*---------------------------------------------------------------------------*\
  =========                 |
  \\      /  F ield         | OpenFOAM: The Open Source CFD Toolbox
   \\    /   O peration     | Website:  https://openfoam.org
    \\  /    A nd           | Version:  8
     \\/     M anipulation  |
\*---------------------------------------------------------------------------*/
Build  : 8-13d66902f78c
Exec   : icoFoam
Date   : Jul 14 2021
Time   : 00:49:42
Host   : "uc2n394.localdomain"
PID    : 3277080
I/O    : uncollated
Case   : /pfs/data5/home/kit/scc/nq7776/code/OGL_DATA/lidDrivenCavity3D/v0.1-136-g40fef35/f584ccac99/IntelXeonGold6230CPU@2.10GHz/Test_2021-07-14-00:31:10/50/p-BiCGStab-GKO-BJ-omp/lidDrivenCavity3D
nProcs : 1
sigFpe : Enabling floating point exception trapping (FOAM_SIGFPE).
fileModificationChecking : Monitoring run-time modified files using timeStampMaster (fileModificationSkew 10)
allowSystemOperations : Allowing user-supplied system call operations

// * * * * * * * * * * * * * * * * * * * * * * * * * * * * * * * * * * * * * //
Create time

Create mesh for time = 0

Reading transportProperties

Reading field p

Reading field U

Reading/calculating face flux field phi


Starting time loop

Time = 0.002

Courant Number mean: 0 max: 0
nonePBiCGStab:  Solving for Ux, Initial residual = 1, Final residual = 0.0592055, No Iterations 5
nonePBiCGStab:  Solving for Uy, Initial residual = 0, Final residual = 0, No Iterations 0
nonePBiCGStab:  Solving for Uz, Initial residual = 0, Final residual = 0, No Iterations 0
[OGL LOG] init_host_sparsity_pattern : 35 ms
[OGL LOG] matrix not stored update host matrix
[OGL LOG] update_host_mtx : 18 ms
[OGL LOG] matrix is not yet sorted, compute sorting idxs
[OGL LOG] compute_sort : 918 ms
[OGL LOG] matrix is not yet sorted, sorting host matrix
[OGL LOG] sort_host_mtx_sparsity_pattern : 23 ms
[OGL LOG] sort_host_mtx : 14 ms
[OGL LOG] init_preconditioner : 10 ms
[OGL LOG] solve : 2388 ms
BJompGKOBiCGStab:  Solving for p, Initial residual = 1, Final residual = 4.48358e-07, No Iterations 330
time step continuity errors : sum local = 1.65367e-08, global = 4.03106e-21, cumulative = 4.03106e-21
[OGL LOG] init_preconditioner : 0 ms
[OGL LOG] solve : 2268 ms
BJompGKOBiCGStab:  Solving for p, Initial residual = 0.67672, Final residual = 6.35782e-07, No Iterations 317
time step continuity errors : sum local = 3.27795e-08, global = 1.79329e-21, cumulative = 5.82435e-21
ExecutionTime = 20.32 s  ClockTime = 6 s

Time = 0.004

Courant Number mean: 0.0636233 max: 0.723792
nonePBiCGStab:  Solving for Ux, Initial residual = 0.144133, Final residual = 0.0219193, No Iterations 5
nonePBiCGStab:  Solving for Uy, Initial residual = 0.363931, Final residual = 0.0522895, No Iterations 5
nonePBiCGStab:  Solving for Uz, Initial residual = 0.973517, Final residual = 0.158951, No Iterations 5
[OGL LOG] init_preconditioner : 0 ms
[OGL LOG] solve : 2244 ms
BJompGKOBiCGStab:  Solving for p, Initial residual = 0.66852, Final residual = 5.85706e-07, No Iterations 312
time step continuity errors : sum local = 4.26785e-08, global = 1.95619e-20, cumulative = 2.53863e-20
[OGL LOG] init_preconditioner : 0 ms
[OGL LOG] solve : 2165 ms
BJompGKOBiCGStab:  Solving for p, Initial residual = 0.58468, Final residual = 5.65343e-07, No Iterations 303
time step continuity errors : sum local = 1.81885e-09, global = 9.96184e-21, cumulative = 3.53481e-20
ExecutionTime = 38.08 s  ClockTime = 11 s

Time = 0.006

Courant Number mean: 0.0972276 max: 0.862514
nonePBiCGStab:  Solving for Ux, Initial residual = 0.0524157, Final residual = 0.00685511, No Iterations 5
nonePBiCGStab:  Solving for Uy, Initial residual = 0.127058, Final residual = 0.0201241, No Iterations 5
nonePBiCGStab:  Solving for Uz, Initial residual = 0.366715, Final residual = 0.0531996, No Iterations 5
[OGL LOG] init_preconditioner : 0 ms
[OGL LOG] solve : 2243 ms
BJompGKOBiCGStab:  Solving for p, Initial residual = 0.594541, Final residual = 7.13725e-07, No Iterations 318
time step continuity errors : sum local = 1.63731e-08, global = 1.12348e-20, cumulative = 4.65829e-20
[OGL LOG] init_preconditioner : 0 ms
[OGL LOG] solve : 2259 ms
BJompGKOBiCGStab:  Solving for p, Initial residual = 0.528698, Final residual = 3.41461e-07, No Iterations 314
time step continuity errors : sum local = 9.55923e-08, global = -2.34062e-20, cumulative = 2.31767e-20
ExecutionTime = 56.21 s  ClockTime = 15 s

Time = 0.008

Courant Number mean: 0.113794 max: 0.88248
nonePBiCGStab:  Solving for Ux, Initial residual = 0.0289613, Final residual = 0.00344553, No Iterations 5
nonePBiCGStab:  Solving for Uy, Initial residual = 0.0844188, Final residual = 0.0109233, No Iterations 5
nonePBiCGStab:  Solving for Uz, Initial residual = 0.229317, Final residual = 0.0301742, No Iterations 5
[OGL LOG] init_preconditioner : 0 ms
[OGL LOG] solve : 2603 ms
BJompGKOBiCGStab:  Solving for p, Initial residual = 0.411458, Final residual = 7.06324e-07, No Iterations 366
time step continuity errors : sum local = 2.96722e-09, global = 3.59963e-20, cumulative = 5.9173e-20
[OGL LOG] init_preconditioner : 0 ms
[OGL LOG] solve : 2299 ms
BJompGKOBiCGStab:  Solving for p, Initial residual = 0.342697, Final residual = 6.20681e-07, No Iterations 317
time step continuity errors : sum local = 2.69539e-09, global = 5.70821e-21, cumulative = 6.48812e-20
ExecutionTime = 75.94 s  ClockTime = 20 s

Time = 0.01

Courant Number mean: 0.127339 max: 0.898877
nonePBiCGStab:  Solving for Ux, Initial residual = 0.0202783, Final residual = 0.00208502, No Iterations 5
nonePBiCGStab:  Solving for Uy, Initial residual = 0.0505604, Final residual = 0.00624151, No Iterations 5
nonePBiCGStab:  Solving for Uz, Initial residual = 0.113043, Final residual = 0.018275, No Iterations 5
[OGL LOG] init_preconditioner : 0 ms
[OGL LOG] solve : 2153 ms
BJompGKOBiCGStab:  Solving for p, Initial residual = 0.354051, Final residual = 9.86193e-07, No Iterations 302
time step continuity errors : sum local = 2.47847e-09, global = 5.82414e-20, cumulative = 1.23123e-19
[OGL LOG] init_preconditioner : 0 ms
[OGL LOG] solve : 2342 ms
BJompGKOBiCGStab:  Solving for p, Initial residual = 0.302222, Final residual = 3.80443e-07, No Iterations 326
time step continuity errors : sum local = 1.39768e-08, global = 1.06771e-20, cumulative = 1.338e-19
ExecutionTime = 94.04 s  ClockTime = 25 s

End

