/*---------------------------------------------------------------------------*\
  =========                 |
  \\      /  F ield         | OpenFOAM: The Open Source CFD Toolbox
   \\    /   O peration     | Website:  https://openfoam.org
    \\  /    A nd           | Version:  8
     \\/     M anipulation  |
\*---------------------------------------------------------------------------*/
Build  : 8-13d66902f78c
Exec   : icoFoam
Date   : Jul 14 2021
Time   : 02:00:54
Host   : "uc2n398.localdomain"
PID    : 543744
I/O    : uncollated
Case   : /pfs/data5/home/kit/scc/nq7776/code/OGL_DATA/lidDrivenCavity3D/v0.1-136-g40fef35/f584ccac99/IntelXeonGold6230CPU@2.10GHz/Test_2021-07-14-01:40:40/50/p-U-BiCGStab-GKO-BJ-omp/lidDrivenCavity3D
nProcs : 1
sigFpe : Enabling floating point exception trapping (FOAM_SIGFPE).
fileModificationChecking : Monitoring run-time modified files using timeStampMaster (fileModificationSkew 10)
allowSystemOperations : Allowing user-supplied system call operations

// * * * * * * * * * * * * * * * * * * * * * * * * * * * * * * * * * * * * * //
Create time

Create mesh for time = 0

Reading transportProperties

Reading field p

Reading field U

Reading/calculating face flux field phi


Starting time loop

Time = 0.002

Courant Number mean: 0 max: 0
[OGL LOG] init_host_sparsity_pattern : 35 ms
[OGL LOG] matrix not stored update host matrix
[OGL LOG] update_host_mtx : 18 ms
[OGL LOG] matrix is not yet sorted, compute sorting idxs
[OGL LOG] compute_sort : 909 ms
[OGL LOG] matrix is not yet sorted, sorting host matrix
[OGL LOG] sort_host_mtx_sparsity_pattern : 23 ms
[OGL LOG] sort_host_mtx : 15 ms
[OGL LOG] init_preconditioner : 10 ms
[OGL LOG] solve : 294 ms
BJompGKOBiCGStab:  Solving for Ux, Initial residual = 1, Final residual = 3.61163e-07, No Iterations 40
[OGL LOG] init_host_sparsity_pattern : 34 ms
[OGL LOG] matrix not stored update host matrix
[OGL LOG] update_host_mtx : 18 ms
[OGL LOG] matrix is not yet sorted, sorting host matrix
[OGL LOG] sort_host_mtx_sparsity_pattern : 23 ms
[OGL LOG] sort_host_mtx : 12 ms
[OGL LOG] init_preconditioner : 9 ms
[OGL LOG] solve : 6 ms
BJompGKOBiCGStab:  Solving for Uy, Initial residual = 0, Final residual = 0, No Iterations 0
[OGL LOG] init_host_sparsity_pattern : 33 ms
[OGL LOG] matrix not stored update host matrix
[OGL LOG] update_host_mtx : 15 ms
[OGL LOG] matrix is not yet sorted, sorting host matrix
[OGL LOG] sort_host_mtx_sparsity_pattern : 23 ms
[OGL LOG] sort_host_mtx : 12 ms
[OGL LOG] init_preconditioner : 10 ms
[OGL LOG] solve : 5 ms
BJompGKOBiCGStab:  Solving for Uz, Initial residual = 0, Final residual = 0, No Iterations 0
[OGL LOG] init_host_sparsity_pattern : 33 ms
[OGL LOG] matrix not stored update host matrix
[OGL LOG] update_host_mtx : 18 ms
[OGL LOG] matrix is not yet sorted, sorting host matrix
[OGL LOG] sort_host_mtx_sparsity_pattern : 22 ms
[OGL LOG] sort_host_mtx : 13 ms
[OGL LOG] init_preconditioner : 10 ms
[OGL LOG] solve : 2211 ms
BJompGKOBiCGStab:  Solving for p, Initial residual = 1, Final residual = 8.1634e-07, No Iterations 313
time step continuity errors : sum local = 2.99679e-08, global = 1.41663e-20, cumulative = 1.41663e-20
[OGL LOG] init_preconditioner : 0 ms
[OGL LOG] solve : 2193 ms
BJompGKOBiCGStab:  Solving for p, Initial residual = 0.721581, Final residual = 9.40759e-07, No Iterations 314
time step continuity errors : sum local = 2.83495e-07, global = 5.20891e-22, cumulative = 1.46872e-20
ExecutionTime = 20.94 s  ClockTime = 7 s

Time = 0.004

Courant Number mean: 0.0720724 max: 0.726639
[OGL LOG] init_host_sparsity_pattern : 33 ms
[OGL LOG] matrix not stored update host matrix
[OGL LOG] update_host_mtx : 15 ms
[OGL LOG] matrix is not yet sorted, sorting host matrix
[OGL LOG] sort_host_mtx_sparsity_pattern : 23 ms
[OGL LOG] sort_host_mtx : 12 ms
[OGL LOG] init_preconditioner : 0 ms
[OGL LOG] solve : 293 ms
BJompGKOBiCGStab:  Solving for Ux, Initial residual = 0.20345, Final residual = 9.31106e-07, No Iterations 36
[OGL LOG] init_host_sparsity_pattern : 39 ms
[OGL LOG] matrix not stored update host matrix
[OGL LOG] update_host_mtx : 20 ms
[OGL LOG] matrix is not yet sorted, sorting host matrix
[OGL LOG] sort_host_mtx_sparsity_pattern : 26 ms
[OGL LOG] sort_host_mtx : 13 ms
[OGL LOG] init_preconditioner : 0 ms
[OGL LOG] solve : 299 ms
BJompGKOBiCGStab:  Solving for Uy, Initial residual = 0.618443, Final residual = 9.39431e-07, No Iterations 39
[OGL LOG] init_host_sparsity_pattern : 33 ms
[OGL LOG] matrix not stored update host matrix
[OGL LOG] update_host_mtx : 15 ms
[OGL LOG] matrix is not yet sorted, sorting host matrix
[OGL LOG] sort_host_mtx_sparsity_pattern : 22 ms
[OGL LOG] sort_host_mtx : 12 ms
[OGL LOG] init_preconditioner : 0 ms
[OGL LOG] solve : 280 ms
BJompGKOBiCGStab:  Solving for Uz, Initial residual = 0.536125, Final residual = 6.51008e-07, No Iterations 37
[OGL LOG] init_preconditioner : 0 ms
[OGL LOG] solve : 2212 ms
BJompGKOBiCGStab:  Solving for p, Initial residual = 0.673369, Final residual = 8.74106e-07, No Iterations 313
time step continuity errors : sum local = 1.27994e-08, global = 3.70171e-20, cumulative = 5.17043e-20
[OGL LOG] init_preconditioner : 0 ms
[OGL LOG] solve : 2160 ms
BJompGKOBiCGStab:  Solving for p, Initial residual = 0.598935, Final residual = 1.50026e-07, No Iterations 309
time step continuity errors : sum local = 8.37495e-08, global = 7.03629e-21, cumulative = 5.87406e-20
ExecutionTime = 42.34 s  ClockTime = 13 s

Time = 0.006

Courant Number mean: 0.107408 max: 0.881753
[OGL LOG] init_host_sparsity_pattern : 33 ms
[OGL LOG] matrix not stored update host matrix
[OGL LOG] update_host_mtx : 18 ms
[OGL LOG] matrix is not yet sorted, sorting host matrix
[OGL LOG] sort_host_mtx_sparsity_pattern : 24 ms
[OGL LOG] sort_host_mtx : 13 ms
[OGL LOG] init_preconditioner : 0 ms
[OGL LOG] solve : 254 ms
BJompGKOBiCGStab:  Solving for Ux, Initial residual = 0.0995405, Final residual = 9.58999e-07, No Iterations 34
[OGL LOG] init_host_sparsity_pattern : 33 ms
[OGL LOG] matrix not stored update host matrix
[OGL LOG] update_host_mtx : 15 ms
[OGL LOG] matrix is not yet sorted, sorting host matrix
[OGL LOG] sort_host_mtx_sparsity_pattern : 22 ms
[OGL LOG] sort_host_mtx : 12 ms
[OGL LOG] init_preconditioner : 0 ms
[OGL LOG] solve : 265 ms
BJompGKOBiCGStab:  Solving for Uy, Initial residual = 0.250078, Final residual = 7.54487e-07, No Iterations 36
[OGL LOG] init_host_sparsity_pattern : 32 ms
[OGL LOG] matrix not stored update host matrix
[OGL LOG] update_host_mtx : 15 ms
[OGL LOG] matrix is not yet sorted, sorting host matrix
[OGL LOG] sort_host_mtx_sparsity_pattern : 22 ms
[OGL LOG] sort_host_mtx : 12 ms
[OGL LOG] init_preconditioner : 0 ms
[OGL LOG] solve : 280 ms
BJompGKOBiCGStab:  Solving for Uz, Initial residual = 0.542207, Final residual = 9.58777e-07, No Iterations 38
[OGL LOG] init_preconditioner : 0 ms
[OGL LOG] solve : 2313 ms
BJompGKOBiCGStab:  Solving for p, Initial residual = 0.606908, Final residual = 9.45883e-07, No Iterations 329
time step continuity errors : sum local = 2.21549e-09, global = -1.96527e-20, cumulative = 3.90878e-20
[OGL LOG] init_preconditioner : 0 ms
[OGL LOG] solve : 2229 ms
BJompGKOBiCGStab:  Solving for p, Initial residual = 0.560924, Final residual = 1.35799e-07, No Iterations 320
time step continuity errors : sum local = 2.258e-10, global = 9.3725e-21, cumulative = 4.84603e-20
ExecutionTime = 64.12 s  ClockTime = 18 s

Time = 0.008

Courant Number mean: 0.123244 max: 0.890103
[OGL LOG] init_host_sparsity_pattern : 33 ms
[OGL LOG] matrix not stored update host matrix
[OGL LOG] update_host_mtx : 15 ms
[OGL LOG] matrix is not yet sorted, sorting host matrix
[OGL LOG] sort_host_mtx_sparsity_pattern : 22 ms
[OGL LOG] sort_host_mtx : 12 ms
[OGL LOG] init_preconditioner : 0 ms
[OGL LOG] solve : 220 ms
BJompGKOBiCGStab:  Solving for Ux, Initial residual = 0.0341366, Final residual = 8.92478e-07, No Iterations 30
[OGL LOG] init_host_sparsity_pattern : 33 ms
[OGL LOG] matrix not stored update host matrix
[OGL LOG] update_host_mtx : 15 ms
[OGL LOG] matrix is not yet sorted, sorting host matrix
[OGL LOG] sort_host_mtx_sparsity_pattern : 22 ms
[OGL LOG] sort_host_mtx : 12 ms
[OGL LOG] init_preconditioner : 0 ms
[OGL LOG] solve : 261 ms
BJompGKOBiCGStab:  Solving for Uy, Initial residual = 0.132389, Final residual = 7.41334e-07, No Iterations 36
[OGL LOG] init_host_sparsity_pattern : 33 ms
[OGL LOG] matrix not stored update host matrix
[OGL LOG] update_host_mtx : 15 ms
[OGL LOG] matrix is not yet sorted, sorting host matrix
[OGL LOG] sort_host_mtx_sparsity_pattern : 22 ms
[OGL LOG] sort_host_mtx : 12 ms
[OGL LOG] init_preconditioner : 0 ms
[OGL LOG] solve : 287 ms
BJompGKOBiCGStab:  Solving for Uz, Initial residual = 0.472667, Final residual = 8.7002e-07, No Iterations 38
[OGL LOG] init_preconditioner : 0 ms
[OGL LOG] solve : 2199 ms
BJompGKOBiCGStab:  Solving for p, Initial residual = 0.423046, Final residual = 3.4352e-07, No Iterations 313
time step continuity errors : sum local = 7.18965e-10, global = -3.34083e-20, cumulative = 1.5052e-20
[OGL LOG] init_preconditioner : 0 ms
[OGL LOG] solve : 2213 ms
BJompGKOBiCGStab:  Solving for p, Initial residual = 0.368367, Final residual = 6.45637e-07, No Iterations 318
time step continuity errors : sum local = 1.03634e-09, global = -3.34184e-20, cumulative = -1.83664e-20
ExecutionTime = 85.27 s  ClockTime = 24 s

Time = 0.01

Courant Number mean: 0.136096 max: 0.906942
[OGL LOG] init_host_sparsity_pattern : 33 ms
[OGL LOG] matrix not stored update host matrix
[OGL LOG] update_host_mtx : 16 ms
[OGL LOG] matrix is not yet sorted, sorting host matrix
[OGL LOG] sort_host_mtx_sparsity_pattern : 23 ms
[OGL LOG] sort_host_mtx : 12 ms
[OGL LOG] init_preconditioner : 0 ms
[OGL LOG] solve : 215 ms
BJompGKOBiCGStab:  Solving for Ux, Initial residual = 0.0230763, Final residual = 8.36433e-07, No Iterations 29
[OGL LOG] init_host_sparsity_pattern : 33 ms
[OGL LOG] matrix not stored update host matrix
[OGL LOG] update_host_mtx : 15 ms
[OGL LOG] matrix is not yet sorted, sorting host matrix
[OGL LOG] sort_host_mtx_sparsity_pattern : 22 ms
[OGL LOG] sort_host_mtx : 12 ms
[OGL LOG] init_preconditioner : 0 ms
[OGL LOG] solve : 229 ms
BJompGKOBiCGStab:  Solving for Uy, Initial residual = 0.0483976, Final residual = 9.86851e-07, No Iterations 31
[OGL LOG] init_host_sparsity_pattern : 32 ms
[OGL LOG] matrix not stored update host matrix
[OGL LOG] update_host_mtx : 15 ms
[OGL LOG] matrix is not yet sorted, sorting host matrix
[OGL LOG] sort_host_mtx_sparsity_pattern : 22 ms
[OGL LOG] sort_host_mtx : 12 ms
[OGL LOG] init_preconditioner : 0 ms
[OGL LOG] solve : 252 ms
BJompGKOBiCGStab:  Solving for Uz, Initial residual = 0.159573, Final residual = 8.88829e-07, No Iterations 34
[OGL LOG] init_preconditioner : 0 ms
[OGL LOG] solve : 2162 ms
BJompGKOBiCGStab:  Solving for p, Initial residual = 0.361689, Final residual = 9.41211e-07, No Iterations 308
time step continuity errors : sum local = 1.56939e-09, global = -3.31874e-21, cumulative = -2.16852e-20
[OGL LOG] init_preconditioner : 0 ms
[OGL LOG] solve : 1907 ms
BJompGKOBiCGStab:  Solving for p, Initial residual = 0.333183, Final residual = 5.61163e-07, No Iterations 273
time step continuity errors : sum local = 5.62014e-09, global = 3.94143e-20, cumulative = 1.77292e-20
ExecutionTime = 104.75 s  ClockTime = 29 s

End

