/*---------------------------------------------------------------------------*\
  =========                 |
  \\      /  F ield         | OpenFOAM: The Open Source CFD Toolbox
   \\    /   O peration     | Website:  https://openfoam.org
    \\  /    A nd           | Version:  8
     \\/     M anipulation  |
\*---------------------------------------------------------------------------*/
Build  : 8-13d66902f78c
Exec   : icoFoam
Date   : Jul 12 2021
Time   : 12:57:35
Host   : "uc2n402.localdomain"
PID    : 3433304
I/O    : uncollated
Case   : /pfs/data5/home/kit/scc/nq7776/code/OGL_DATA/lidDrivenCavity3D/v0.1-136-g40fef35/f584ccac99/IntelXeonGold6230CPU@2.10GHz/Test_2021-07-12-12:43:44/50/p-U-CG-GKO-none-omp/lidDrivenCavity3D
nProcs : 1
sigFpe : Enabling floating point exception trapping (FOAM_SIGFPE).
fileModificationChecking : Monitoring run-time modified files using timeStampMaster (fileModificationSkew 10)
allowSystemOperations : Allowing user-supplied system call operations

// * * * * * * * * * * * * * * * * * * * * * * * * * * * * * * * * * * * * * //
Create time

Create mesh for time = 0

Reading transportProperties

Reading field p

Reading field U

Reading/calculating face flux field phi


Starting time loop

Time = 0.002

Courant Number mean: 0 max: 0
[OGL LOG] init_host_sparsity_pattern : 35 ms
[OGL LOG] matrix not stored update host matrix
[OGL LOG] update_host_mtx : 18 ms
[OGL LOG] matrix is not yet sorted, compute sorting idxs
[OGL LOG] compute_sort : 986 ms
[OGL LOG] matrix is not yet sorted, sorting host matrix
[OGL LOG] sort_host_mtx_sparsity_pattern : 23 ms
[OGL LOG] sort_host_mtx : 15 ms
[OGL LOG] init_preconditioner : 0 ms
[OGL LOG] solve : 127 ms
noneompGKOBiCGStab:  Solving for Ux, Initial residual = 1, Final residual = 8.72813e-07, No Iterations 41
[OGL LOG] init_host_sparsity_pattern : 35 ms
[OGL LOG] matrix not stored update host matrix
[OGL LOG] update_host_mtx : 18 ms
[OGL LOG] matrix is not yet sorted, sorting host matrix
[OGL LOG] sort_host_mtx_sparsity_pattern : 23 ms
[OGL LOG] sort_host_mtx : 12 ms
[OGL LOG] init_preconditioner : 0 ms
[OGL LOG] solve : 3 ms
noneompGKOBiCGStab:  Solving for Uy, Initial residual = 0, Final residual = 0, No Iterations 0
[OGL LOG] init_host_sparsity_pattern : 33 ms
[OGL LOG] matrix not stored update host matrix
[OGL LOG] update_host_mtx : 15 ms
[OGL LOG] matrix is not yet sorted, sorting host matrix
[OGL LOG] sort_host_mtx_sparsity_pattern : 23 ms
[OGL LOG] sort_host_mtx : 12 ms
[OGL LOG] init_preconditioner : 0 ms
[OGL LOG] solve : 3 ms
noneompGKOBiCGStab:  Solving for Uz, Initial residual = 0, Final residual = 0, No Iterations 0
[OGL LOG] init_host_sparsity_pattern : 33 ms
[OGL LOG] matrix not stored update host matrix
[OGL LOG] update_host_mtx : 18 ms
[OGL LOG] matrix is not yet sorted, sorting host matrix
[OGL LOG] sort_host_mtx_sparsity_pattern : 22 ms
[OGL LOG] sort_host_mtx : 13 ms
[OGL LOG] init_preconditioner : 0 ms
[OGL LOG] solve : 674 ms
noneompGKOCG:  Solving for p, Initial residual = 1, Final residual = 9.0118e-07, No Iterations 444
time step continuity errors : sum local = 1.48387e-09, global = -3.82329e-22, cumulative = -3.82329e-22
[OGL LOG] init_preconditioner : 0 ms
[OGL LOG] solve : 625 ms
noneompGKOCG:  Solving for p, Initial residual = 0.721583, Final residual = 9.34444e-07, No Iterations 440
time step continuity errors : sum local = 2.04003e-09, global = -1.96155e-21, cumulative = -2.34388e-21
ExecutionTime = 25.43 s  ClockTime = 3 s

Time = 0.004

Courant Number mean: 0.0720722 max: 0.726639
[OGL LOG] init_host_sparsity_pattern : 33 ms
[OGL LOG] matrix not stored update host matrix
[OGL LOG] update_host_mtx : 19 ms
[OGL LOG] matrix is not yet sorted, sorting host matrix
[OGL LOG] sort_host_mtx_sparsity_pattern : 28 ms
[OGL LOG] sort_host_mtx : 12 ms
[OGL LOG] init_preconditioner : 0 ms
[OGL LOG] solve : 110 ms
noneompGKOBiCGStab:  Solving for Ux, Initial residual = 0.203465, Final residual = 9.21531e-07, No Iterations 38
[OGL LOG] init_host_sparsity_pattern : 33 ms
[OGL LOG] matrix not stored update host matrix
[OGL LOG] update_host_mtx : 15 ms
[OGL LOG] matrix is not yet sorted, sorting host matrix
[OGL LOG] sort_host_mtx_sparsity_pattern : 21 ms
[OGL LOG] sort_host_mtx : 12 ms
[OGL LOG] init_preconditioner : 0 ms
[OGL LOG] solve : 109 ms
noneompGKOBiCGStab:  Solving for Uy, Initial residual = 0.618431, Final residual = 9.62047e-07, No Iterations 38
[OGL LOG] init_host_sparsity_pattern : 33 ms
[OGL LOG] matrix not stored update host matrix
[OGL LOG] update_host_mtx : 16 ms
[OGL LOG] matrix is not yet sorted, sorting host matrix
[OGL LOG] sort_host_mtx_sparsity_pattern : 21 ms
[OGL LOG] sort_host_mtx : 12 ms
[OGL LOG] init_preconditioner : 0 ms
[OGL LOG] solve : 107 ms
noneompGKOBiCGStab:  Solving for Uz, Initial residual = 0.536266, Final residual = 9.9225e-07, No Iterations 37
[OGL LOG] init_preconditioner : 0 ms
[OGL LOG] solve : 652 ms
noneompGKOCG:  Solving for p, Initial residual = 0.673318, Final residual = 9.96788e-07, No Iterations 433
time step continuity errors : sum local = 2.36425e-09, global = 1.91299e-20, cumulative = 1.6786e-20
[OGL LOG] init_preconditioner : 0 ms
[OGL LOG] solve : 657 ms
noneompGKOCG:  Solving for p, Initial residual = 0.598888, Final residual = 9.82596e-07, No Iterations 433
time step continuity errors : sum local = 2.392e-09, global = -1.11583e-20, cumulative = 5.62771e-21
ExecutionTime = 52.43 s  ClockTime = 5 s

Time = 0.006

Courant Number mean: 0.107408 max: 0.881754
[OGL LOG] init_host_sparsity_pattern : 33 ms
[OGL LOG] matrix not stored update host matrix
[OGL LOG] update_host_mtx : 16 ms
[OGL LOG] matrix is not yet sorted, sorting host matrix
[OGL LOG] sort_host_mtx_sparsity_pattern : 24 ms
[OGL LOG] sort_host_mtx : 12 ms
[OGL LOG] init_preconditioner : 0 ms
[OGL LOG] solve : 103 ms
noneompGKOBiCGStab:  Solving for Ux, Initial residual = 0.0995682, Final residual = 7.73472e-07, No Iterations 35
[OGL LOG] init_host_sparsity_pattern : 33 ms
[OGL LOG] matrix not stored update host matrix
[OGL LOG] update_host_mtx : 16 ms
[OGL LOG] matrix is not yet sorted, sorting host matrix
[OGL LOG] sort_host_mtx_sparsity_pattern : 21 ms
[OGL LOG] sort_host_mtx : 12 ms
[OGL LOG] init_preconditioner : 0 ms
[OGL LOG] solve : 106 ms
noneompGKOBiCGStab:  Solving for Uy, Initial residual = 0.249972, Final residual = 9.66465e-07, No Iterations 36
[OGL LOG] init_host_sparsity_pattern : 33 ms
[OGL LOG] matrix not stored update host matrix
[OGL LOG] update_host_mtx : 15 ms
[OGL LOG] matrix is not yet sorted, sorting host matrix
[OGL LOG] sort_host_mtx_sparsity_pattern : 21 ms
[OGL LOG] sort_host_mtx : 12 ms
[OGL LOG] init_preconditioner : 0 ms
[OGL LOG] solve : 111 ms
noneompGKOBiCGStab:  Solving for Uz, Initial residual = 0.540982, Final residual = 6.47537e-07, No Iterations 39
[OGL LOG] init_preconditioner : 0 ms
[OGL LOG] solve : 665 ms
noneompGKOCG:  Solving for p, Initial residual = 0.606885, Final residual = 9.21307e-07, No Iterations 437
time step continuity errors : sum local = 1.56882e-09, global = -3.79625e-21, cumulative = 1.83147e-21
[OGL LOG] init_preconditioner : 0 ms
[OGL LOG] solve : 654 ms
noneompGKOCG:  Solving for p, Initial residual = 0.560842, Final residual = 9.47106e-07, No Iterations 436
time step continuity errors : sum local = 1.55895e-09, global = 4.91105e-20, cumulative = 5.0942e-20
ExecutionTime = 79.44 s  ClockTime = 7 s

Time = 0.008

Courant Number mean: 0.123244 max: 0.890102
[OGL LOG] init_host_sparsity_pattern : 32 ms
[OGL LOG] matrix not stored update host matrix
[OGL LOG] update_host_mtx : 15 ms
[OGL LOG] matrix is not yet sorted, sorting host matrix
[OGL LOG] sort_host_mtx_sparsity_pattern : 21 ms
[OGL LOG] sort_host_mtx : 12 ms
[OGL LOG] init_preconditioner : 0 ms
[OGL LOG] solve : 88 ms
noneompGKOBiCGStab:  Solving for Ux, Initial residual = 0.0341421, Final residual = 8.43633e-07, No Iterations 31
[OGL LOG] init_host_sparsity_pattern : 33 ms
[OGL LOG] matrix not stored update host matrix
[OGL LOG] update_host_mtx : 15 ms
[OGL LOG] matrix is not yet sorted, sorting host matrix
[OGL LOG] sort_host_mtx_sparsity_pattern : 21 ms
[OGL LOG] sort_host_mtx : 12 ms
[OGL LOG] init_preconditioner : 0 ms
[OGL LOG] solve : 96 ms
noneompGKOBiCGStab:  Solving for Uy, Initial residual = 0.132381, Final residual = 8.80133e-07, No Iterations 34
[OGL LOG] init_host_sparsity_pattern : 34 ms
[OGL LOG] matrix not stored update host matrix
[OGL LOG] update_host_mtx : 16 ms
[OGL LOG] matrix is not yet sorted, sorting host matrix
[OGL LOG] sort_host_mtx_sparsity_pattern : 21 ms
[OGL LOG] sort_host_mtx : 12 ms
[OGL LOG] init_preconditioner : 0 ms
[OGL LOG] solve : 117 ms
noneompGKOBiCGStab:  Solving for Uz, Initial residual = 0.471968, Final residual = 4.46777e-07, No Iterations 38
[OGL LOG] init_preconditioner : 0 ms
[OGL LOG] solve : 657 ms
noneompGKOCG:  Solving for p, Initial residual = 0.423037, Final residual = 9.26277e-07, No Iterations 435
time step continuity errors : sum local = 1.4625e-09, global = 2.84065e-21, cumulative = 5.37826e-20
[OGL LOG] init_preconditioner : 0 ms
[OGL LOG] solve : 649 ms
noneompGKOCG:  Solving for p, Initial residual = 0.368377, Final residual = 9.77739e-07, No Iterations 433
time step continuity errors : sum local = 1.56606e-09, global = -2.03137e-20, cumulative = 3.34689e-20
ExecutionTime = 105.94 s  ClockTime = 9 s

Time = 0.01

Courant Number mean: 0.136096 max: 0.906942
[OGL LOG] init_host_sparsity_pattern : 33 ms
[OGL LOG] matrix not stored update host matrix
[OGL LOG] update_host_mtx : 16 ms
[OGL LOG] matrix is not yet sorted, sorting host matrix
[OGL LOG] sort_host_mtx_sparsity_pattern : 22 ms
[OGL LOG] sort_host_mtx : 12 ms
[OGL LOG] init_preconditioner : 0 ms
[OGL LOG] solve : 85 ms
noneompGKOBiCGStab:  Solving for Ux, Initial residual = 0.0230738, Final residual = 9.76913e-07, No Iterations 29
[OGL LOG] init_host_sparsity_pattern : 33 ms
[OGL LOG] matrix not stored update host matrix
[OGL LOG] update_host_mtx : 15 ms
[OGL LOG] matrix is not yet sorted, sorting host matrix
[OGL LOG] sort_host_mtx_sparsity_pattern : 21 ms
[OGL LOG] sort_host_mtx : 12 ms
[OGL LOG] init_preconditioner : 0 ms
[OGL LOG] solve : 92 ms
noneompGKOBiCGStab:  Solving for Uy, Initial residual = 0.0484116, Final residual = 8.583e-07, No Iterations 32
[OGL LOG] init_host_sparsity_pattern : 33 ms
[OGL LOG] matrix not stored update host matrix
[OGL LOG] update_host_mtx : 15 ms
[OGL LOG] matrix is not yet sorted, sorting host matrix
[OGL LOG] sort_host_mtx_sparsity_pattern : 21 ms
[OGL LOG] sort_host_mtx : 12 ms
[OGL LOG] init_preconditioner : 0 ms
[OGL LOG] solve : 102 ms
noneompGKOBiCGStab:  Solving for Uz, Initial residual = 0.159037, Final residual = 3.379e-07, No Iterations 36
[OGL LOG] init_preconditioner : 0 ms
[OGL LOG] solve : 660 ms
noneompGKOCG:  Solving for p, Initial residual = 0.361666, Final residual = 9.31158e-07, No Iterations 434
time step continuity errors : sum local = 1.27227e-09, global = 1.27541e-20, cumulative = 4.62231e-20
[OGL LOG] init_preconditioner : 0 ms
[OGL LOG] solve : 651 ms
noneompGKOCG:  Solving for p, Initial residual = 0.33316, Final residual = 9.46375e-07, No Iterations 433
time step continuity errors : sum local = 1.28149e-09, global = 1.75678e-20, cumulative = 6.37909e-20
ExecutionTime = 132.18 s  ClockTime = 11 s

End

