/*---------------------------------------------------------------------------*\
  =========                 |
  \\      /  F ield         | OpenFOAM: The Open Source CFD Toolbox
   \\    /   O peration     | Website:  https://openfoam.org
    \\  /    A nd           | Version:  8
     \\/     M anipulation  |
\*---------------------------------------------------------------------------*/
Build  : 8-13d66902f78c
Exec   : icoFoam
Date   : Jul 13 2021
Time   : 22:07:02
Host   : "uc2n394.localdomain"
PID    : 3254244
I/O    : uncollated
Case   : /pfs/data5/home/kit/scc/nq7776/code/OGL_DATA/lidDrivenCavity3D/v0.1-136-g40fef35/f584ccac99/IntelXeonGold6230CPU@2.10GHz/Test_2021-07-13-21:48:55/75/p-CG-GKO-none-omp/lidDrivenCavity3D
nProcs : 1
sigFpe : Enabling floating point exception trapping (FOAM_SIGFPE).
fileModificationChecking : Monitoring run-time modified files using timeStampMaster (fileModificationSkew 10)
allowSystemOperations : Allowing user-supplied system call operations

// * * * * * * * * * * * * * * * * * * * * * * * * * * * * * * * * * * * * * //
Create time

Create mesh for time = 0

Reading transportProperties

Reading field p

Reading field U

Reading/calculating face flux field phi


Starting time loop

Time = 0.00133333

Courant Number mean: 0 max: 0
nonePBiCGStab:  Solving for Ux, Initial residual = 1, Final residual = 0.0730209, No Iterations 5
nonePBiCGStab:  Solving for Uy, Initial residual = 0, Final residual = 0, No Iterations 0
nonePBiCGStab:  Solving for Uz, Initial residual = 0, Final residual = 0, No Iterations 0
[OGL LOG] init_host_sparsity_pattern : 124 ms
[OGL LOG] matrix not stored update host matrix
[OGL LOG] update_host_mtx : 62 ms
[OGL LOG] matrix is not yet sorted, compute sorting idxs
[OGL LOG] compute_sort : 3344 ms
[OGL LOG] matrix is not yet sorted, sorting host matrix
[OGL LOG] sort_host_mtx_sparsity_pattern : 80 ms
[OGL LOG] sort_host_mtx : 51 ms
[OGL LOG] init_preconditioner : 0 ms
[OGL LOG] solve : 9004 ms
noneompGKOCG:  Solving for p, Initial residual = 1, Final residual = 9.51892e-07, No Iterations 672
time step continuity errors : sum local = 6.04784e-10, global = 1.66216e-20, cumulative = 1.66216e-20
[OGL LOG] init_preconditioner : 0 ms
[OGL LOG] solve : 8938 ms
noneompGKOCG:  Solving for p, Initial residual = 0.697098, Final residual = 9.55566e-07, No Iterations 667
time step continuity errors : sum local = 8.46818e-10, global = -1.41678e-21, cumulative = 1.52048e-20
ExecutionTime = 23.58 s  ClockTime = 24 s

Time = 0.00266667

Courant Number mean: 0.0508075 max: 0.767258
nonePBiCGStab:  Solving for Ux, Initial residual = 0.140589, Final residual = 0.0324514, No Iterations 5
nonePBiCGStab:  Solving for Uy, Initial residual = 0.413641, Final residual = 0.092326, No Iterations 5
nonePBiCGStab:  Solving for Uz, Initial residual = 0.983212, Final residual = 0.249881, No Iterations 5
[OGL LOG] init_preconditioner : 0 ms
[OGL LOG] solve : 8639 ms
noneompGKOCG:  Solving for p, Initial residual = 0.746892, Final residual = 9.65469e-07, No Iterations 644
time step continuity errors : sum local = 1.50752e-09, global = -1.54949e-20, cumulative = -2.90139e-22
[OGL LOG] init_preconditioner : 0 ms
[OGL LOG] solve : 8583 ms
noneompGKOCG:  Solving for p, Initial residual = 0.668132, Final residual = 9.40643e-07, No Iterations 642
time step continuity errors : sum local = 1.30147e-09, global = -1.63658e-20, cumulative = -1.66559e-20
ExecutionTime = 41.24 s  ClockTime = 41 s

Time = 0.004

Courant Number mean: 0.0796134 max: 0.886044
nonePBiCGStab:  Solving for Ux, Initial residual = 0.0584495, Final residual = 0.0111487, No Iterations 5
nonePBiCGStab:  Solving for Uy, Initial residual = 0.171954, Final residual = 0.0398777, No Iterations 5
nonePBiCGStab:  Solving for Uz, Initial residual = 0.610948, Final residual = 0.142317, No Iterations 5
[OGL LOG] init_preconditioner : 0 ms
[OGL LOG] solve : 8711 ms
noneompGKOCG:  Solving for p, Initial residual = 0.73036, Final residual = 9.66517e-07, No Iterations 650
time step continuity errors : sum local = 1.12396e-09, global = -1.89759e-21, cumulative = -1.85535e-20
[OGL LOG] init_preconditioner : 0 ms
[OGL LOG] solve : 8653 ms
noneompGKOCG:  Solving for p, Initial residual = 0.660892, Final residual = 9.97027e-07, No Iterations 647
time step continuity errors : sum local = 9.92162e-10, global = -2.36051e-21, cumulative = -2.0914e-20
ExecutionTime = 59.03 s  ClockTime = 59 s

Time = 0.00533333

Courant Number mean: 0.0948106 max: 0.902572
nonePBiCGStab:  Solving for Ux, Initial residual = 0.034594, Final residual = 0.00682892, No Iterations 5
nonePBiCGStab:  Solving for Uy, Initial residual = 0.11955, Final residual = 0.0298198, No Iterations 5
nonePBiCGStab:  Solving for Uz, Initial residual = 0.386287, Final residual = 0.0806814, No Iterations 5
[OGL LOG] init_preconditioner : 0 ms
[OGL LOG] solve : 8615 ms
noneompGKOCG:  Solving for p, Initial residual = 0.609797, Final residual = 9.74555e-07, No Iterations 640
time step continuity errors : sum local = 1.02513e-09, global = -1.69747e-20, cumulative = -3.78887e-20
[OGL LOG] init_preconditioner : 0 ms
[OGL LOG] solve : 8543 ms
noneompGKOCG:  Solving for p, Initial residual = 0.521107, Final residual = 9.81033e-07, No Iterations 637
time step continuity errors : sum local = 1.00644e-09, global = 3.54424e-21, cumulative = -3.43444e-20
ExecutionTime = 76.61 s  ClockTime = 77 s

Time = 0.00666667

Courant Number mean: 0.107177 max: 0.916781
nonePBiCGStab:  Solving for Ux, Initial residual = 0.0257325, Final residual = 0.00503143, No Iterations 5
nonePBiCGStab:  Solving for Uy, Initial residual = 0.0750463, Final residual = 0.0208208, No Iterations 5
nonePBiCGStab:  Solving for Uz, Initial residual = 0.212733, Final residual = 0.049546, No Iterations 5
[OGL LOG] init_preconditioner : 0 ms
[OGL LOG] solve : 8574 ms
noneompGKOCG:  Solving for p, Initial residual = 0.629324, Final residual = 9.81565e-07, No Iterations 638
time step continuity errors : sum local = 9.07701e-10, global = -6.82697e-22, cumulative = -3.50271e-20
[OGL LOG] init_preconditioner : 0 ms
[OGL LOG] solve : 8555 ms
noneompGKOCG:  Solving for p, Initial residual = 0.552157, Final residual = 9.52069e-07, No Iterations 637
time step continuity errors : sum local = 8.18199e-10, global = -1.62607e-20, cumulative = -5.12878e-20
ExecutionTime = 94.17 s  ClockTime = 94 s

End

