/*---------------------------------------------------------------------------*\
  =========                 |
  \\      /  F ield         | OpenFOAM: The Open Source CFD Toolbox
   \\    /   O peration     | Website:  https://openfoam.org
    \\  /    A nd           | Version:  8
     \\/     M anipulation  |
\*---------------------------------------------------------------------------*/
Build  : 8-13d66902f78c
Exec   : icoFoam
Date   : Jul 14 2021
Time   : 01:56:43
Host   : "uc2n398.localdomain"
PID    : 543450
I/O    : uncollated
Case   : /pfs/data5/home/kit/scc/nq7776/code/OGL_DATA/lidDrivenCavity3D/v0.1-136-g40fef35/f584ccac99/IntelXeonGold6230CPU@2.10GHz/Test_2021-07-14-01:40:40/50/p-U-BiCGStab-GKO-BJ-omp/lidDrivenCavity3D
nProcs : 1
sigFpe : Enabling floating point exception trapping (FOAM_SIGFPE).
fileModificationChecking : Monitoring run-time modified files using timeStampMaster (fileModificationSkew 10)
allowSystemOperations : Allowing user-supplied system call operations

// * * * * * * * * * * * * * * * * * * * * * * * * * * * * * * * * * * * * * //
Create time

Create mesh for time = 0

Reading transportProperties

Reading field p

Reading field U

Reading/calculating face flux field phi


Starting time loop

Time = 0.002

Courant Number mean: 0 max: 0
[OGL LOG] init_host_sparsity_pattern : 35 ms
[OGL LOG] matrix not stored update host matrix
[OGL LOG] update_host_mtx : 18 ms
[OGL LOG] matrix is not yet sorted, compute sorting idxs
[OGL LOG] compute_sort : 915 ms
[OGL LOG] matrix is not yet sorted, sorting host matrix
[OGL LOG] sort_host_mtx_sparsity_pattern : 23 ms
[OGL LOG] sort_host_mtx : 15 ms
[OGL LOG] init_preconditioner : 18 ms
[OGL LOG] solve : 488 ms
BJompGKOBiCGStab:  Solving for Ux, Initial residual = 1, Final residual = 3.61163e-07, No Iterations 40
[OGL LOG] init_host_sparsity_pattern : 34 ms
[OGL LOG] matrix not stored update host matrix
[OGL LOG] update_host_mtx : 18 ms
[OGL LOG] matrix is not yet sorted, sorting host matrix
[OGL LOG] sort_host_mtx_sparsity_pattern : 23 ms
[OGL LOG] sort_host_mtx : 12 ms
[OGL LOG] init_preconditioner : 20 ms
[OGL LOG] solve : 10 ms
BJompGKOBiCGStab:  Solving for Uy, Initial residual = 0, Final residual = 0, No Iterations 0
[OGL LOG] init_host_sparsity_pattern : 33 ms
[OGL LOG] matrix not stored update host matrix
[OGL LOG] update_host_mtx : 16 ms
[OGL LOG] matrix is not yet sorted, sorting host matrix
[OGL LOG] sort_host_mtx_sparsity_pattern : 23 ms
[OGL LOG] sort_host_mtx : 12 ms
[OGL LOG] init_preconditioner : 19 ms
[OGL LOG] solve : 9 ms
BJompGKOBiCGStab:  Solving for Uz, Initial residual = 0, Final residual = 0, No Iterations 0
[OGL LOG] init_host_sparsity_pattern : 33 ms
[OGL LOG] matrix not stored update host matrix
[OGL LOG] update_host_mtx : 18 ms
[OGL LOG] matrix is not yet sorted, sorting host matrix
[OGL LOG] sort_host_mtx_sparsity_pattern : 22 ms
[OGL LOG] sort_host_mtx : 13 ms
[OGL LOG] init_preconditioner : 19 ms
[OGL LOG] solve : 3822 ms
BJompGKOBiCGStab:  Solving for p, Initial residual = 1, Final residual = 8.1634e-07, No Iterations 313
time step continuity errors : sum local = 1.93283e-08, global = 1.41651e-20, cumulative = 1.41651e-20
[OGL LOG] init_preconditioner : 0 ms
[OGL LOG] solve : 3861 ms
BJompGKOBiCGStab:  Solving for p, Initial residual = 0.721577, Final residual = 9.87194e-07, No Iterations 317
time step continuity errors : sum local = 1.16921e-08, global = -1.97764e-20, cumulative = -5.61133e-21
ExecutionTime = 18.49 s  ClockTime = 10 s

Time = 0.004

Courant Number mean: 0.0720723 max: 0.726639
[OGL LOG] init_host_sparsity_pattern : 33 ms
[OGL LOG] matrix not stored update host matrix
[OGL LOG] update_host_mtx : 16 ms
[OGL LOG] matrix is not yet sorted, sorting host matrix
[OGL LOG] sort_host_mtx_sparsity_pattern : 25 ms
[OGL LOG] sort_host_mtx : 13 ms
[OGL LOG] init_preconditioner : 0 ms
[OGL LOG] solve : 400 ms
BJompGKOBiCGStab:  Solving for Ux, Initial residual = 0.203462, Final residual = 8.31621e-07, No Iterations 30
[OGL LOG] init_host_sparsity_pattern : 33 ms
[OGL LOG] matrix not stored update host matrix
[OGL LOG] update_host_mtx : 16 ms
[OGL LOG] matrix is not yet sorted, sorting host matrix
[OGL LOG] sort_host_mtx_sparsity_pattern : 22 ms
[OGL LOG] sort_host_mtx : 12 ms
[OGL LOG] init_preconditioner : 0 ms
[OGL LOG] solve : 483 ms
BJompGKOBiCGStab:  Solving for Uy, Initial residual = 0.618433, Final residual = 2.81548e-07, No Iterations 39
[OGL LOG] init_host_sparsity_pattern : 33 ms
[OGL LOG] matrix not stored update host matrix
[OGL LOG] update_host_mtx : 16 ms
[OGL LOG] matrix is not yet sorted, sorting host matrix
[OGL LOG] sort_host_mtx_sparsity_pattern : 22 ms
[OGL LOG] sort_host_mtx : 12 ms
[OGL LOG] init_preconditioner : 0 ms
[OGL LOG] solve : 459 ms
BJompGKOBiCGStab:  Solving for Uz, Initial residual = 0.536179, Final residual = 3.02597e-07, No Iterations 37
[OGL LOG] init_preconditioner : 0 ms
[OGL LOG] solve : 3947 ms
BJompGKOBiCGStab:  Solving for p, Initial residual = 0.673321, Final residual = 9.9436e-07, No Iterations 322
time step continuity errors : sum local = 3.22897e-09, global = 1.89761e-20, cumulative = 1.33648e-20
[OGL LOG] init_preconditioner : 0 ms
[OGL LOG] solve : 3965 ms
BJompGKOBiCGStab:  Solving for p, Initial residual = 0.598892, Final residual = 8.64963e-07, No Iterations 325
time step continuity errors : sum local = 1.12367e-07, global = 4.15617e-20, cumulative = 5.49265e-20
ExecutionTime = 37.39 s  ClockTime = 20 s

Time = 0.006

Courant Number mean: 0.107408 max: 0.881755
[OGL LOG] init_host_sparsity_pattern : 33 ms
[OGL LOG] matrix not stored update host matrix
[OGL LOG] update_host_mtx : 16 ms
[OGL LOG] matrix is not yet sorted, sorting host matrix
[OGL LOG] sort_host_mtx_sparsity_pattern : 24 ms
[OGL LOG] sort_host_mtx : 12 ms
[OGL LOG] init_preconditioner : 0 ms
[OGL LOG] solve : 427 ms
BJompGKOBiCGStab:  Solving for Ux, Initial residual = 0.0995757, Final residual = 8.72434e-07, No Iterations 34
[OGL LOG] init_host_sparsity_pattern : 33 ms
[OGL LOG] matrix not stored update host matrix
[OGL LOG] update_host_mtx : 15 ms
[OGL LOG] matrix is not yet sorted, sorting host matrix
[OGL LOG] sort_host_mtx_sparsity_pattern : 21 ms
[OGL LOG] sort_host_mtx : 12 ms
[OGL LOG] init_preconditioner : 0 ms
[OGL LOG] solve : 409 ms
BJompGKOBiCGStab:  Solving for Uy, Initial residual = 0.249949, Final residual = 7.29923e-07, No Iterations 33
[OGL LOG] init_host_sparsity_pattern : 33 ms
[OGL LOG] matrix not stored update host matrix
[OGL LOG] update_host_mtx : 16 ms
[OGL LOG] matrix is not yet sorted, sorting host matrix
[OGL LOG] sort_host_mtx_sparsity_pattern : 21 ms
[OGL LOG] sort_host_mtx : 12 ms
[OGL LOG] init_preconditioner : 0 ms
[OGL LOG] solve : 482 ms
BJompGKOBiCGStab:  Solving for Uz, Initial residual = 0.541257, Final residual = 4.02455e-07, No Iterations 39
[OGL LOG] init_preconditioner : 0 ms
[OGL LOG] solve : 4037 ms
BJompGKOBiCGStab:  Solving for p, Initial residual = 0.606904, Final residual = 7.76681e-07, No Iterations 334
time step continuity errors : sum local = 2.23208e-09, global = 3.30642e-20, cumulative = 8.79907e-20
[OGL LOG] init_preconditioner : 0 ms
[OGL LOG] solve : 3773 ms
BJompGKOBiCGStab:  Solving for p, Initial residual = 0.560811, Final residual = 8.8587e-07, No Iterations 312
time step continuity errors : sum local = 1.8869e-09, global = 5.18135e-20, cumulative = 1.39804e-19
ExecutionTime = 56.02 s  ClockTime = 29 s

Time = 0.008

Courant Number mean: 0.123244 max: 0.890103
[OGL LOG] init_host_sparsity_pattern : 33 ms
[OGL LOG] matrix not stored update host matrix
[OGL LOG] update_host_mtx : 16 ms
[OGL LOG] matrix is not yet sorted, sorting host matrix
[OGL LOG] sort_host_mtx_sparsity_pattern : 21 ms
[OGL LOG] sort_host_mtx : 12 ms
[OGL LOG] init_preconditioner : 0 ms
[OGL LOG] solve : 376 ms
BJompGKOBiCGStab:  Solving for Ux, Initial residual = 0.0341476, Final residual = 9.02259e-07, No Iterations 30
[OGL LOG] init_host_sparsity_pattern : 33 ms
[OGL LOG] matrix not stored update host matrix
[OGL LOG] update_host_mtx : 16 ms
[OGL LOG] matrix is not yet sorted, sorting host matrix
[OGL LOG] sort_host_mtx_sparsity_pattern : 21 ms
[OGL LOG] sort_host_mtx : 12 ms
[OGL LOG] init_preconditioner : 0 ms
[OGL LOG] solve : 449 ms
BJompGKOBiCGStab:  Solving for Uy, Initial residual = 0.132382, Final residual = 7.58008e-07, No Iterations 36
[OGL LOG] init_host_sparsity_pattern : 33 ms
[OGL LOG] matrix not stored update host matrix
[OGL LOG] update_host_mtx : 16 ms
[OGL LOG] matrix is not yet sorted, sorting host matrix
[OGL LOG] sort_host_mtx_sparsity_pattern : 21 ms
[OGL LOG] sort_host_mtx : 12 ms
[OGL LOG] init_preconditioner : 0 ms
[OGL LOG] solve : 457 ms
BJompGKOBiCGStab:  Solving for Uz, Initial residual = 0.472843, Final residual = 6.53121e-07, No Iterations 37
[OGL LOG] init_preconditioner : 0 ms
[OGL LOG] solve : 3766 ms
BJompGKOBiCGStab:  Solving for p, Initial residual = 0.423043, Final residual = 6.70892e-07, No Iterations 312
time step continuity errors : sum local = 1.18817e-09, global = -4.17809e-20, cumulative = 9.80232e-20
[OGL LOG] init_preconditioner : 0 ms
[OGL LOG] solve : 3815 ms
BJompGKOBiCGStab:  Solving for p, Initial residual = 0.368394, Final residual = 9.32834e-07, No Iterations 315
time step continuity errors : sum local = 1.9124e-09, global = 8.1012e-22, cumulative = 9.88333e-20
ExecutionTime = 74.1 s  ClockTime = 39 s

Time = 0.01

Courant Number mean: 0.136096 max: 0.906943
[OGL LOG] init_host_sparsity_pattern : 33 ms
[OGL LOG] matrix not stored update host matrix
[OGL LOG] update_host_mtx : 16 ms
[OGL LOG] matrix is not yet sorted, sorting host matrix
[OGL LOG] sort_host_mtx_sparsity_pattern : 21 ms
[OGL LOG] sort_host_mtx : 12 ms
[OGL LOG] init_preconditioner : 0 ms
[OGL LOG] solve : 364 ms
BJompGKOBiCGStab:  Solving for Ux, Initial residual = 0.0230723, Final residual = 8.42069e-07, No Iterations 29
[OGL LOG] init_host_sparsity_pattern : 33 ms
[OGL LOG] matrix not stored update host matrix
[OGL LOG] update_host_mtx : 16 ms
[OGL LOG] matrix is not yet sorted, sorting host matrix
[OGL LOG] sort_host_mtx_sparsity_pattern : 21 ms
[OGL LOG] sort_host_mtx : 12 ms
[OGL LOG] init_preconditioner : 0 ms
[OGL LOG] solve : 388 ms
BJompGKOBiCGStab:  Solving for Uy, Initial residual = 0.0484221, Final residual = 9.94143e-07, No Iterations 31
[OGL LOG] init_host_sparsity_pattern : 33 ms
[OGL LOG] matrix not stored update host matrix
[OGL LOG] update_host_mtx : 16 ms
[OGL LOG] matrix is not yet sorted, sorting host matrix
[OGL LOG] sort_host_mtx_sparsity_pattern : 21 ms
[OGL LOG] sort_host_mtx : 12 ms
[OGL LOG] init_preconditioner : 0 ms
[OGL LOG] solve : 425 ms
BJompGKOBiCGStab:  Solving for Uz, Initial residual = 0.159024, Final residual = 9.19085e-07, No Iterations 34
[OGL LOG] init_preconditioner : 0 ms
[OGL LOG] solve : 3309 ms
BJompGKOBiCGStab:  Solving for p, Initial residual = 0.361674, Final residual = 5.59915e-07, No Iterations 273
time step continuity errors : sum local = 2.07069e-09, global = 2.1985e-20, cumulative = 1.20818e-19
[OGL LOG] init_preconditioner : 0 ms
[OGL LOG] solve : 3828 ms
BJompGKOBiCGStab:  Solving for p, Initial residual = 0.33316, Final residual = 7.7035e-07, No Iterations 316
time step continuity errors : sum local = 4.06609e-09, global = 2.11174e-20, cumulative = 1.41936e-19
ExecutionTime = 91.1 s  ClockTime = 47 s

End

