/*---------------------------------------------------------------------------*\
  =========                 |
  \\      /  F ield         | OpenFOAM: The Open Source CFD Toolbox
   \\    /   O peration     | Website:  https://openfoam.org
    \\  /    A nd           | Version:  8
     \\/     M anipulation  |
\*---------------------------------------------------------------------------*/
Build  : 8-13d66902f78c
Exec   : icoFoam
Date   : Jul 12 2021
Time   : 15:35:49
Host   : "uc2n445.localdomain"
PID    : 3217055
I/O    : uncollated
Case   : /pfs/data5/home/kit/scc/nq7776/code/OGL_DATA/lidDrivenCavity3D/v0.1-136-g40fef35/f584ccac99/IntelXeonGold6230CPU@2.10GHz/Test_2021-07-12-13:12:59/100/p-U-BiCGStab-GKO-BJ-omp/lidDrivenCavity3D
nProcs : 1
sigFpe : Enabling floating point exception trapping (FOAM_SIGFPE).
fileModificationChecking : Monitoring run-time modified files using timeStampMaster (fileModificationSkew 10)
allowSystemOperations : Allowing user-supplied system call operations

// * * * * * * * * * * * * * * * * * * * * * * * * * * * * * * * * * * * * * //
Create time

Create mesh for time = 0

Reading transportProperties

Reading field p

Reading field U

Reading/calculating face flux field phi


Starting time loop

Time = 0.001

Courant Number mean: 0 max: 0
[OGL LOG] init_host_sparsity_pattern : 292 ms
[OGL LOG] matrix not stored update host matrix
[OGL LOG] update_host_mtx : 146 ms
[OGL LOG] matrix is not yet sorted, compute sorting idxs
[OGL LOG] compute_sort : 9115 ms
[OGL LOG] matrix is not yet sorted, sorting host matrix
[OGL LOG] sort_host_mtx_sparsity_pattern : 185 ms
[OGL LOG] sort_host_mtx : 132 ms
[OGL LOG] init_preconditioner : 144 ms
[OGL LOG] solve : 5185 ms
BJompGKOBiCGStab:  Solving for Ux, Initial residual = 1, Final residual = 9.73391e-07, No Iterations 47
[OGL LOG] init_host_sparsity_pattern : 312 ms
[OGL LOG] matrix not stored update host matrix
[OGL LOG] update_host_mtx : 177 ms
[OGL LOG] matrix is not yet sorted, sorting host matrix
[OGL LOG] sort_host_mtx_sparsity_pattern : 212 ms
[OGL LOG] sort_host_mtx : 125 ms
[OGL LOG] init_preconditioner : 157 ms
[OGL LOG] solve : 96 ms
BJompGKOBiCGStab:  Solving for Uy, Initial residual = 0, Final residual = 0, No Iterations 0
[OGL LOG] init_host_sparsity_pattern : 266 ms
[OGL LOG] matrix not stored update host matrix
[OGL LOG] update_host_mtx : 145 ms
[OGL LOG] matrix is not yet sorted, sorting host matrix
[OGL LOG] sort_host_mtx_sparsity_pattern : 181 ms
[OGL LOG] sort_host_mtx : 125 ms
[OGL LOG] init_preconditioner : 159 ms
[OGL LOG] solve : 93 ms
BJompGKOBiCGStab:  Solving for Uz, Initial residual = 0, Final residual = 0, No Iterations 0
[OGL LOG] init_host_sparsity_pattern : 266 ms
[OGL LOG] matrix not stored update host matrix
[OGL LOG] update_host_mtx : 147 ms
[OGL LOG] matrix is not yet sorted, sorting host matrix
[OGL LOG] sort_host_mtx_sparsity_pattern : 191 ms
[OGL LOG] sort_host_mtx : 124 ms
[OGL LOG] init_preconditioner : 156 ms
[OGL LOG] solve : 52895 ms
BJompGKOBiCGStab:  Solving for p, Initial residual = 1, Final residual = 8.8424e-07, No Iterations 542
time step continuity errors : sum local = 6.82404e-07, global = 4.20053e-21, cumulative = 4.20053e-21
[OGL LOG] init_preconditioner : 0 ms
[OGL LOG] solve : 53092 ms
BJompGKOBiCGStab:  Solving for p, Initial residual = 0.783305, Final residual = 9.15583e-07, No Iterations 542
time step continuity errors : sum local = 1.57588e-07, global = -6.95801e-21, cumulative = -2.75749e-21
ExecutionTime = 240.8 s  ClockTime = 130 s

Time = 0.002

Courant Number mean: 0.0571438 max: 0.804775
[OGL LOG] init_host_sparsity_pattern : 267 ms
[OGL LOG] matrix not stored update host matrix
[OGL LOG] update_host_mtx : 145 ms
[OGL LOG] matrix is not yet sorted, sorting host matrix
[OGL LOG] sort_host_mtx_sparsity_pattern : 193 ms
[OGL LOG] sort_host_mtx : 124 ms
[OGL LOG] init_preconditioner : 0 ms
[OGL LOG] solve : 4008 ms
BJompGKOBiCGStab:  Solving for Ux, Initial residual = 0.168845, Final residual = 5.0761e-07, No Iterations 40
[OGL LOG] init_host_sparsity_pattern : 265 ms
[OGL LOG] matrix not stored update host matrix
[OGL LOG] update_host_mtx : 145 ms
[OGL LOG] matrix is not yet sorted, sorting host matrix
[OGL LOG] sort_host_mtx_sparsity_pattern : 193 ms
[OGL LOG] sort_host_mtx : 124 ms
[OGL LOG] init_preconditioner : 0 ms
[OGL LOG] solve : 4707 ms
BJompGKOBiCGStab:  Solving for Uy, Initial residual = 0.620611, Final residual = 9.73158e-07, No Iterations 47
[OGL LOG] init_host_sparsity_pattern : 266 ms
[OGL LOG] matrix not stored update host matrix
[OGL LOG] update_host_mtx : 146 ms
[OGL LOG] matrix is not yet sorted, sorting host matrix
[OGL LOG] sort_host_mtx_sparsity_pattern : 191 ms
[OGL LOG] sort_host_mtx : 124 ms
[OGL LOG] init_preconditioner : 0 ms
[OGL LOG] solve : 4256 ms
BJompGKOBiCGStab:  Solving for Uz, Initial residual = 0.659355, Final residual = 9.54181e-07, No Iterations 43
[OGL LOG] init_preconditioner : 0 ms
[OGL LOG] solve : 53507 ms
BJompGKOBiCGStab:  Solving for p, Initial residual = 0.798788, Final residual = 7.48832e-07, No Iterations 549
time step continuity errors : sum local = 7.8073e-08, global = 1.0986e-20, cumulative = 8.22849e-21
[OGL LOG] init_preconditioner : 0 ms
[OGL LOG] solve : 55768 ms
BJompGKOBiCGStab:  Solving for p, Initial residual = 0.739752, Final residual = 1.79581e-07, No Iterations 572
time step continuity errors : sum local = 2.69274e-09, global = -6.70103e-21, cumulative = 1.52745e-21
ExecutionTime = 488.3 s  ClockTime = 255 s

Time = 0.003

Courant Number mean: 0.0867606 max: 0.944834
[OGL LOG] init_host_sparsity_pattern : 267 ms
[OGL LOG] matrix not stored update host matrix
[OGL LOG] update_host_mtx : 145 ms
[OGL LOG] matrix is not yet sorted, sorting host matrix
[OGL LOG] sort_host_mtx_sparsity_pattern : 185 ms
[OGL LOG] sort_host_mtx : 124 ms
[OGL LOG] init_preconditioner : 0 ms
[OGL LOG] solve : 4103 ms
BJompGKOBiCGStab:  Solving for Ux, Initial residual = 0.102422, Final residual = 9.7325e-07, No Iterations 41
[OGL LOG] init_host_sparsity_pattern : 266 ms
[OGL LOG] matrix not stored update host matrix
[OGL LOG] update_host_mtx : 146 ms
[OGL LOG] matrix is not yet sorted, sorting host matrix
[OGL LOG] sort_host_mtx_sparsity_pattern : 192 ms
[OGL LOG] sort_host_mtx : 124 ms
[OGL LOG] init_preconditioner : 0 ms
[OGL LOG] solve : 4546 ms
BJompGKOBiCGStab:  Solving for Uy, Initial residual = 0.399105, Final residual = 6.9161e-07, No Iterations 46
[OGL LOG] init_host_sparsity_pattern : 266 ms
[OGL LOG] matrix not stored update host matrix
[OGL LOG] update_host_mtx : 146 ms
[OGL LOG] matrix is not yet sorted, sorting host matrix
[OGL LOG] sort_host_mtx_sparsity_pattern : 192 ms
[OGL LOG] sort_host_mtx : 124 ms
[OGL LOG] init_preconditioner : 0 ms
[OGL LOG] solve : 4502 ms
BJompGKOBiCGStab:  Solving for Uz, Initial residual = 1.01176, Final residual = 8.90224e-07, No Iterations 45
[OGL LOG] init_preconditioner : 0 ms
[OGL LOG] solve : 55552 ms
BJompGKOBiCGStab:  Solving for p, Initial residual = 0.832909, Final residual = 3.08763e-07, No Iterations 570
time step continuity errors : sum local = 3.33474e-09, global = -1.51573e-21, cumulative = 1.17239e-23
[OGL LOG] init_preconditioner : 0 ms
[OGL LOG] solve : 56846 ms
BJompGKOBiCGStab:  Solving for p, Initial residual = 0.802681, Final residual = 9.08116e-07, No Iterations 584
time step continuity errors : sum local = 1.31145e-09, global = -3.69131e-21, cumulative = -3.67959e-21
ExecutionTime = 742.31 s  ClockTime = 384 s

Time = 0.004

Courant Number mean: 0.0995351 max: 0.926371
[OGL LOG] init_host_sparsity_pattern : 267 ms
[OGL LOG] matrix not stored update host matrix
[OGL LOG] update_host_mtx : 145 ms
[OGL LOG] matrix is not yet sorted, sorting host matrix
[OGL LOG] sort_host_mtx_sparsity_pattern : 185 ms
[OGL LOG] sort_host_mtx : 124 ms
[OGL LOG] init_preconditioner : 0 ms
[OGL LOG] solve : 3769 ms
BJompGKOBiCGStab:  Solving for Ux, Initial residual = 0.0541922, Final residual = 9.93932e-07, No Iterations 38
[OGL LOG] init_host_sparsity_pattern : 266 ms
[OGL LOG] matrix not stored update host matrix
[OGL LOG] update_host_mtx : 146 ms
[OGL LOG] matrix is not yet sorted, sorting host matrix
[OGL LOG] sort_host_mtx_sparsity_pattern : 197 ms
[OGL LOG] sort_host_mtx : 124 ms
[OGL LOG] init_preconditioner : 0 ms
[OGL LOG] solve : 3870 ms
BJompGKOBiCGStab:  Solving for Uy, Initial residual = 0.255719, Final residual = 9.71204e-07, No Iterations 39
[OGL LOG] init_host_sparsity_pattern : 266 ms
[OGL LOG] matrix not stored update host matrix
[OGL LOG] update_host_mtx : 146 ms
[OGL LOG] matrix is not yet sorted, sorting host matrix
[OGL LOG] sort_host_mtx_sparsity_pattern : 192 ms
[OGL LOG] sort_host_mtx : 124 ms
[OGL LOG] init_preconditioner : 0 ms
[OGL LOG] solve : 4162 ms
BJompGKOBiCGStab:  Solving for Uz, Initial residual = 0.88235, Final residual = 8.76216e-07, No Iterations 42
[OGL LOG] init_preconditioner : 0 ms
[OGL LOG] solve : 53700 ms
BJompGKOBiCGStab:  Solving for p, Initial residual = 0.750501, Final residual = 3.71328e-07, No Iterations 552
time step continuity errors : sum local = 3.39424e-10, global = -5.53803e-21, cumulative = -9.21762e-21
[OGL LOG] init_preconditioner : 0 ms
[OGL LOG] solve : 54259 ms
BJompGKOBiCGStab:  Solving for p, Initial residual = 0.685292, Final residual = 7.64031e-07, No Iterations 557
time step continuity errors : sum local = 1.13773e-09, global = 1.90165e-21, cumulative = -7.31597e-21
ExecutionTime = 984.83 s  ClockTime = 508 s

Time = 0.005

Courant Number mean: 0.112169 max: 0.946347
[OGL LOG] init_host_sparsity_pattern : 267 ms
[OGL LOG] matrix not stored update host matrix
[OGL LOG] update_host_mtx : 145 ms
[OGL LOG] matrix is not yet sorted, sorting host matrix
[OGL LOG] sort_host_mtx_sparsity_pattern : 185 ms
[OGL LOG] sort_host_mtx : 124 ms
[OGL LOG] init_preconditioner : 0 ms
[OGL LOG] solve : 3624 ms
BJompGKOBiCGStab:  Solving for Ux, Initial residual = 0.0413253, Final residual = 8.06892e-07, No Iterations 36
[OGL LOG] init_host_sparsity_pattern : 269 ms
[OGL LOG] matrix not stored update host matrix
[OGL LOG] update_host_mtx : 155 ms
[OGL LOG] matrix is not yet sorted, sorting host matrix
[OGL LOG] sort_host_mtx_sparsity_pattern : 192 ms
[OGL LOG] sort_host_mtx : 124 ms
[OGL LOG] init_preconditioner : 0 ms
[OGL LOG] solve : 3572 ms
BJompGKOBiCGStab:  Solving for Uy, Initial residual = 0.131897, Final residual = 6.82965e-07, No Iterations 36
[OGL LOG] init_host_sparsity_pattern : 266 ms
[OGL LOG] matrix not stored update host matrix
[OGL LOG] update_host_mtx : 146 ms
[OGL LOG] matrix is not yet sorted, sorting host matrix
[OGL LOG] sort_host_mtx_sparsity_pattern : 191 ms
[OGL LOG] sort_host_mtx : 123 ms
[OGL LOG] init_preconditioner : 0 ms
[OGL LOG] solve : 4315 ms
BJompGKOBiCGStab:  Solving for Uz, Initial residual = 0.878693, Final residual = 9.84813e-07, No Iterations 43
[OGL LOG] init_preconditioner : 0 ms
[OGL LOG] solve : 59392 ms
BJompGKOBiCGStab:  Solving for p, Initial residual = 0.760324, Final residual = 4.65349e-07, No Iterations 610
time step continuity errors : sum local = 6.35607e-09, global = 3.9437e-21, cumulative = -3.37226e-21
[OGL LOG] init_preconditioner : 0 ms
[OGL LOG] solve : 54031 ms
BJompGKOBiCGStab:  Solving for p, Initial residual = 0.713306, Final residual = 8.37016e-07, No Iterations 555
time step continuity errors : sum local = 2.16643e-09, global = -6.55029e-21, cumulative = -9.92255e-21
ExecutionTime = 1237.69 s  ClockTime = 636 s

End

