/*---------------------------------------------------------------------------*\
  =========                 |
  \\      /  F ield         | OpenFOAM: The Open Source CFD Toolbox
   \\    /   O peration     | Website:  https://openfoam.org
    \\  /    A nd           | Version:  8
     \\/     M anipulation  |
\*---------------------------------------------------------------------------*/
Build  : 8-13d66902f78c
Exec   : icoFoam
Date   : Jul 12 2021
Time   : 14:05:15
Host   : "uc2n438.localdomain"
PID    : 4133284
I/O    : uncollated
Case   : /pfs/data5/home/kit/scc/nq7776/code/OGL_DATA/lidDrivenCavity3D/v0.1-136-g40fef35/f584ccac99/IntelXeonGold6230CPU@2.10GHz/Test_2021-07-12-12:41:27/75/p-BiCGStab-GKO-BJ-omp/lidDrivenCavity3D
nProcs : 1
sigFpe : Enabling floating point exception trapping (FOAM_SIGFPE).
fileModificationChecking : Monitoring run-time modified files using timeStampMaster (fileModificationSkew 10)
allowSystemOperations : Allowing user-supplied system call operations

// * * * * * * * * * * * * * * * * * * * * * * * * * * * * * * * * * * * * * //
Create time

Create mesh for time = 0

Reading transportProperties

Reading field p

Reading field U

Reading/calculating face flux field phi


Starting time loop

Time = 0.00133333

Courant Number mean: 0 max: 0
nonePBiCGStab:  Solving for Ux, Initial residual = 1, Final residual = 0.0730231, No Iterations 5
nonePBiCGStab:  Solving for Uy, Initial residual = 0, Final residual = 0, No Iterations 0
nonePBiCGStab:  Solving for Uz, Initial residual = 0, Final residual = 0, No Iterations 0
[OGL LOG] init_host_sparsity_pattern : 125 ms
[OGL LOG] matrix not stored update host matrix
[OGL LOG] update_host_mtx : 63 ms
[OGL LOG] matrix is not yet sorted, compute sorting idxs
[OGL LOG] compute_sort : 3625 ms
[OGL LOG] matrix is not yet sorted, sorting host matrix
[OGL LOG] sort_host_mtx_sparsity_pattern : 81 ms
[OGL LOG] sort_host_mtx : 53 ms
[OGL LOG] init_preconditioner : 17 ms
[OGL LOG] solve : 5911 ms
BJompGKOBiCGStab:  Solving for p, Initial residual = 1, Final residual = 4.64271e-07, No Iterations 415
time step continuity errors : sum local = 2.15714e-08, global = 5.36878e-21, cumulative = 5.36878e-21
[OGL LOG] init_preconditioner : 0 ms
[OGL LOG] solve : 5429 ms
BJompGKOBiCGStab:  Solving for p, Initial residual = 0.697117, Final residual = 9.00379e-07, No Iterations 407
time step continuity errors : sum local = 2.37234e-07, global = 1.68721e-22, cumulative = 5.5375e-21
ExecutionTime = 187.2 s  ClockTime = 18 s

Time = 0.00266667

Courant Number mean: 0.0508076 max: 0.767232
nonePBiCGStab:  Solving for Ux, Initial residual = 0.140595, Final residual = 0.0324548, No Iterations 5
nonePBiCGStab:  Solving for Uy, Initial residual = 0.413639, Final residual = 0.0923691, No Iterations 5
nonePBiCGStab:  Solving for Uz, Initial residual = 0.982306, Final residual = 0.250214, No Iterations 5
[OGL LOG] init_preconditioner : 0 ms
[OGL LOG] solve : 4944 ms
BJompGKOBiCGStab:  Solving for p, Initial residual = 0.746843, Final residual = 8.97089e-07, No Iterations 394
time step continuity errors : sum local = 8.24237e-09, global = 6.51098e-21, cumulative = 1.20485e-20
[OGL LOG] init_preconditioner : 0 ms
[OGL LOG] solve : 4755 ms
BJompGKOBiCGStab:  Solving for p, Initial residual = 0.66807, Final residual = 5.67683e-07, No Iterations 392
time step continuity errors : sum local = 1.62348e-07, global = -1.16131e-20, cumulative = 4.35361e-22
ExecutionTime = 342.53 s  ClockTime = 28 s

Time = 0.004

Courant Number mean: 0.0796123 max: 0.88602
nonePBiCGStab:  Solving for Ux, Initial residual = 0.0584468, Final residual = 0.0111474, No Iterations 5
nonePBiCGStab:  Solving for Uy, Initial residual = 0.171987, Final residual = 0.0399046, No Iterations 5
nonePBiCGStab:  Solving for Uz, Initial residual = 0.610063, Final residual = 0.14199, No Iterations 5
[OGL LOG] init_preconditioner : 0 ms
[OGL LOG] solve : 5181 ms
BJompGKOBiCGStab:  Solving for p, Initial residual = 0.730306, Final residual = 8.68879e-07, No Iterations 420
time step continuity errors : sum local = 9.13577e-10, global = 1.02383e-20, cumulative = 1.06737e-20
[OGL LOG] init_preconditioner : 0 ms
[OGL LOG] solve : 5244 ms
BJompGKOBiCGStab:  Solving for p, Initial residual = 0.660907, Final residual = 7.18256e-07, No Iterations 417
time step continuity errors : sum local = 1.96334e-08, global = 1.75177e-21, cumulative = 1.24255e-20
ExecutionTime = 509.56 s  ClockTime = 39 s

Time = 0.00533333

Courant Number mean: 0.0948094 max: 0.902547
nonePBiCGStab:  Solving for Ux, Initial residual = 0.0345936, Final residual = 0.00682956, No Iterations 5
nonePBiCGStab:  Solving for Uy, Initial residual = 0.119556, Final residual = 0.0298133, No Iterations 5
nonePBiCGStab:  Solving for Uz, Initial residual = 0.386173, Final residual = 0.0811504, No Iterations 5
[OGL LOG] init_preconditioner : 0 ms
[OGL LOG] solve : 4927 ms
BJompGKOBiCGStab:  Solving for p, Initial residual = 0.609811, Final residual = 8.94715e-07, No Iterations 403
time step continuity errors : sum local = 1.37927e-09, global = 1.07456e-20, cumulative = 2.3171e-20
[OGL LOG] init_preconditioner : 0 ms
[OGL LOG] solve : 3038 ms
BJompGKOBiCGStab:  Solving for p, Initial residual = 0.521125, Final residual = 9.92224e-07, No Iterations 237
time step continuity errors : sum local = 2.40615e-09, global = 3.44401e-21, cumulative = 2.6615e-20
ExecutionTime = 637.26 s  ClockTime = 48 s

Time = 0.00666667

Courant Number mean: 0.107176 max: 0.916757
nonePBiCGStab:  Solving for Ux, Initial residual = 0.0257317, Final residual = 0.00503109, No Iterations 5
nonePBiCGStab:  Solving for Uy, Initial residual = 0.0750508, Final residual = 0.0208258, No Iterations 5
nonePBiCGStab:  Solving for Uz, Initial residual = 0.21273, Final residual = 0.049534, No Iterations 5
[OGL LOG] init_preconditioner : 0 ms
[OGL LOG] solve : 4885 ms
BJompGKOBiCGStab:  Solving for p, Initial residual = 0.629342, Final residual = 8.05995e-07, No Iterations 390
time step continuity errors : sum local = 9.99955e-10, global = 9.36018e-22, cumulative = 2.7551e-20
[OGL LOG] init_preconditioner : 0 ms
[OGL LOG] solve : 5649 ms
BJompGKOBiCGStab:  Solving for p, Initial residual = 0.55218, Final residual = 8.97771e-07, No Iterations 399
time step continuity errors : sum local = 7.6751e-10, global = -7.55009e-21, cumulative = 2.0001e-20
ExecutionTime = 806.05 s  ClockTime = 59 s

End

