/*---------------------------------------------------------------------------*\
  =========                 |
  \\      /  F ield         | OpenFOAM: The Open Source CFD Toolbox
   \\    /   O peration     | Website:  https://openfoam.org
    \\  /    A nd           | Version:  8
     \\/     M anipulation  |
\*---------------------------------------------------------------------------*/
Build  : 8-13d66902f78c
Exec   : icoFoam
Date   : Jul 14 2021
Time   : 00:16:03
Host   : "uc2n524.localdomain"
PID    : 1989248
I/O    : uncollated
Case   : /pfs/data5/home/kit/scc/nq7776/code/OGL_DATA/lidDrivenCavity3D/v0.1-136-g40fef35/f584ccac99/IntelXeonGold6230CPU@2.10GHz/Test_2021-07-13-22:44:59/100/p-CG-GKO-BJ-omp/lidDrivenCavity3D
nProcs : 1
sigFpe : Enabling floating point exception trapping (FOAM_SIGFPE).
fileModificationChecking : Monitoring run-time modified files using timeStampMaster (fileModificationSkew 10)
allowSystemOperations : Allowing user-supplied system call operations

// * * * * * * * * * * * * * * * * * * * * * * * * * * * * * * * * * * * * * //
Create time

Create mesh for time = 0

Reading transportProperties

Reading field p

Reading field U

Reading/calculating face flux field phi


Starting time loop

Time = 0.001

Courant Number mean: 0 max: 0
nonePBiCGStab:  Solving for Ux, Initial residual = 1, Final residual = 0.0818707, No Iterations 5
nonePBiCGStab:  Solving for Uy, Initial residual = 0, Final residual = 0, No Iterations 0
nonePBiCGStab:  Solving for Uz, Initial residual = 0, Final residual = 0, No Iterations 0
[OGL LOG] init_host_sparsity_pattern : 288 ms
[OGL LOG] matrix not stored update host matrix
[OGL LOG] update_host_mtx : 148 ms
[OGL LOG] matrix is not yet sorted, compute sorting idxs
[OGL LOG] compute_sort : 8351 ms
[OGL LOG] matrix is not yet sorted, sorting host matrix
[OGL LOG] sort_host_mtx_sparsity_pattern : 193 ms
[OGL LOG] sort_host_mtx : 130 ms
[OGL LOG] init_preconditioner : 268 ms
 CG create  precond 
[OGL LOG] solve : 77952 ms
BJompGKOCG:  Solving for p, Initial residual = 1, Final residual = 9.94664e-07, No Iterations 879
time step continuity errors : sum local = 3.7672e-10, global = -7.27138e-21, cumulative = -7.27138e-21
[OGL LOG] init_preconditioner : 6 ms
 CG create  precond 
[OGL LOG] solve : 76988 ms
BJompGKOCG:  Solving for p, Initial residual = 0.707485, Final residual = 9.49036e-07, No Iterations 873
time step continuity errors : sum local = 4.97839e-10, global = 3.63135e-21, cumulative = -3.64002e-21
ExecutionTime = 168.33 s  ClockTime = 169 s

Time = 0.002

Courant Number mean: 0.0422155 max: 0.791725
nonePBiCGStab:  Solving for Ux, Initial residual = 0.137867, Final residual = 0.0400077, No Iterations 5
nonePBiCGStab:  Solving for Uy, Initial residual = 0.451746, Final residual = 0.130142, No Iterations 5
nonePBiCGStab:  Solving for Uz, Initial residual = 0.987526, Final residual = 0.323465, No Iterations 5
[OGL LOG] init_preconditioner : 0 ms
 CG create  precond 
[OGL LOG] solve : 76210 ms
BJompGKOCG:  Solving for p, Initial residual = 0.789699, Final residual = 9.7713e-07, No Iterations 867
time step continuity errors : sum local = 8.90399e-10, global = -2.54245e-23, cumulative = -3.66545e-21
[OGL LOG] init_preconditioner : 0 ms
 CG create  precond 
[OGL LOG] solve : 75403 ms
BJompGKOCG:  Solving for p, Initial residual = 0.713525, Final residual = 9.64249e-07, No Iterations 857
time step continuity errors : sum local = 8.95734e-10, global = -6.2217e-21, cumulative = -9.88715e-21
ExecutionTime = 320.86 s  ClockTime = 322 s

Time = 0.003

Courant Number mean: 0.0674676 max: 0.89998
nonePBiCGStab:  Solving for Ux, Initial residual = 0.0610629, Final residual = 0.0153012, No Iterations 5
nonePBiCGStab:  Solving for Uy, Initial residual = 0.208727, Final residual = 0.0593992, No Iterations 5
nonePBiCGStab:  Solving for Uz, Initial residual = 0.712493, Final residual = 0.21373, No Iterations 5
[OGL LOG] init_preconditioner : 0 ms
 CG create  precond 
[OGL LOG] solve : 76071 ms
BJompGKOCG:  Solving for p, Initial residual = 0.797066, Final residual = 9.85222e-07, No Iterations 868
time step continuity errors : sum local = 7.13834e-10, global = -1.88507e-22, cumulative = -1.00757e-20
[OGL LOG] init_preconditioner : 0 ms
 CG create  precond 
[OGL LOG] solve : 75982 ms
BJompGKOCG:  Solving for p, Initial residual = 0.724869, Final residual = 9.81327e-07, No Iterations 866
time step continuity errors : sum local = 6.9349e-10, global = -5.80939e-21, cumulative = -1.58851e-20
ExecutionTime = 473.81 s  ClockTime = 475 s

Time = 0.004

Courant Number mean: 0.0814739 max: 0.91289
nonePBiCGStab:  Solving for Ux, Initial residual = 0.0387865, Final residual = 0.0107239, No Iterations 5
nonePBiCGStab:  Solving for Uy, Initial residual = 0.148965, Final residual = 0.0502054, No Iterations 5
nonePBiCGStab:  Solving for Uz, Initial residual = 0.492863, Final residual = 0.135096, No Iterations 5
[OGL LOG] init_preconditioner : 0 ms
 CG create  precond 
[OGL LOG] solve : 74566 ms
BJompGKOCG:  Solving for p, Initial residual = 0.719472, Final residual = 9.81271e-07, No Iterations 851
time step continuity errors : sum local = 7.30052e-10, global = 4.25894e-21, cumulative = -1.16261e-20
[OGL LOG] init_preconditioner : 0 ms
 CG create  precond 
[OGL LOG] solve : 74555 ms
BJompGKOCG:  Solving for p, Initial residual = 0.61984, Final residual = 9.92996e-07, No Iterations 849
time step continuity errors : sum local = 7.55766e-10, global = 9.60741e-21, cumulative = -2.01869e-21
ExecutionTime = 623.83 s  ClockTime = 626 s

Time = 0.005

Courant Number mean: 0.092279 max: 0.925557
nonePBiCGStab:  Solving for Ux, Initial residual = 0.0298127, Final residual = 0.00896084, No Iterations 5
nonePBiCGStab:  Solving for Uy, Initial residual = 0.0986419, Final residual = 0.0358093, No Iterations 5
nonePBiCGStab:  Solving for Uz, Initial residual = 0.304826, Final residual = 0.078727, No Iterations 5
[OGL LOG] init_preconditioner : 0 ms
 CG create  precond 
[OGL LOG] solve : 74253 ms
BJompGKOCG:  Solving for p, Initial residual = 0.757141, Final residual = 9.93273e-07, No Iterations 847
time step continuity errors : sum local = 6.78566e-10, global = 1.22174e-20, cumulative = 1.01987e-20
[OGL LOG] init_preconditioner : 0 ms
 CG create  precond 
[OGL LOG] solve : 74266 ms
BJompGKOCG:  Solving for p, Initial residual = 0.670842, Final residual = 9.97742e-07, No Iterations 845
time step continuity errors : sum local = 6.73625e-10, global = 8.18207e-21, cumulative = 1.83808e-20
ExecutionTime = 773.26 s  ClockTime = 775 s

End

