/*---------------------------------------------------------------------------*\
  =========                 |
  \\      /  F ield         | OpenFOAM: The Open Source CFD Toolbox
   \\    /   O peration     | Website:  https://openfoam.org
    \\  /    A nd           | Version:  8
     \\/     M anipulation  |
\*---------------------------------------------------------------------------*/
Build  : 8-13d66902f78c
Exec   : icoFoam
Date   : Jul 13 2021
Time   : 22:52:14
Host   : "uc2n398.localdomain"
PID    : 519315
I/O    : uncollated
Case   : /pfs/data5/home/kit/scc/nq7776/code/OGL_DATA/lidDrivenCavity3D/v0.1-136-g40fef35/f584ccac99/IntelXeonGold6230CPU@2.10GHz/Test_2021-07-13-22:43:44/50/p-IR-GKO-none-omp/lidDrivenCavity3D
nProcs : 1
sigFpe : Enabling floating point exception trapping (FOAM_SIGFPE).
fileModificationChecking : Monitoring run-time modified files using timeStampMaster (fileModificationSkew 10)
allowSystemOperations : Allowing user-supplied system call operations

// * * * * * * * * * * * * * * * * * * * * * * * * * * * * * * * * * * * * * //
Create time

Create mesh for time = 0

Reading transportProperties

Reading field p

Reading field U

Reading/calculating face flux field phi


Starting time loop

Time = 0.002

Courant Number mean: 0 max: 0
nonePBiCGStab:  Solving for Ux, Initial residual = 1, Final residual = 0.0592055, No Iterations 5
nonePBiCGStab:  Solving for Uy, Initial residual = 0, Final residual = 0, No Iterations 0
nonePBiCGStab:  Solving for Uz, Initial residual = 0, Final residual = 0, No Iterations 0
[OGL LOG] init_host_sparsity_pattern : 35 ms
[OGL LOG] matrix not stored update host matrix
[OGL LOG] update_host_mtx : 18 ms
[OGL LOG] matrix is not yet sorted, compute sorting idxs
[OGL LOG] compute_sort : 911 ms
[OGL LOG] matrix is not yet sorted, sorting host matrix
[OGL LOG] sort_host_mtx_sparsity_pattern : 24 ms
[OGL LOG] sort_host_mtx : 14 ms
[OGL LOG] init_preconditioner : 0 ms
[OGL LOG] solve : 3246 ms
noneompGKOIR:  Solving for p, Initial residual = 1, Final residual = 9.61503e-08, No Iterations 4
time step continuity errors : sum local = 1.23344e-10, global = 7.16825e-21, cumulative = 7.16825e-21
[OGL LOG] init_preconditioner : 0 ms
[OGL LOG] solve : 2691 ms
noneompGKOIR:  Solving for p, Initial residual = 0.67673, Final residual = 4.82559e-08, No Iterations 4
time step continuity errors : sum local = 8.75382e-11, global = 2.17547e-20, cumulative = 2.8923e-20
ExecutionTime = 6.95 s  ClockTime = 8 s

Time = 0.004

Courant Number mean: 0.0636233 max: 0.723792
nonePBiCGStab:  Solving for Ux, Initial residual = 0.144136, Final residual = 0.0219208, No Iterations 5
nonePBiCGStab:  Solving for Uy, Initial residual = 0.363931, Final residual = 0.0522819, No Iterations 5
nonePBiCGStab:  Solving for Uz, Initial residual = 0.973677, Final residual = 0.158944, No Iterations 5
[OGL LOG] init_preconditioner : 0 ms
[OGL LOG] solve : 2670 ms
noneompGKOIR:  Solving for p, Initial residual = 0.668507, Final residual = 2.35321e-08, No Iterations 4
time step continuity errors : sum local = 5.38825e-11, global = 1.00334e-20, cumulative = 3.89564e-20
[OGL LOG] init_preconditioner : 0 ms
[OGL LOG] solve : 2699 ms
noneompGKOIR:  Solving for p, Initial residual = 0.584655, Final residual = 1.94603e-08, No Iterations 4
time step continuity errors : sum local = 4.56934e-11, global = 8.88426e-21, cumulative = 4.78407e-20
ExecutionTime = 12.44 s  ClockTime = 13 s

Time = 0.006

Courant Number mean: 0.0972275 max: 0.862515
nonePBiCGStab:  Solving for Ux, Initial residual = 0.0524189, Final residual = 0.00685534, No Iterations 5
nonePBiCGStab:  Solving for Uy, Initial residual = 0.127046, Final residual = 0.0201182, No Iterations 5
nonePBiCGStab:  Solving for Uz, Initial residual = 0.366752, Final residual = 0.0530698, No Iterations 5
[OGL LOG] init_preconditioner : 0 ms
[OGL LOG] solve : 2666 ms
noneompGKOIR:  Solving for p, Initial residual = 0.594544, Final residual = 1.86059e-08, No Iterations 4
time step continuity errors : sum local = 2.96436e-11, global = 1.49906e-22, cumulative = 4.79906e-20
[OGL LOG] init_preconditioner : 0 ms
[OGL LOG] solve : 2635 ms
noneompGKOIR:  Solving for p, Initial residual = 0.528702, Final residual = 1.37648e-08, No Iterations 4
time step continuity errors : sum local = 2.1214e-11, global = 6.26657e-21, cumulative = 5.42572e-20
ExecutionTime = 17.85 s  ClockTime = 19 s

Time = 0.008

Courant Number mean: 0.113794 max: 0.88248
nonePBiCGStab:  Solving for Ux, Initial residual = 0.0289573, Final residual = 0.00344465, No Iterations 5
nonePBiCGStab:  Solving for Uy, Initial residual = 0.0844254, Final residual = 0.0109195, No Iterations 5
nonePBiCGStab:  Solving for Uz, Initial residual = 0.229193, Final residual = 0.0297664, No Iterations 5
[OGL LOG] init_preconditioner : 0 ms
[OGL LOG] solve : 2090 ms
noneompGKOIR:  Solving for p, Initial residual = 0.411432, Final residual = 1.02031e-08, No Iterations 4
time step continuity errors : sum local = 1.55515e-11, global = -1.87168e-20, cumulative = 3.55403e-20
[OGL LOG] init_preconditioner : 0 ms
[OGL LOG] solve : 1702 ms
noneompGKOIR:  Solving for p, Initial residual = 0.342686, Final residual = 9.27218e-07, No Iterations 3
time step continuity errors : sum local = 1.43986e-09, global = 2.68596e-20, cumulative = 6.24e-20
ExecutionTime = 21.77 s  ClockTime = 23 s

Time = 0.01

Courant Number mean: 0.127339 max: 0.898877
nonePBiCGStab:  Solving for Ux, Initial residual = 0.020277, Final residual = 0.00208485, No Iterations 5
nonePBiCGStab:  Solving for Uy, Initial residual = 0.0505563, Final residual = 0.00623586, No Iterations 5
nonePBiCGStab:  Solving for Uz, Initial residual = 0.112947, Final residual = 0.0180731, No Iterations 5
[OGL LOG] init_preconditioner : 0 ms
[OGL LOG] solve : 1641 ms
noneompGKOIR:  Solving for p, Initial residual = 0.354043, Final residual = 8.59987e-07, No Iterations 3
time step continuity errors : sum local = 1.09018e-09, global = -4.25478e-22, cumulative = 6.19745e-20
[OGL LOG] init_preconditioner : 0 ms
[OGL LOG] solve : 1669 ms
noneompGKOIR:  Solving for p, Initial residual = 0.302211, Final residual = 7.05619e-07, No Iterations 3
time step continuity errors : sum local = 8.83058e-10, global = -4.064e-20, cumulative = 2.13345e-20
ExecutionTime = 25.19 s  ClockTime = 26 s

End

