/*---------------------------------------------------------------------------*\
  =========                 |
  \\      /  F ield         | OpenFOAM: The Open Source CFD Toolbox
   \\    /   O peration     | Website:  https://openfoam.org
    \\  /    A nd           | Version:  8
     \\/     M anipulation  |
\*---------------------------------------------------------------------------*/
Build  : 8-13d66902f78c
Exec   : icoFoam
Date   : Jul 14 2021
Time   : 02:03:30
Host   : "uc2n398.localdomain"
PID    : 543970
I/O    : uncollated
Case   : /pfs/data5/home/kit/scc/nq7776/code/OGL_DATA/lidDrivenCavity3D/v0.1-136-g40fef35/f584ccac99/IntelXeonGold6230CPU@2.10GHz/Test_2021-07-14-01:40:40/50/p-U-BiCGStab-GKO-BJ-omp/lidDrivenCavity3D
nProcs : 1
sigFpe : Enabling floating point exception trapping (FOAM_SIGFPE).
fileModificationChecking : Monitoring run-time modified files using timeStampMaster (fileModificationSkew 10)
allowSystemOperations : Allowing user-supplied system call operations

// * * * * * * * * * * * * * * * * * * * * * * * * * * * * * * * * * * * * * //
Create time

Create mesh for time = 0

Reading transportProperties

Reading field p

Reading field U

Reading/calculating face flux field phi


Starting time loop

Time = 0.002

Courant Number mean: 0 max: 0
[OGL LOG] init_host_sparsity_pattern : 35 ms
[OGL LOG] matrix not stored update host matrix
[OGL LOG] update_host_mtx : 18 ms
[OGL LOG] matrix is not yet sorted, compute sorting idxs
[OGL LOG] compute_sort : 911 ms
[OGL LOG] matrix is not yet sorted, sorting host matrix
[OGL LOG] sort_host_mtx_sparsity_pattern : 24 ms
[OGL LOG] sort_host_mtx : 15 ms
[OGL LOG] init_preconditioner : 5 ms
[OGL LOG] solve : 192 ms
BJompGKOBiCGStab:  Solving for Ux, Initial residual = 1, Final residual = 3.61163e-07, No Iterations 40
[OGL LOG] init_host_sparsity_pattern : 34 ms
[OGL LOG] matrix not stored update host matrix
[OGL LOG] update_host_mtx : 18 ms
[OGL LOG] matrix is not yet sorted, sorting host matrix
[OGL LOG] sort_host_mtx_sparsity_pattern : 23 ms
[OGL LOG] sort_host_mtx : 12 ms
[OGL LOG] init_preconditioner : 5 ms
[OGL LOG] solve : 4 ms
BJompGKOBiCGStab:  Solving for Uy, Initial residual = 0, Final residual = 0, No Iterations 0
[OGL LOG] init_host_sparsity_pattern : 33 ms
[OGL LOG] matrix not stored update host matrix
[OGL LOG] update_host_mtx : 15 ms
[OGL LOG] matrix is not yet sorted, sorting host matrix
[OGL LOG] sort_host_mtx_sparsity_pattern : 23 ms
[OGL LOG] sort_host_mtx : 12 ms
[OGL LOG] init_preconditioner : 5 ms
[OGL LOG] solve : 4 ms
BJompGKOBiCGStab:  Solving for Uz, Initial residual = 0, Final residual = 0, No Iterations 0
[OGL LOG] init_host_sparsity_pattern : 32 ms
[OGL LOG] matrix not stored update host matrix
[OGL LOG] update_host_mtx : 18 ms
[OGL LOG] matrix is not yet sorted, sorting host matrix
[OGL LOG] sort_host_mtx_sparsity_pattern : 22 ms
[OGL LOG] sort_host_mtx : 13 ms
[OGL LOG] init_preconditioner : 6 ms
[OGL LOG] solve : 1519 ms
BJompGKOBiCGStab:  Solving for p, Initial residual = 1, Final residual = 8.1634e-07, No Iterations 313
time step continuity errors : sum local = 3.88572e-08, global = 1.417e-20, cumulative = 1.417e-20
[OGL LOG] init_preconditioner : 0 ms
[OGL LOG] solve : 1551 ms
BJompGKOBiCGStab:  Solving for p, Initial residual = 0.721579, Final residual = 9.4347e-07, No Iterations 331
time step continuity errors : sum local = 6.57661e-09, global = -2.40313e-20, cumulative = -9.86126e-21
ExecutionTime = 28.45 s  ClockTime = 5 s

Time = 0.004

Courant Number mean: 0.0720722 max: 0.726639
[OGL LOG] init_host_sparsity_pattern : 33 ms
[OGL LOG] matrix not stored update host matrix
[OGL LOG] update_host_mtx : 15 ms
[OGL LOG] matrix is not yet sorted, sorting host matrix
[OGL LOG] sort_host_mtx_sparsity_pattern : 24 ms
[OGL LOG] sort_host_mtx : 13 ms
[OGL LOG] init_preconditioner : 0 ms
[OGL LOG] solve : 158 ms
BJompGKOBiCGStab:  Solving for Ux, Initial residual = 0.203463, Final residual = 8.3233e-07, No Iterations 30
[OGL LOG] init_host_sparsity_pattern : 33 ms
[OGL LOG] matrix not stored update host matrix
[OGL LOG] update_host_mtx : 16 ms
[OGL LOG] matrix is not yet sorted, sorting host matrix
[OGL LOG] sort_host_mtx_sparsity_pattern : 22 ms
[OGL LOG] sort_host_mtx : 12 ms
[OGL LOG] init_preconditioner : 0 ms
[OGL LOG] solve : 204 ms
BJompGKOBiCGStab:  Solving for Uy, Initial residual = 0.618432, Final residual = 7.93146e-07, No Iterations 40
[OGL LOG] init_host_sparsity_pattern : 33 ms
[OGL LOG] matrix not stored update host matrix
[OGL LOG] update_host_mtx : 15 ms
[OGL LOG] matrix is not yet sorted, sorting host matrix
[OGL LOG] sort_host_mtx_sparsity_pattern : 22 ms
[OGL LOG] sort_host_mtx : 12 ms
[OGL LOG] init_preconditioner : 0 ms
[OGL LOG] solve : 199 ms
BJompGKOBiCGStab:  Solving for Uz, Initial residual = 0.536197, Final residual = 8.3689e-07, No Iterations 39
[OGL LOG] init_preconditioner : 0 ms
[OGL LOG] solve : 1480 ms
BJompGKOBiCGStab:  Solving for p, Initial residual = 0.673318, Final residual = 9.63693e-07, No Iterations 314
time step continuity errors : sum local = 2.90448e-08, global = -9.38921e-21, cumulative = -1.92505e-20
[OGL LOG] init_preconditioner : 0 ms
[OGL LOG] solve : 1527 ms
BJompGKOBiCGStab:  Solving for p, Initial residual = 0.598887, Final residual = 8.31039e-07, No Iterations 322
time step continuity errors : sum local = 1.51774e-08, global = 2.73503e-20, cumulative = 8.09987e-21
ExecutionTime = 57.5 s  ClockTime = 9 s

Time = 0.006

Courant Number mean: 0.107408 max: 0.881755
[OGL LOG] init_host_sparsity_pattern : 33 ms
[OGL LOG] matrix not stored update host matrix
[OGL LOG] update_host_mtx : 16 ms
[OGL LOG] matrix is not yet sorted, sorting host matrix
[OGL LOG] sort_host_mtx_sparsity_pattern : 23 ms
[OGL LOG] sort_host_mtx : 12 ms
[OGL LOG] init_preconditioner : 0 ms
[OGL LOG] solve : 163 ms
BJompGKOBiCGStab:  Solving for Ux, Initial residual = 0.0995612, Final residual = 9.28207e-07, No Iterations 34
[OGL LOG] init_host_sparsity_pattern : 33 ms
[OGL LOG] matrix not stored update host matrix
[OGL LOG] update_host_mtx : 16 ms
[OGL LOG] matrix is not yet sorted, sorting host matrix
[OGL LOG] sort_host_mtx_sparsity_pattern : 21 ms
[OGL LOG] sort_host_mtx : 12 ms
[OGL LOG] init_preconditioner : 0 ms
[OGL LOG] solve : 143 ms
BJompGKOBiCGStab:  Solving for Uy, Initial residual = 0.249993, Final residual = 9.14106e-07, No Iterations 30
[OGL LOG] init_host_sparsity_pattern : 33 ms
[OGL LOG] matrix not stored update host matrix
[OGL LOG] update_host_mtx : 16 ms
[OGL LOG] matrix is not yet sorted, sorting host matrix
[OGL LOG] sort_host_mtx_sparsity_pattern : 21 ms
[OGL LOG] sort_host_mtx : 12 ms
[OGL LOG] init_preconditioner : 0 ms
[OGL LOG] solve : 174 ms
BJompGKOBiCGStab:  Solving for Uz, Initial residual = 0.540896, Final residual = 7.67597e-07, No Iterations 37
[OGL LOG] init_preconditioner : 0 ms
[OGL LOG] solve : 1519 ms
BJompGKOBiCGStab:  Solving for p, Initial residual = 0.606895, Final residual = 9.89528e-07, No Iterations 322
time step continuity errors : sum local = 3.4597e-09, global = -1.7712e-22, cumulative = 7.92275e-21
[OGL LOG] init_preconditioner : 0 ms
[OGL LOG] solve : 1540 ms
BJompGKOBiCGStab:  Solving for p, Initial residual = 0.560872, Final residual = 6.82156e-07, No Iterations 326
time step continuity errors : sum local = 2.09337e-09, global = 4.72926e-20, cumulative = 5.52154e-20
ExecutionTime = 86.34 s  ClockTime = 13 s

Time = 0.008

Courant Number mean: 0.123244 max: 0.890103
[OGL LOG] init_host_sparsity_pattern : 32 ms
[OGL LOG] matrix not stored update host matrix
[OGL LOG] update_host_mtx : 15 ms
[OGL LOG] matrix is not yet sorted, sorting host matrix
[OGL LOG] sort_host_mtx_sparsity_pattern : 21 ms
[OGL LOG] sort_host_mtx : 12 ms
[OGL LOG] init_preconditioner : 0 ms
[OGL LOG] solve : 143 ms
BJompGKOBiCGStab:  Solving for Ux, Initial residual = 0.0341393, Final residual = 9.10252e-07, No Iterations 30
[OGL LOG] init_host_sparsity_pattern : 33 ms
[OGL LOG] matrix not stored update host matrix
[OGL LOG] update_host_mtx : 15 ms
[OGL LOG] matrix is not yet sorted, sorting host matrix
[OGL LOG] sort_host_mtx_sparsity_pattern : 21 ms
[OGL LOG] sort_host_mtx : 12 ms
[OGL LOG] init_preconditioner : 0 ms
[OGL LOG] solve : 173 ms
BJompGKOBiCGStab:  Solving for Uy, Initial residual = 0.132382, Final residual = 6.5501e-07, No Iterations 33
[OGL LOG] init_host_sparsity_pattern : 34 ms
[OGL LOG] matrix not stored update host matrix
[OGL LOG] update_host_mtx : 19 ms
[OGL LOG] matrix is not yet sorted, sorting host matrix
[OGL LOG] sort_host_mtx_sparsity_pattern : 21 ms
[OGL LOG] sort_host_mtx : 12 ms
[OGL LOG] init_preconditioner : 0 ms
[OGL LOG] solve : 195 ms
BJompGKOBiCGStab:  Solving for Uz, Initial residual = 0.471943, Final residual = 7.28693e-07, No Iterations 39
[OGL LOG] init_preconditioner : 0 ms
[OGL LOG] solve : 1742 ms
BJompGKOBiCGStab:  Solving for p, Initial residual = 0.42303, Final residual = 5.74024e-07, No Iterations 362
time step continuity errors : sum local = 5.55814e-08, global = 2.13578e-21, cumulative = 5.73511e-20
[OGL LOG] init_preconditioner : 0 ms
[OGL LOG] solve : 1488 ms
BJompGKOBiCGStab:  Solving for p, Initial residual = 0.368373, Final residual = 4.43155e-07, No Iterations 304
time step continuity errors : sum local = 5.41277e-09, global = -5.62184e-21, cumulative = 5.17293e-20
ExecutionTime = 116.79 s  ClockTime = 17 s

Time = 0.01

Courant Number mean: 0.136096 max: 0.906943
[OGL LOG] init_host_sparsity_pattern : 33 ms
[OGL LOG] matrix not stored update host matrix
[OGL LOG] update_host_mtx : 15 ms
[OGL LOG] matrix is not yet sorted, sorting host matrix
[OGL LOG] sort_host_mtx_sparsity_pattern : 21 ms
[OGL LOG] sort_host_mtx : 12 ms
[OGL LOG] init_preconditioner : 0 ms
[OGL LOG] solve : 143 ms
BJompGKOBiCGStab:  Solving for Ux, Initial residual = 0.023071, Final residual = 8.37975e-07, No Iterations 29
[OGL LOG] init_host_sparsity_pattern : 33 ms
[OGL LOG] matrix not stored update host matrix
[OGL LOG] update_host_mtx : 15 ms
[OGL LOG] matrix is not yet sorted, sorting host matrix
[OGL LOG] sort_host_mtx_sparsity_pattern : 21 ms
[OGL LOG] sort_host_mtx : 12 ms
[OGL LOG] init_preconditioner : 0 ms
[OGL LOG] solve : 148 ms
BJompGKOBiCGStab:  Solving for Uy, Initial residual = 0.0484019, Final residual = 9.99922e-07, No Iterations 31
[OGL LOG] init_host_sparsity_pattern : 33 ms
[OGL LOG] matrix not stored update host matrix
[OGL LOG] update_host_mtx : 16 ms
[OGL LOG] matrix is not yet sorted, sorting host matrix
[OGL LOG] sort_host_mtx_sparsity_pattern : 21 ms
[OGL LOG] sort_host_mtx : 12 ms
[OGL LOG] init_preconditioner : 0 ms
[OGL LOG] solve : 163 ms
BJompGKOBiCGStab:  Solving for Uz, Initial residual = 0.159417, Final residual = 9.78357e-07, No Iterations 35
[OGL LOG] init_preconditioner : 0 ms
[OGL LOG] solve : 1507 ms
BJompGKOBiCGStab:  Solving for p, Initial residual = 0.361796, Final residual = 7.89693e-07, No Iterations 308
time step continuity errors : sum local = 1.72607e-09, global = -3.20891e-20, cumulative = 1.96402e-20
[OGL LOG] init_preconditioner : 0 ms
[OGL LOG] solve : 1327 ms
BJompGKOBiCGStab:  Solving for p, Initial residual = 0.333295, Final residual = 7.63294e-07, No Iterations 272
time step continuity errors : sum local = 1.09439e-09, global = 1.7593e-21, cumulative = 2.13995e-20
ExecutionTime = 143.62 s  ClockTime = 21 s

End

