/*---------------------------------------------------------------------------*\
  =========                 |
  \\      /  F ield         | OpenFOAM: The Open Source CFD Toolbox
   \\    /   O peration     | Website:  https://openfoam.org
    \\  /    A nd           | Version:  8
     \\/     M anipulation  |
\*---------------------------------------------------------------------------*/
Build  : 8-13d66902f78c
Exec   : icoFoam
Date   : Jul 12 2021
Time   : 13:09:04
Host   : "uc2n400.localdomain"
PID    : 3893607
I/O    : uncollated
Case   : /pfs/data5/home/kit/scc/nq7776/code/OGL_DATA/lidDrivenCavity3D/v0.1-136-g40fef35/f584ccac99/IntelXeonGold6230CPU@2.10GHz/Test_2021-07-12-12:50:00/50/p-U-BiCGStab-GKO-none-omp/lidDrivenCavity3D
nProcs : 1
sigFpe : Enabling floating point exception trapping (FOAM_SIGFPE).
fileModificationChecking : Monitoring run-time modified files using timeStampMaster (fileModificationSkew 10)
allowSystemOperations : Allowing user-supplied system call operations

// * * * * * * * * * * * * * * * * * * * * * * * * * * * * * * * * * * * * * //
Create time

Create mesh for time = 0

Reading transportProperties

Reading field p

Reading field U

Reading/calculating face flux field phi


Starting time loop

Time = 0.002

Courant Number mean: 0 max: 0
[OGL LOG] init_host_sparsity_pattern : 37 ms
[OGL LOG] matrix not stored update host matrix
[OGL LOG] update_host_mtx : 18 ms
[OGL LOG] matrix is not yet sorted, compute sorting idxs
[OGL LOG] compute_sort : 989 ms
[OGL LOG] matrix is not yet sorted, sorting host matrix
[OGL LOG] sort_host_mtx_sparsity_pattern : 24 ms
[OGL LOG] sort_host_mtx : 15 ms
[OGL LOG] init_preconditioner : 0 ms
[OGL LOG] solve : 169 ms
noneompGKOBiCGStab:  Solving for Ux, Initial residual = 1, Final residual = 8.72813e-07, No Iterations 41
[OGL LOG] init_host_sparsity_pattern : 37 ms
[OGL LOG] matrix not stored update host matrix
[OGL LOG] update_host_mtx : 18 ms
[OGL LOG] matrix is not yet sorted, sorting host matrix
[OGL LOG] sort_host_mtx_sparsity_pattern : 23 ms
[OGL LOG] sort_host_mtx : 12 ms
[OGL LOG] init_preconditioner : 0 ms
[OGL LOG] solve : 5 ms
noneompGKOBiCGStab:  Solving for Uy, Initial residual = 0, Final residual = 0, No Iterations 0
[OGL LOG] init_host_sparsity_pattern : 36 ms
[OGL LOG] matrix not stored update host matrix
[OGL LOG] update_host_mtx : 16 ms
[OGL LOG] matrix is not yet sorted, sorting host matrix
[OGL LOG] sort_host_mtx_sparsity_pattern : 23 ms
[OGL LOG] sort_host_mtx : 12 ms
[OGL LOG] init_preconditioner : 0 ms
[OGL LOG] solve : 4 ms
noneompGKOBiCGStab:  Solving for Uz, Initial residual = 0, Final residual = 0, No Iterations 0
[OGL LOG] init_host_sparsity_pattern : 33 ms
[OGL LOG] matrix not stored update host matrix
[OGL LOG] update_host_mtx : 18 ms
[OGL LOG] matrix is not yet sorted, sorting host matrix
[OGL LOG] sort_host_mtx_sparsity_pattern : 22 ms
[OGL LOG] sort_host_mtx : 14 ms
[OGL LOG] init_preconditioner : 0 ms
[OGL LOG] solve : 1115 ms
noneompGKOBiCGStab:  Solving for p, Initial residual = 1, Final residual = 6.44353e-07, No Iterations 355
time step continuity errors : sum local = 5.27756e-09, global = 7.03755e-21, cumulative = 7.03755e-21
[OGL LOG] init_preconditioner : 0 ms
[OGL LOG] solve : 1055 ms
noneompGKOBiCGStab:  Solving for p, Initial residual = 0.721587, Final residual = 8.13519e-07, No Iterations 348
time step continuity errors : sum local = 2.64234e-07, global = -1.53411e-20, cumulative = -8.30358e-21
ExecutionTime = 154.74 s  ClockTime = 4 s

Time = 0.004

Courant Number mean: 0.0720722 max: 0.726639
[OGL LOG] init_host_sparsity_pattern : 34 ms
[OGL LOG] matrix not stored update host matrix
[OGL LOG] update_host_mtx : 16 ms
[OGL LOG] matrix is not yet sorted, sorting host matrix
[OGL LOG] sort_host_mtx_sparsity_pattern : 24 ms
[OGL LOG] sort_host_mtx : 12 ms
[OGL LOG] init_preconditioner : 0 ms
[OGL LOG] solve : 114 ms
noneompGKOBiCGStab:  Solving for Ux, Initial residual = 0.20347, Final residual = 3.1734e-07, No Iterations 37
[OGL LOG] init_host_sparsity_pattern : 35 ms
[OGL LOG] matrix not stored update host matrix
[OGL LOG] update_host_mtx : 16 ms
[OGL LOG] matrix is not yet sorted, sorting host matrix
[OGL LOG] sort_host_mtx_sparsity_pattern : 21 ms
[OGL LOG] sort_host_mtx : 12 ms
[OGL LOG] init_preconditioner : 0 ms
[OGL LOG] solve : 119 ms
noneompGKOBiCGStab:  Solving for Uy, Initial residual = 0.618427, Final residual = 7.35421e-07, No Iterations 38
[OGL LOG] init_host_sparsity_pattern : 35 ms
[OGL LOG] matrix not stored update host matrix
[OGL LOG] update_host_mtx : 16 ms
[OGL LOG] matrix is not yet sorted, sorting host matrix
[OGL LOG] sort_host_mtx_sparsity_pattern : 21 ms
[OGL LOG] sort_host_mtx : 12 ms
[OGL LOG] init_preconditioner : 0 ms
[OGL LOG] solve : 122 ms
noneompGKOBiCGStab:  Solving for Uz, Initial residual = 0.536424, Final residual = 9.24623e-07, No Iterations 39
[OGL LOG] init_preconditioner : 0 ms
[OGL LOG] solve : 1062 ms
noneompGKOBiCGStab:  Solving for p, Initial residual = 0.67332, Final residual = 7.91874e-07, No Iterations 347
time step continuity errors : sum local = 2.14016e-08, global = -4.32876e-20, cumulative = -5.15912e-20
[OGL LOG] init_preconditioner : 0 ms
[OGL LOG] solve : 1079 ms
noneompGKOBiCGStab:  Solving for p, Initial residual = 0.598888, Final residual = 9.60899e-07, No Iterations 349
time step continuity errors : sum local = 3.19324e-08, global = 2.18561e-20, cumulative = -2.9735e-20
ExecutionTime = 316.77 s  ClockTime = 7 s

Time = 0.006

Courant Number mean: 0.107408 max: 0.881755
[OGL LOG] init_host_sparsity_pattern : 34 ms
[OGL LOG] matrix not stored update host matrix
[OGL LOG] update_host_mtx : 16 ms
[OGL LOG] matrix is not yet sorted, sorting host matrix
[OGL LOG] sort_host_mtx_sparsity_pattern : 23 ms
[OGL LOG] sort_host_mtx : 12 ms
[OGL LOG] init_preconditioner : 0 ms
[OGL LOG] solve : 106 ms
noneompGKOBiCGStab:  Solving for Ux, Initial residual = 0.0995837, Final residual = 9.71089e-07, No Iterations 35
[OGL LOG] init_host_sparsity_pattern : 36 ms
[OGL LOG] matrix not stored update host matrix
[OGL LOG] update_host_mtx : 16 ms
[OGL LOG] matrix is not yet sorted, sorting host matrix
[OGL LOG] sort_host_mtx_sparsity_pattern : 21 ms
[OGL LOG] sort_host_mtx : 12 ms
[OGL LOG] init_preconditioner : 0 ms
[OGL LOG] solve : 118 ms
noneompGKOBiCGStab:  Solving for Uy, Initial residual = 0.24993, Final residual = 8.126e-07, No Iterations 39
[OGL LOG] init_host_sparsity_pattern : 35 ms
[OGL LOG] matrix not stored update host matrix
[OGL LOG] update_host_mtx : 16 ms
[OGL LOG] matrix is not yet sorted, sorting host matrix
[OGL LOG] sort_host_mtx_sparsity_pattern : 21 ms
[OGL LOG] sort_host_mtx : 12 ms
[OGL LOG] init_preconditioner : 0 ms
[OGL LOG] solve : 122 ms
noneompGKOBiCGStab:  Solving for Uz, Initial residual = 0.542004, Final residual = 6.56197e-07, No Iterations 40
[OGL LOG] init_preconditioner : 0 ms
[OGL LOG] solve : 1055 ms
noneompGKOBiCGStab:  Solving for p, Initial residual = 0.606896, Final residual = 3.22339e-07, No Iterations 342
time step continuity errors : sum local = 1.88225e-07, global = 2.5865e-20, cumulative = -3.87007e-21
[OGL LOG] init_preconditioner : 0 ms
[OGL LOG] solve : 1139 ms
noneompGKOBiCGStab:  Solving for p, Initial residual = 0.560849, Final residual = 9.22112e-07, No Iterations 362
time step continuity errors : sum local = 6.05025e-07, global = -2.27399e-20, cumulative = -2.661e-20
ExecutionTime = 481.62 s  ClockTime = 10 s

Time = 0.008

Courant Number mean: 0.123244 max: 0.890102
[OGL LOG] init_host_sparsity_pattern : 34 ms
[OGL LOG] matrix not stored update host matrix
[OGL LOG] update_host_mtx : 17 ms
[OGL LOG] matrix is not yet sorted, sorting host matrix
[OGL LOG] sort_host_mtx_sparsity_pattern : 25 ms
[OGL LOG] sort_host_mtx : 12 ms
[OGL LOG] init_preconditioner : 0 ms
[OGL LOG] solve : 100 ms
noneompGKOBiCGStab:  Solving for Ux, Initial residual = 0.0341538, Final residual = 8.51626e-07, No Iterations 31
[OGL LOG] init_host_sparsity_pattern : 36 ms
[OGL LOG] matrix not stored update host matrix
[OGL LOG] update_host_mtx : 16 ms
[OGL LOG] matrix is not yet sorted, sorting host matrix
[OGL LOG] sort_host_mtx_sparsity_pattern : 21 ms
[OGL LOG] sort_host_mtx : 12 ms
[OGL LOG] init_preconditioner : 0 ms
[OGL LOG] solve : 112 ms
noneompGKOBiCGStab:  Solving for Uy, Initial residual = 0.132383, Final residual = 9.86228e-07, No Iterations 35
[OGL LOG] init_host_sparsity_pattern : 36 ms
[OGL LOG] matrix not stored update host matrix
[OGL LOG] update_host_mtx : 16 ms
[OGL LOG] matrix is not yet sorted, sorting host matrix
[OGL LOG] sort_host_mtx_sparsity_pattern : 21 ms
[OGL LOG] sort_host_mtx : 12 ms
[OGL LOG] init_preconditioner : 0 ms
[OGL LOG] solve : 125 ms
noneompGKOBiCGStab:  Solving for Uz, Initial residual = 0.473295, Final residual = 5.71316e-07, No Iterations 39
[OGL LOG] init_preconditioner : 0 ms
[OGL LOG] solve : 1115 ms
noneompGKOBiCGStab:  Solving for p, Initial residual = 0.423208, Final residual = 9.31781e-07, No Iterations 361
time step continuity errors : sum local = 2.07909e-07, global = 3.58039e-20, cumulative = 9.19383e-21
[OGL LOG] init_preconditioner : 0 ms
[OGL LOG] solve : 1137 ms
noneompGKOBiCGStab:  Solving for p, Initial residual = 0.368557, Final residual = 7.67019e-07, No Iterations 369
time step continuity errors : sum local = 9.31952e-08, global = -9.91523e-21, cumulative = -7.21392e-22
ExecutionTime = 649.69 s  ClockTime = 13 s

Time = 0.01

Courant Number mean: 0.136096 max: 0.906944
[OGL LOG] init_host_sparsity_pattern : 34 ms
[OGL LOG] matrix not stored update host matrix
[OGL LOG] update_host_mtx : 16 ms
[OGL LOG] matrix is not yet sorted, sorting host matrix
[OGL LOG] sort_host_mtx_sparsity_pattern : 21 ms
[OGL LOG] sort_host_mtx : 12 ms
[OGL LOG] init_preconditioner : 0 ms
[OGL LOG] solve : 94 ms
noneompGKOBiCGStab:  Solving for Ux, Initial residual = 0.0230657, Final residual = 8.59784e-07, No Iterations 29
[OGL LOG] init_host_sparsity_pattern : 35 ms
[OGL LOG] matrix not stored update host matrix
[OGL LOG] update_host_mtx : 16 ms
[OGL LOG] matrix is not yet sorted, sorting host matrix
[OGL LOG] sort_host_mtx_sparsity_pattern : 21 ms
[OGL LOG] sort_host_mtx : 12 ms
[OGL LOG] init_preconditioner : 0 ms
[OGL LOG] solve : 100 ms
noneompGKOBiCGStab:  Solving for Uy, Initial residual = 0.0484846, Final residual = 9.28906e-07, No Iterations 31
[OGL LOG] init_host_sparsity_pattern : 35 ms
[OGL LOG] matrix not stored update host matrix
[OGL LOG] update_host_mtx : 16 ms
[OGL LOG] matrix is not yet sorted, sorting host matrix
[OGL LOG] sort_host_mtx_sparsity_pattern : 21 ms
[OGL LOG] sort_host_mtx : 12 ms
[OGL LOG] init_preconditioner : 0 ms
[OGL LOG] solve : 113 ms
noneompGKOBiCGStab:  Solving for Uz, Initial residual = 0.160495, Final residual = 9.15626e-07, No Iterations 35
[OGL LOG] init_preconditioner : 0 ms
[OGL LOG] solve : 1023 ms
noneompGKOBiCGStab:  Solving for p, Initial residual = 0.361709, Final residual = 5.8467e-07, No Iterations 331
time step continuity errors : sum local = 3.16842e-08, global = 7.12909e-20, cumulative = 7.05695e-20
[OGL LOG] init_preconditioner : 0 ms
[OGL LOG] solve : 958 ms
noneompGKOBiCGStab:  Solving for p, Initial residual = 0.33315, Final residual = 5.29145e-07, No Iterations 324
time step continuity errors : sum local = 1.81586e-07, global = -4.3387e-20, cumulative = 2.71824e-20
ExecutionTime = 798.51 s  ClockTime = 16 s

End

