/*---------------------------------------------------------------------------*\
  =========                 |
  \\      /  F ield         | OpenFOAM: The Open Source CFD Toolbox
   \\    /   O peration     | Website:  https://openfoam.org
    \\  /    A nd           | Version:  8
     \\/     M anipulation  |
\*---------------------------------------------------------------------------*/
Build  : 8-13d66902f78c
Exec   : icoFoam
Date   : Jul 14 2021
Time   : 03:56:03
Host   : "uc2n477.localdomain"
PID    : 2928033
I/O    : uncollated
Case   : /pfs/data5/home/kit/scc/nq7776/code/OGL_DATA/lidDrivenCavity3D/v0.1-136-g40fef35/f584ccac99/IntelXeonGold6230CPU@2.10GHz/Test_2021-07-14-00:33:42/100/p-U-CG-GKO-BJ-omp/lidDrivenCavity3D
nProcs : 1
sigFpe : Enabling floating point exception trapping (FOAM_SIGFPE).
fileModificationChecking : Monitoring run-time modified files using timeStampMaster (fileModificationSkew 10)
allowSystemOperations : Allowing user-supplied system call operations

// * * * * * * * * * * * * * * * * * * * * * * * * * * * * * * * * * * * * * //
Create time

Create mesh for time = 0

Reading transportProperties

Reading field p

Reading field U

Reading/calculating face flux field phi


Starting time loop

Time = 0.001

Courant Number mean: 0 max: 0
[OGL LOG] init_host_sparsity_pattern : 288 ms
[OGL LOG] matrix not stored update host matrix
[OGL LOG] update_host_mtx : 145 ms
[OGL LOG] matrix is not yet sorted, compute sorting idxs
[OGL LOG] compute_sort : 8301 ms
[OGL LOG] matrix is not yet sorted, sorting host matrix
[OGL LOG] sort_host_mtx_sparsity_pattern : 184 ms
[OGL LOG] sort_host_mtx : 124 ms
[OGL LOG] init_preconditioner : 45 ms
[OGL LOG] solve : 2435 ms
BJompGKOBiCGStab:  Solving for Ux, Initial residual = 1, Final residual = 7.01284e-07, No Iterations 56
[OGL LOG] init_host_sparsity_pattern : 289 ms
[OGL LOG] matrix not stored update host matrix
[OGL LOG] update_host_mtx : 155 ms
[OGL LOG] matrix is not yet sorted, sorting host matrix
[OGL LOG] sort_host_mtx_sparsity_pattern : 215 ms
[OGL LOG] sort_host_mtx : 142 ms
[OGL LOG] init_preconditioner : 67 ms
[OGL LOG] solve : 42 ms
BJompGKOBiCGStab:  Solving for Uy, Initial residual = 0, Final residual = 0, No Iterations 0
[OGL LOG] init_host_sparsity_pattern : 266 ms
[OGL LOG] matrix not stored update host matrix
[OGL LOG] update_host_mtx : 152 ms
[OGL LOG] matrix is not yet sorted, sorting host matrix
[OGL LOG] sort_host_mtx_sparsity_pattern : 182 ms
[OGL LOG] sort_host_mtx : 127 ms
[OGL LOG] init_preconditioner : 48 ms
[OGL LOG] solve : 42 ms
BJompGKOBiCGStab:  Solving for Uz, Initial residual = 0, Final residual = 0, No Iterations 0
[OGL LOG] init_host_sparsity_pattern : 266 ms
[OGL LOG] matrix not stored update host matrix
[OGL LOG] update_host_mtx : 147 ms
[OGL LOG] matrix is not yet sorted, sorting host matrix
[OGL LOG] sort_host_mtx_sparsity_pattern : 210 ms
[OGL LOG] sort_host_mtx : 125 ms
[OGL LOG] init_preconditioner : 54 ms
 CG create  precond 
[OGL LOG] solve : 18079 ms
BJompGKOCG:  Solving for p, Initial residual = 1, Final residual = 9.78731e-07, No Iterations 888
time step continuity errors : sum local = 5.86802e-10, global = 3.75768e-22, cumulative = 3.75768e-22
[OGL LOG] init_preconditioner : 0 ms
 CG create  precond 
[OGL LOG] solve : 17498 ms
BJompGKOCG:  Solving for p, Initial residual = 0.783584, Final residual = 9.49136e-07, No Iterations 882
time step continuity errors : sum local = 7.11437e-10, global = 8.93372e-21, cumulative = 9.30949e-21
ExecutionTime = 319.92 s  ClockTime = 55 s

Time = 0.002

Courant Number mean: 0.0571435 max: 0.804774
[OGL LOG] init_host_sparsity_pattern : 266 ms
[OGL LOG] matrix not stored update host matrix
[OGL LOG] update_host_mtx : 146 ms
[OGL LOG] matrix is not yet sorted, sorting host matrix
[OGL LOG] sort_host_mtx_sparsity_pattern : 199 ms
[OGL LOG] sort_host_mtx : 124 ms
[OGL LOG] init_preconditioner : 0 ms
[OGL LOG] solve : 2012 ms
BJompGKOBiCGStab:  Solving for Ux, Initial residual = 0.169075, Final residual = 9.7786e-07, No Iterations 49
[OGL LOG] init_host_sparsity_pattern : 271 ms
[OGL LOG] matrix not stored update host matrix
[OGL LOG] update_host_mtx : 146 ms
[OGL LOG] matrix is not yet sorted, sorting host matrix
[OGL LOG] sort_host_mtx_sparsity_pattern : 193 ms
[OGL LOG] sort_host_mtx : 124 ms
[OGL LOG] init_preconditioner : 0 ms
[OGL LOG] solve : 2082 ms
BJompGKOBiCGStab:  Solving for Uy, Initial residual = 0.620181, Final residual = 9.12703e-07, No Iterations 50
[OGL LOG] init_host_sparsity_pattern : 271 ms
[OGL LOG] matrix not stored update host matrix
[OGL LOG] update_host_mtx : 146 ms
[OGL LOG] matrix is not yet sorted, sorting host matrix
[OGL LOG] sort_host_mtx_sparsity_pattern : 200 ms
[OGL LOG] sort_host_mtx : 125 ms
[OGL LOG] init_preconditioner : 0 ms
[OGL LOG] solve : 2136 ms
BJompGKOBiCGStab:  Solving for Uz, Initial residual = 0.646977, Final residual = 9.19731e-07, No Iterations 53
[OGL LOG] init_preconditioner : 0 ms
 CG create  precond 
[OGL LOG] solve : 17527 ms
BJompGKOCG:  Solving for p, Initial residual = 0.798453, Final residual = 9.70086e-07, No Iterations 872
time step continuity errors : sum local = 9.8654e-10, global = -2.5814e-21, cumulative = 6.72809e-21
[OGL LOG] init_preconditioner : 0 ms
 CG create  precond 
[OGL LOG] solve : 17079 ms
BJompGKOCG:  Solving for p, Initial residual = 0.738608, Final residual = 9.81226e-07, No Iterations 866
time step continuity errors : sum local = 1.01932e-09, global = -5.37468e-22, cumulative = 6.19062e-21
ExecutionTime = 648.96 s  ClockTime = 99 s

Time = 0.003

Courant Number mean: 0.0867389 max: 0.944826
[OGL LOG] init_host_sparsity_pattern : 267 ms
[OGL LOG] matrix not stored update host matrix
[OGL LOG] update_host_mtx : 146 ms
[OGL LOG] matrix is not yet sorted, sorting host matrix
[OGL LOG] sort_host_mtx_sparsity_pattern : 195 ms
[OGL LOG] sort_host_mtx : 125 ms
[OGL LOG] init_preconditioner : 0 ms
[OGL LOG] solve : 1919 ms
BJompGKOBiCGStab:  Solving for Ux, Initial residual = 0.102637, Final residual = 6.88867e-07, No Iterations 47
[OGL LOG] init_host_sparsity_pattern : 266 ms
[OGL LOG] matrix not stored update host matrix
[OGL LOG] update_host_mtx : 146 ms
[OGL LOG] matrix is not yet sorted, sorting host matrix
[OGL LOG] sort_host_mtx_sparsity_pattern : 193 ms
[OGL LOG] sort_host_mtx : 124 ms
[OGL LOG] init_preconditioner : 0 ms
[OGL LOG] solve : 1812 ms
BJompGKOBiCGStab:  Solving for Uy, Initial residual = 0.396947, Final residual = 8.51608e-07, No Iterations 46
[OGL LOG] init_host_sparsity_pattern : 266 ms
[OGL LOG] matrix not stored update host matrix
[OGL LOG] update_host_mtx : 146 ms
[OGL LOG] matrix is not yet sorted, sorting host matrix
[OGL LOG] sort_host_mtx_sparsity_pattern : 193 ms
[OGL LOG] sort_host_mtx : 125 ms
[OGL LOG] init_preconditioner : 0 ms
[OGL LOG] solve : 2272 ms
BJompGKOBiCGStab:  Solving for Uz, Initial residual = 1.00089, Final residual = 8.72487e-07, No Iterations 56
[OGL LOG] init_preconditioner : 0 ms
 CG create  precond 
[OGL LOG] solve : 17863 ms
BJompGKOCG:  Solving for p, Initial residual = 0.832649, Final residual = 9.93303e-07, No Iterations 884
time step continuity errors : sum local = 9.56873e-10, global = -6.57834e-21, cumulative = -3.87717e-22
[OGL LOG] init_preconditioner : 0 ms
 CG create  precond 
[OGL LOG] solve : 17866 ms
BJompGKOCG:  Solving for p, Initial residual = 0.802908, Final residual = 9.8023e-07, No Iterations 882
time step continuity errors : sum local = 9.20668e-10, global = -1.38754e-21, cumulative = -1.77525e-21
ExecutionTime = 985.25 s  ClockTime = 145 s

Time = 0.004

Courant Number mean: 0.0995267 max: 0.926352
[OGL LOG] init_host_sparsity_pattern : 266 ms
[OGL LOG] matrix not stored update host matrix
[OGL LOG] update_host_mtx : 146 ms
[OGL LOG] matrix is not yet sorted, sorting host matrix
[OGL LOG] sort_host_mtx_sparsity_pattern : 195 ms
[OGL LOG] sort_host_mtx : 125 ms
[OGL LOG] init_preconditioner : 0 ms
[OGL LOG] solve : 1777 ms
BJompGKOBiCGStab:  Solving for Ux, Initial residual = 0.0541599, Final residual = 8.9523e-07, No Iterations 45
[OGL LOG] init_host_sparsity_pattern : 270 ms
[OGL LOG] matrix not stored update host matrix
[OGL LOG] update_host_mtx : 146 ms
[OGL LOG] matrix is not yet sorted, sorting host matrix
[OGL LOG] sort_host_mtx_sparsity_pattern : 193 ms
[OGL LOG] sort_host_mtx : 124 ms
[OGL LOG] init_preconditioner : 0 ms
[OGL LOG] solve : 1775 ms
BJompGKOBiCGStab:  Solving for Uy, Initial residual = 0.255021, Final residual = 9.70188e-07, No Iterations 45
[OGL LOG] init_host_sparsity_pattern : 266 ms
[OGL LOG] matrix not stored update host matrix
[OGL LOG] update_host_mtx : 146 ms
[OGL LOG] matrix is not yet sorted, sorting host matrix
[OGL LOG] sort_host_mtx_sparsity_pattern : 194 ms
[OGL LOG] sort_host_mtx : 125 ms
[OGL LOG] init_preconditioner : 0 ms
[OGL LOG] solve : 2096 ms
BJompGKOBiCGStab:  Solving for Uz, Initial residual = 0.87302, Final residual = 9.45216e-07, No Iterations 53
[OGL LOG] init_preconditioner : 0 ms
 CG create  precond 
[OGL LOG] solve : 17568 ms
BJompGKOCG:  Solving for p, Initial residual = 0.750171, Final residual = 9.97697e-07, No Iterations 884
time step continuity errors : sum local = 8.87824e-10, global = -1.00941e-20, cumulative = -1.18693e-20
[OGL LOG] init_preconditioner : 0 ms
 CG create  precond 
[OGL LOG] solve : 17266 ms
BJompGKOCG:  Solving for p, Initial residual = 0.685317, Final residual = 9.81899e-07, No Iterations 880
time step continuity errors : sum local = 8.90284e-10, global = -6.34817e-21, cumulative = -1.82175e-20
ExecutionTime = 1311.82 s  ClockTime = 188 s

Time = 0.005

Courant Number mean: 0.112163 max: 0.946348
[OGL LOG] init_host_sparsity_pattern : 266 ms
[OGL LOG] matrix not stored update host matrix
[OGL LOG] update_host_mtx : 146 ms
[OGL LOG] matrix is not yet sorted, sorting host matrix
[OGL LOG] sort_host_mtx_sparsity_pattern : 193 ms
[OGL LOG] sort_host_mtx : 125 ms
[OGL LOG] init_preconditioner : 0 ms
[OGL LOG] solve : 1597 ms
BJompGKOBiCGStab:  Solving for Ux, Initial residual = 0.0411814, Final residual = 6.98543e-07, No Iterations 40
[OGL LOG] init_host_sparsity_pattern : 271 ms
[OGL LOG] matrix not stored update host matrix
[OGL LOG] update_host_mtx : 146 ms
[OGL LOG] matrix is not yet sorted, sorting host matrix
[OGL LOG] sort_host_mtx_sparsity_pattern : 195 ms
[OGL LOG] sort_host_mtx : 125 ms
[OGL LOG] init_preconditioner : 0 ms
[OGL LOG] solve : 1738 ms
BJompGKOBiCGStab:  Solving for Uy, Initial residual = 0.13186, Final residual = 6.35252e-07, No Iterations 44
[OGL LOG] init_host_sparsity_pattern : 266 ms
[OGL LOG] matrix not stored update host matrix
[OGL LOG] update_host_mtx : 146 ms
[OGL LOG] matrix is not yet sorted, sorting host matrix
[OGL LOG] sort_host_mtx_sparsity_pattern : 194 ms
[OGL LOG] sort_host_mtx : 124 ms
[OGL LOG] init_preconditioner : 0 ms
[OGL LOG] solve : 2174 ms
BJompGKOBiCGStab:  Solving for Uz, Initial residual = 0.8718, Final residual = 9.54378e-07, No Iterations 55
[OGL LOG] init_preconditioner : 0 ms
 CG create  precond 
[OGL LOG] solve : 17429 ms
BJompGKOCG:  Solving for p, Initial residual = 0.760004, Final residual = 9.42158e-07, No Iterations 888
time step continuity errors : sum local = 7.12374e-10, global = -3.03528e-21, cumulative = -2.12528e-20
[OGL LOG] init_preconditioner : 0 ms
 CG create  precond 
[OGL LOG] solve : 17424 ms
BJompGKOCG:  Solving for p, Initial residual = 0.713348, Final residual = 9.26478e-07, No Iterations 887
time step continuity errors : sum local = 6.89334e-10, global = -1.18241e-20, cumulative = -3.30769e-20
ExecutionTime = 1637.46 s  ClockTime = 232 s

End

