/*---------------------------------------------------------------------------*\
  =========                 |
  \\      /  F ield         | OpenFOAM: The Open Source CFD Toolbox
   \\    /   O peration     | Website:  https://openfoam.org
    \\  /    A nd           | Version:  8
     \\/     M anipulation  |
\*---------------------------------------------------------------------------*/
Build  : 8-13d66902f78c
Exec   : icoFoam
Date   : Jul 14 2021
Time   : 02:04:28
Host   : "uc2n399.localdomain"
PID    : 4099506
I/O    : uncollated
Case   : /pfs/data5/home/kit/scc/nq7776/code/OGL_DATA/lidDrivenCavity3D/v0.1-136-g40fef35/f584ccac99/IntelXeonGold6230CPU@2.10GHz/Test_2021-07-14-01:16:21/75/p-U-BiCGStab-GKO-none-omp/lidDrivenCavity3D
nProcs : 1
sigFpe : Enabling floating point exception trapping (FOAM_SIGFPE).
fileModificationChecking : Monitoring run-time modified files using timeStampMaster (fileModificationSkew 10)
allowSystemOperations : Allowing user-supplied system call operations

// * * * * * * * * * * * * * * * * * * * * * * * * * * * * * * * * * * * * * //
Create time

Create mesh for time = 0

Reading transportProperties

Reading field p

Reading field U

Reading/calculating face flux field phi


Starting time loop

Time = 0.00133333

Courant Number mean: 0 max: 0
[OGL LOG] init_host_sparsity_pattern : 120 ms
[OGL LOG] matrix not stored update host matrix
[OGL LOG] update_host_mtx : 61 ms
[OGL LOG] matrix is not yet sorted, compute sorting idxs
[OGL LOG] compute_sort : 3335 ms
[OGL LOG] matrix is not yet sorted, sorting host matrix
[OGL LOG] sort_host_mtx_sparsity_pattern : 77 ms
[OGL LOG] sort_host_mtx : 52 ms
[OGL LOG] init_preconditioner : 0 ms
[OGL LOG] solve : 641 ms
noneompGKOBiCGStab:  Solving for Ux, Initial residual = 1, Final residual = 8.84363e-07, No Iterations 51
[OGL LOG] init_host_sparsity_pattern : 116 ms
[OGL LOG] matrix not stored update host matrix
[OGL LOG] update_host_mtx : 61 ms
[OGL LOG] matrix is not yet sorted, sorting host matrix
[OGL LOG] sort_host_mtx_sparsity_pattern : 80 ms
[OGL LOG] sort_host_mtx : 43 ms
[OGL LOG] init_preconditioner : 0 ms
[OGL LOG] solve : 15 ms
noneompGKOBiCGStab:  Solving for Uy, Initial residual = 0, Final residual = 0, No Iterations 0
[OGL LOG] init_host_sparsity_pattern : 111 ms
[OGL LOG] matrix not stored update host matrix
[OGL LOG] update_host_mtx : 53 ms
[OGL LOG] matrix is not yet sorted, sorting host matrix
[OGL LOG] sort_host_mtx_sparsity_pattern : 80 ms
[OGL LOG] sort_host_mtx : 43 ms
[OGL LOG] init_preconditioner : 0 ms
[OGL LOG] solve : 17 ms
noneompGKOBiCGStab:  Solving for Uz, Initial residual = 0, Final residual = 0, No Iterations 0
[OGL LOG] init_host_sparsity_pattern : 113 ms
[OGL LOG] matrix not stored update host matrix
[OGL LOG] update_host_mtx : 62 ms
[OGL LOG] matrix is not yet sorted, sorting host matrix
[OGL LOG] sort_host_mtx_sparsity_pattern : 80 ms
[OGL LOG] sort_host_mtx : 43 ms
[OGL LOG] init_preconditioner : 0 ms
[OGL LOG] solve : 7182 ms
noneompGKOBiCGStab:  Solving for p, Initial residual = 1, Final residual = 8.59446e-07, No Iterations 584
time step continuity errors : sum local = 2.95962e-08, global = 1.0259e-20, cumulative = 1.0259e-20
[OGL LOG] init_preconditioner : 0 ms
[OGL LOG] solve : 6147 ms
noneompGKOBiCGStab:  Solving for p, Initial residual = 0.759338, Final residual = 9.68203e-07, No Iterations 516
time step continuity errors : sum local = 4.01789e-08, global = -1.25244e-20, cumulative = -2.26541e-21
ExecutionTime = 62.65 s  ClockTime = 21 s

Time = 0.00266667

Courant Number mean: 0.0631768 max: 0.775391
[OGL LOG] init_host_sparsity_pattern : 111 ms
[OGL LOG] matrix not stored update host matrix
[OGL LOG] update_host_mtx : 55 ms
[OGL LOG] matrix is not yet sorted, sorting host matrix
[OGL LOG] sort_host_mtx_sparsity_pattern : 80 ms
[OGL LOG] sort_host_mtx : 44 ms
[OGL LOG] init_preconditioner : 0 ms
[OGL LOG] solve : 605 ms
noneompGKOBiCGStab:  Solving for Ux, Initial residual = 0.18304, Final residual = 2.77466e-07, No Iterations 49
[OGL LOG] init_host_sparsity_pattern : 112 ms
[OGL LOG] matrix not stored update host matrix
[OGL LOG] update_host_mtx : 53 ms
[OGL LOG] matrix is not yet sorted, sorting host matrix
[OGL LOG] sort_host_mtx_sparsity_pattern : 72 ms
[OGL LOG] sort_host_mtx : 43 ms
[OGL LOG] init_preconditioner : 0 ms
[OGL LOG] solve : 645 ms
noneompGKOBiCGStab:  Solving for Uy, Initial residual = 0.619618, Final residual = 8.81549e-07, No Iterations 52
[OGL LOG] init_host_sparsity_pattern : 112 ms
[OGL LOG] matrix not stored update host matrix
[OGL LOG] update_host_mtx : 53 ms
[OGL LOG] matrix is not yet sorted, sorting host matrix
[OGL LOG] sort_host_mtx_sparsity_pattern : 72 ms
[OGL LOG] sort_host_mtx : 43 ms
[OGL LOG] init_preconditioner : 0 ms
[OGL LOG] solve : 583 ms
noneompGKOBiCGStab:  Solving for Uz, Initial residual = 0.60512, Final residual = 7.67107e-07, No Iterations 47
[OGL LOG] init_preconditioner : 0 ms
[OGL LOG] solve : 6300 ms
noneompGKOBiCGStab:  Solving for p, Initial residual = 0.749117, Final residual = 7.232e-07, No Iterations 513
time step continuity errors : sum local = 2.01487e-06, global = 1.10084e-22, cumulative = -2.15532e-21
[OGL LOG] init_preconditioner : 0 ms
[OGL LOG] solve : 6491 ms
noneompGKOBiCGStab:  Solving for p, Initial residual = 0.684016, Final residual = 3.31251e-07, No Iterations 522
time step continuity errors : sum local = 2.30187e-08, global = -1.85342e-21, cumulative = -4.00875e-21
ExecutionTime = 122.38 s  ClockTime = 37 s

Time = 0.004

Courant Number mean: 0.0951466 max: 0.917123
[OGL LOG] init_host_sparsity_pattern : 111 ms
[OGL LOG] matrix not stored update host matrix
[OGL LOG] update_host_mtx : 55 ms
[OGL LOG] matrix is not yet sorted, sorting host matrix
[OGL LOG] sort_host_mtx_sparsity_pattern : 87 ms
[OGL LOG] sort_host_mtx : 43 ms
[OGL LOG] init_preconditioner : 0 ms
[OGL LOG] solve : 503 ms
noneompGKOBiCGStab:  Solving for Ux, Initial residual = 0.101884, Final residual = 9.75244e-07, No Iterations 41
[OGL LOG] init_host_sparsity_pattern : 111 ms
[OGL LOG] matrix not stored update host matrix
[OGL LOG] update_host_mtx : 53 ms
[OGL LOG] matrix is not yet sorted, sorting host matrix
[OGL LOG] sort_host_mtx_sparsity_pattern : 72 ms
[OGL LOG] sort_host_mtx : 43 ms
[OGL LOG] init_preconditioner : 0 ms
[OGL LOG] solve : 537 ms
noneompGKOBiCGStab:  Solving for Uy, Initial residual = 0.335757, Final residual = 8.55573e-07, No Iterations 42
[OGL LOG] init_host_sparsity_pattern : 111 ms
[OGL LOG] matrix not stored update host matrix
[OGL LOG] update_host_mtx : 53 ms
[OGL LOG] matrix is not yet sorted, sorting host matrix
[OGL LOG] sort_host_mtx_sparsity_pattern : 72 ms
[OGL LOG] sort_host_mtx : 43 ms
[OGL LOG] init_preconditioner : 0 ms
[OGL LOG] solve : 588 ms
noneompGKOBiCGStab:  Solving for Uz, Initial residual = 0.912833, Final residual = 8.54996e-07, No Iterations 46
[OGL LOG] init_preconditioner : 0 ms
[OGL LOG] solve : 6570 ms
noneompGKOBiCGStab:  Solving for p, Initial residual = 0.754827, Final residual = 7.02871e-07, No Iterations 540
time step continuity errors : sum local = 4.3161e-08, global = -2.02888e-21, cumulative = -6.03763e-21
[OGL LOG] init_preconditioner : 0 ms
[OGL LOG] solve : 6607 ms
noneompGKOBiCGStab:  Solving for p, Initial residual = 0.71712, Final residual = 8.88834e-07, No Iterations 532
time step continuity errors : sum local = 6.60683e-08, global = 2.9095e-20, cumulative = 2.30573e-20
ExecutionTime = 182.83 s  ClockTime = 53 s

Time = 0.00533333

Courant Number mean: 0.10926 max: 0.913477
[OGL LOG] init_host_sparsity_pattern : 111 ms
[OGL LOG] matrix not stored update host matrix
[OGL LOG] update_host_mtx : 54 ms
[OGL LOG] matrix is not yet sorted, sorting host matrix
[OGL LOG] sort_host_mtx_sparsity_pattern : 79 ms
[OGL LOG] sort_host_mtx : 43 ms
[OGL LOG] init_preconditioner : 0 ms
[OGL LOG] solve : 530 ms
noneompGKOBiCGStab:  Solving for Ux, Initial residual = 0.0446731, Final residual = 7.16283e-07, No Iterations 41
[OGL LOG] init_host_sparsity_pattern : 112 ms
[OGL LOG] matrix not stored update host matrix
[OGL LOG] update_host_mtx : 53 ms
[OGL LOG] matrix is not yet sorted, sorting host matrix
[OGL LOG] sort_host_mtx_sparsity_pattern : 72 ms
[OGL LOG] sort_host_mtx : 43 ms
[OGL LOG] init_preconditioner : 0 ms
[OGL LOG] solve : 614 ms
noneompGKOBiCGStab:  Solving for Uy, Initial residual = 0.197692, Final residual = 5.07796e-07, No Iterations 48
[OGL LOG] init_host_sparsity_pattern : 111 ms
[OGL LOG] matrix not stored update host matrix
[OGL LOG] update_host_mtx : 53 ms
[OGL LOG] matrix is not yet sorted, sorting host matrix
[OGL LOG] sort_host_mtx_sparsity_pattern : 72 ms
[OGL LOG] sort_host_mtx : 43 ms
[OGL LOG] init_preconditioner : 0 ms
[OGL LOG] solve : 628 ms
noneompGKOBiCGStab:  Solving for Uz, Initial residual = 0.738239, Final residual = 9.34859e-07, No Iterations 49
[OGL LOG] init_preconditioner : 0 ms
[OGL LOG] solve : 6797 ms
noneompGKOBiCGStab:  Solving for p, Initial residual = 0.617465, Final residual = 9.83896e-07, No Iterations 565
time step continuity errors : sum local = 4.87762e-08, global = 1.31105e-20, cumulative = 3.61678e-20
[OGL LOG] init_preconditioner : 0 ms
[OGL LOG] solve : 6750 ms
noneompGKOBiCGStab:  Solving for p, Initial residual = 0.554755, Final residual = 9.44979e-07, No Iterations 543
time step continuity errors : sum local = 1.69667e-08, global = 9.20973e-21, cumulative = 4.53776e-20
ExecutionTime = 245.31 s  ClockTime = 69 s

Time = 0.00666667

Courant Number mean: 0.122085 max: 0.929105
[OGL LOG] init_host_sparsity_pattern : 112 ms
[OGL LOG] matrix not stored update host matrix
[OGL LOG] update_host_mtx : 55 ms
[OGL LOG] matrix is not yet sorted, sorting host matrix
[OGL LOG] sort_host_mtx_sparsity_pattern : 79 ms
[OGL LOG] sort_host_mtx : 43 ms
[OGL LOG] init_preconditioner : 0 ms
[OGL LOG] solve : 500 ms
noneompGKOBiCGStab:  Solving for Ux, Initial residual = 0.0319391, Final residual = 8.26391e-07, No Iterations 39
[OGL LOG] init_host_sparsity_pattern : 112 ms
[OGL LOG] matrix not stored update host matrix
[OGL LOG] update_host_mtx : 53 ms
[OGL LOG] matrix is not yet sorted, sorting host matrix
[OGL LOG] sort_host_mtx_sparsity_pattern : 72 ms
[OGL LOG] sort_host_mtx : 43 ms
[OGL LOG] init_preconditioner : 0 ms
[OGL LOG] solve : 511 ms
noneompGKOBiCGStab:  Solving for Uy, Initial residual = 0.0803525, Final residual = 6.53577e-07, No Iterations 40
[OGL LOG] init_host_sparsity_pattern : 112 ms
[OGL LOG] matrix not stored update host matrix
[OGL LOG] update_host_mtx : 53 ms
[OGL LOG] matrix is not yet sorted, sorting host matrix
[OGL LOG] sort_host_mtx_sparsity_pattern : 72 ms
[OGL LOG] sort_host_mtx : 43 ms
[OGL LOG] init_preconditioner : 0 ms
[OGL LOG] solve : 553 ms
noneompGKOBiCGStab:  Solving for Uz, Initial residual = 0.51827, Final residual = 3.3577e-07, No Iterations 43
[OGL LOG] init_preconditioner : 0 ms
[OGL LOG] solve : 6339 ms
noneompGKOBiCGStab:  Solving for p, Initial residual = 0.592139, Final residual = 9.08296e-07, No Iterations 527
time step continuity errors : sum local = 7.58737e-09, global = -2.73683e-20, cumulative = 1.80093e-20
[OGL LOG] init_preconditioner : 0 ms
[OGL LOG] solve : 6653 ms
noneompGKOBiCGStab:  Solving for p, Initial residual = 0.543207, Final residual = 5.83828e-07, No Iterations 536
time step continuity errors : sum local = 4.69088e-08, global = 2.81234e-21, cumulative = 2.08216e-20
ExecutionTime = 304.74 s  ClockTime = 85 s

End

