/*---------------------------------------------------------------------------*\
  =========                 |
  \\      /  F ield         | OpenFOAM: The Open Source CFD Toolbox
   \\    /   O peration     | Website:  https://openfoam.org
    \\  /    A nd           | Version:  8
     \\/     M anipulation  |
\*---------------------------------------------------------------------------*/
Build  : 8-13d66902f78c
Exec   : icoFoam
Date   : Jul 12 2021
Time   : 13:45:30
Host   : "uc2n400.localdomain"
PID    : 3896119
I/O    : uncollated
Case   : /pfs/data5/home/kit/scc/nq7776/code/OGL_DATA/lidDrivenCavity3D/v0.1-136-g40fef35/f584ccac99/IntelXeonGold6230CPU@2.10GHz/Test_2021-07-12-12:50:00/75/p-U-BiCGStab-GKO-none-omp/lidDrivenCavity3D
nProcs : 1
sigFpe : Enabling floating point exception trapping (FOAM_SIGFPE).
fileModificationChecking : Monitoring run-time modified files using timeStampMaster (fileModificationSkew 10)
allowSystemOperations : Allowing user-supplied system call operations

// * * * * * * * * * * * * * * * * * * * * * * * * * * * * * * * * * * * * * //
Create time

Create mesh for time = 0

Reading transportProperties

Reading field p

Reading field U

Reading/calculating face flux field phi


Starting time loop

Time = 0.00133333

Courant Number mean: 0 max: 0
[OGL LOG] init_host_sparsity_pattern : 120 ms
[OGL LOG] matrix not stored update host matrix
[OGL LOG] update_host_mtx : 61 ms
[OGL LOG] matrix is not yet sorted, compute sorting idxs
[OGL LOG] compute_sort : 3640 ms
[OGL LOG] matrix is not yet sorted, sorting host matrix
[OGL LOG] sort_host_mtx_sparsity_pattern : 77 ms
[OGL LOG] sort_host_mtx : 51 ms
[OGL LOG] init_preconditioner : 0 ms
[OGL LOG] solve : 516 ms
noneompGKOBiCGStab:  Solving for Ux, Initial residual = 1, Final residual = 3.51283e-07, No Iterations 51
[OGL LOG] init_host_sparsity_pattern : 116 ms
[OGL LOG] matrix not stored update host matrix
[OGL LOG] update_host_mtx : 61 ms
[OGL LOG] matrix is not yet sorted, sorting host matrix
[OGL LOG] sort_host_mtx_sparsity_pattern : 80 ms
[OGL LOG] sort_host_mtx : 43 ms
[OGL LOG] init_preconditioner : 0 ms
[OGL LOG] solve : 12 ms
noneompGKOBiCGStab:  Solving for Uy, Initial residual = 0, Final residual = 0, No Iterations 0
[OGL LOG] init_host_sparsity_pattern : 111 ms
[OGL LOG] matrix not stored update host matrix
[OGL LOG] update_host_mtx : 53 ms
[OGL LOG] matrix is not yet sorted, sorting host matrix
[OGL LOG] sort_host_mtx_sparsity_pattern : 80 ms
[OGL LOG] sort_host_mtx : 43 ms
[OGL LOG] init_preconditioner : 0 ms
[OGL LOG] solve : 11 ms
noneompGKOBiCGStab:  Solving for Uz, Initial residual = 0, Final residual = 0, No Iterations 0
[OGL LOG] init_host_sparsity_pattern : 112 ms
[OGL LOG] matrix not stored update host matrix
[OGL LOG] update_host_mtx : 66 ms
[OGL LOG] matrix is not yet sorted, sorting host matrix
[OGL LOG] sort_host_mtx_sparsity_pattern : 81 ms
[OGL LOG] sort_host_mtx : 43 ms
[OGL LOG] init_preconditioner : 0 ms
[OGL LOG] solve : 5664 ms
noneompGKOBiCGStab:  Solving for p, Initial residual = 1, Final residual = 9.01179e-07, No Iterations 566
time step continuity errors : sum local = 4.51064e-08, global = -1.94007e-21, cumulative = -1.94007e-21
[OGL LOG] init_preconditioner : 0 ms
[OGL LOG] solve : 5012 ms
noneompGKOBiCGStab:  Solving for p, Initial residual = 0.759335, Final residual = 5.88839e-07, No Iterations 516
time step continuity errors : sum local = 1.2275e-09, global = 2.21475e-21, cumulative = 2.74689e-22
ExecutionTime = 96.71 s  ClockTime = 18 s

Time = 0.00266667

Courant Number mean: 0.0631769 max: 0.775367
[OGL LOG] init_host_sparsity_pattern : 111 ms
[OGL LOG] matrix not stored update host matrix
[OGL LOG] update_host_mtx : 55 ms
[OGL LOG] matrix is not yet sorted, sorting host matrix
[OGL LOG] sort_host_mtx_sparsity_pattern : 81 ms
[OGL LOG] sort_host_mtx : 44 ms
[OGL LOG] init_preconditioner : 0 ms
[OGL LOG] solve : 468 ms
noneompGKOBiCGStab:  Solving for Ux, Initial residual = 0.183038, Final residual = 4.9943e-07, No Iterations 45
[OGL LOG] init_host_sparsity_pattern : 112 ms
[OGL LOG] matrix not stored update host matrix
[OGL LOG] update_host_mtx : 54 ms
[OGL LOG] matrix is not yet sorted, sorting host matrix
[OGL LOG] sort_host_mtx_sparsity_pattern : 73 ms
[OGL LOG] sort_host_mtx : 44 ms
[OGL LOG] init_preconditioner : 0 ms
[OGL LOG] solve : 462 ms
noneompGKOBiCGStab:  Solving for Uy, Initial residual = 0.619624, Final residual = 5.92028e-07, No Iterations 45
[OGL LOG] init_host_sparsity_pattern : 112 ms
[OGL LOG] matrix not stored update host matrix
[OGL LOG] update_host_mtx : 53 ms
[OGL LOG] matrix is not yet sorted, sorting host matrix
[OGL LOG] sort_host_mtx_sparsity_pattern : 73 ms
[OGL LOG] sort_host_mtx : 43 ms
[OGL LOG] init_preconditioner : 0 ms
[OGL LOG] solve : 519 ms
noneompGKOBiCGStab:  Solving for Uz, Initial residual = 0.604855, Final residual = 9.31114e-07, No Iterations 51
[OGL LOG] init_preconditioner : 0 ms
[OGL LOG] solve : 4957 ms
noneompGKOBiCGStab:  Solving for p, Initial residual = 0.749128, Final residual = 6.5402e-07, No Iterations 494
time step continuity errors : sum local = 1.57351e-06, global = -3.86319e-20, cumulative = -3.83573e-20
[OGL LOG] init_preconditioner : 0 ms
[OGL LOG] solve : 5448 ms
noneompGKOBiCGStab:  Solving for p, Initial residual = 0.68411, Final residual = 7.73293e-07, No Iterations 541
time step continuity errors : sum local = 5.69428e-08, global = -2.91521e-20, cumulative = -6.75093e-20
ExecutionTime = 192.83 s  ClockTime = 31 s

Time = 0.004

Courant Number mean: 0.0951463 max: 0.917098
[OGL LOG] init_host_sparsity_pattern : 111 ms
[OGL LOG] matrix not stored update host matrix
[OGL LOG] update_host_mtx : 56 ms
[OGL LOG] matrix is not yet sorted, sorting host matrix
[OGL LOG] sort_host_mtx_sparsity_pattern : 92 ms
[OGL LOG] sort_host_mtx : 44 ms
[OGL LOG] init_preconditioner : 0 ms
[OGL LOG] solve : 439 ms
noneompGKOBiCGStab:  Solving for Ux, Initial residual = 0.101989, Final residual = 8.48736e-07, No Iterations 41
[OGL LOG] init_host_sparsity_pattern : 112 ms
[OGL LOG] matrix not stored update host matrix
[OGL LOG] update_host_mtx : 53 ms
[OGL LOG] matrix is not yet sorted, sorting host matrix
[OGL LOG] sort_host_mtx_sparsity_pattern : 72 ms
[OGL LOG] sort_host_mtx : 43 ms
[OGL LOG] init_preconditioner : 0 ms
[OGL LOG] solve : 446 ms
noneompGKOBiCGStab:  Solving for Uy, Initial residual = 0.335288, Final residual = 6.08473e-07, No Iterations 42
[OGL LOG] init_host_sparsity_pattern : 112 ms
[OGL LOG] matrix not stored update host matrix
[OGL LOG] update_host_mtx : 53 ms
[OGL LOG] matrix is not yet sorted, sorting host matrix
[OGL LOG] sort_host_mtx_sparsity_pattern : 72 ms
[OGL LOG] sort_host_mtx : 43 ms
[OGL LOG] init_preconditioner : 0 ms
[OGL LOG] solve : 502 ms
noneompGKOBiCGStab:  Solving for Uz, Initial residual = 0.919145, Final residual = 7.69501e-07, No Iterations 47
[OGL LOG] init_preconditioner : 0 ms
[OGL LOG] solve : 5373 ms
noneompGKOBiCGStab:  Solving for p, Initial residual = 0.754808, Final residual = 7.14009e-07, No Iterations 540
time step continuity errors : sum local = 4.52596e-08, global = 2.36234e-21, cumulative = -6.5147e-20
[OGL LOG] init_preconditioner : 0 ms
[OGL LOG] solve : 5648 ms
noneompGKOBiCGStab:  Solving for p, Initial residual = 0.716911, Final residual = 7.95552e-07, No Iterations 564
time step continuity errors : sum local = 1.58932e-08, global = -4.60813e-21, cumulative = -6.97551e-20
ExecutionTime = 293.4 s  ClockTime = 45 s

Time = 0.00533333

Courant Number mean: 0.109256 max: 0.913435
[OGL LOG] init_host_sparsity_pattern : 111 ms
[OGL LOG] matrix not stored update host matrix
[OGL LOG] update_host_mtx : 54 ms
[OGL LOG] matrix is not yet sorted, sorting host matrix
[OGL LOG] sort_host_mtx_sparsity_pattern : 79 ms
[OGL LOG] sort_host_mtx : 43 ms
[OGL LOG] init_preconditioner : 0 ms
[OGL LOG] solve : 410 ms
noneompGKOBiCGStab:  Solving for Ux, Initial residual = 0.0447247, Final residual = 9.64943e-07, No Iterations 38
[OGL LOG] init_host_sparsity_pattern : 111 ms
[OGL LOG] matrix not stored update host matrix
[OGL LOG] update_host_mtx : 53 ms
[OGL LOG] matrix is not yet sorted, sorting host matrix
[OGL LOG] sort_host_mtx_sparsity_pattern : 72 ms
[OGL LOG] sort_host_mtx : 43 ms
[OGL LOG] init_preconditioner : 0 ms
[OGL LOG] solve : 436 ms
noneompGKOBiCGStab:  Solving for Uy, Initial residual = 0.197588, Final residual = 9.91118e-07, No Iterations 41
[OGL LOG] init_host_sparsity_pattern : 112 ms
[OGL LOG] matrix not stored update host matrix
[OGL LOG] update_host_mtx : 53 ms
[OGL LOG] matrix is not yet sorted, sorting host matrix
[OGL LOG] sort_host_mtx_sparsity_pattern : 72 ms
[OGL LOG] sort_host_mtx : 43 ms
[OGL LOG] init_preconditioner : 0 ms
[OGL LOG] solve : 504 ms
noneompGKOBiCGStab:  Solving for Uz, Initial residual = 0.735712, Final residual = 8.47358e-07, No Iterations 47
[OGL LOG] init_preconditioner : 0 ms
[OGL LOG] solve : 5289 ms
noneompGKOBiCGStab:  Solving for p, Initial residual = 0.617484, Final residual = 3.97132e-07, No Iterations 537
time step continuity errors : sum local = 1.9206e-07, global = -2.18541e-20, cumulative = -9.16092e-20
[OGL LOG] init_preconditioner : 0 ms
[OGL LOG] solve : 5322 ms
noneompGKOBiCGStab:  Solving for p, Initial residual = 0.554837, Final residual = 6.33754e-07, No Iterations 544
time step continuity errors : sum local = 5.48903e-08, global = -1.85646e-20, cumulative = -1.10174e-19
ExecutionTime = 390.36 s  ClockTime = 58 s

Time = 0.00666667

Courant Number mean: 0.122085 max: 0.929084
[OGL LOG] init_host_sparsity_pattern : 112 ms
[OGL LOG] matrix not stored update host matrix
[OGL LOG] update_host_mtx : 54 ms
[OGL LOG] matrix is not yet sorted, sorting host matrix
[OGL LOG] sort_host_mtx_sparsity_pattern : 79 ms
[OGL LOG] sort_host_mtx : 43 ms
[OGL LOG] init_preconditioner : 0 ms
[OGL LOG] solve : 408 ms
noneompGKOBiCGStab:  Solving for Ux, Initial residual = 0.0318901, Final residual = 8.68261e-07, No Iterations 40
[OGL LOG] init_host_sparsity_pattern : 113 ms
[OGL LOG] matrix not stored update host matrix
[OGL LOG] update_host_mtx : 53 ms
[OGL LOG] matrix is not yet sorted, sorting host matrix
[OGL LOG] sort_host_mtx_sparsity_pattern : 72 ms
[OGL LOG] sort_host_mtx : 43 ms
[OGL LOG] init_preconditioner : 0 ms
[OGL LOG] solve : 430 ms
noneompGKOBiCGStab:  Solving for Uy, Initial residual = 0.0806157, Final residual = 7.67146e-07, No Iterations 40
[OGL LOG] init_host_sparsity_pattern : 111 ms
[OGL LOG] matrix not stored update host matrix
[OGL LOG] update_host_mtx : 53 ms
[OGL LOG] matrix is not yet sorted, sorting host matrix
[OGL LOG] sort_host_mtx_sparsity_pattern : 72 ms
[OGL LOG] sort_host_mtx : 43 ms
[OGL LOG] init_preconditioner : 0 ms
[OGL LOG] solve : 508 ms
noneompGKOBiCGStab:  Solving for Uz, Initial residual = 0.515316, Final residual = 6.26644e-07, No Iterations 46
[OGL LOG] init_preconditioner : 0 ms
[OGL LOG] solve : 5225 ms
noneompGKOBiCGStab:  Solving for p, Initial residual = 0.592066, Final residual = 9.71016e-07, No Iterations 516
time step continuity errors : sum local = 7.72123e-09, global = 1.12296e-20, cumulative = -9.89441e-20
[OGL LOG] init_preconditioner : 0 ms
[OGL LOG] solve : 5037 ms
noneompGKOBiCGStab:  Solving for p, Initial residual = 0.54307, Final residual = 8.80541e-07, No Iterations 515
time step continuity errors : sum local = 1.14995e-08, global = 6.84681e-21, cumulative = -9.20973e-20
ExecutionTime = 484.54 s  ClockTime = 71 s

End

