/*---------------------------------------------------------------------------*\
  =========                 |
  \\      /  F ield         | OpenFOAM: The Open Source CFD Toolbox
   \\    /   O peration     | Website:  https://openfoam.org
    \\  /    A nd           | Version:  8
     \\/     M anipulation  |
\*---------------------------------------------------------------------------*/
Build  : 8-13d66902f78c
Exec   : icoFoam
Date   : Jul 12 2021
Time   : 14:59:16
Host   : "uc2n402.localdomain"
PID    : 3442122
I/O    : uncollated
Case   : /pfs/data5/home/kit/scc/nq7776/code/OGL_DATA/lidDrivenCavity3D/v0.1-136-g40fef35/f584ccac99/IntelXeonGold6230CPU@2.10GHz/Test_2021-07-12-12:43:44/100/p-U-CG-GKO-none-omp/lidDrivenCavity3D
nProcs : 1
sigFpe : Enabling floating point exception trapping (FOAM_SIGFPE).
fileModificationChecking : Monitoring run-time modified files using timeStampMaster (fileModificationSkew 10)
allowSystemOperations : Allowing user-supplied system call operations

// * * * * * * * * * * * * * * * * * * * * * * * * * * * * * * * * * * * * * //
Create time

Create mesh for time = 0

Reading transportProperties

Reading field p

Reading field U

Reading/calculating face flux field phi


Starting time loop

Time = 0.001

Courant Number mean: 0 max: 0
[OGL LOG] init_host_sparsity_pattern : 288 ms
[OGL LOG] matrix not stored update host matrix
[OGL LOG] update_host_mtx : 145 ms
[OGL LOG] matrix is not yet sorted, compute sorting idxs
[OGL LOG] compute_sort : 9046 ms
[OGL LOG] matrix is not yet sorted, sorting host matrix
[OGL LOG] sort_host_mtx_sparsity_pattern : 184 ms
[OGL LOG] sort_host_mtx : 123 ms
[OGL LOG] init_preconditioner : 0 ms
[OGL LOG] solve : 1509 ms
noneompGKOBiCGStab:  Solving for Ux, Initial residual = 1, Final residual = 9.90061e-07, No Iterations 57
[OGL LOG] init_host_sparsity_pattern : 288 ms
[OGL LOG] matrix not stored update host matrix
[OGL LOG] update_host_mtx : 151 ms
[OGL LOG] matrix is not yet sorted, sorting host matrix
[OGL LOG] sort_host_mtx_sparsity_pattern : 200 ms
[OGL LOG] sort_host_mtx : 125 ms
[OGL LOG] init_preconditioner : 0 ms
[OGL LOG] solve : 46 ms
noneompGKOBiCGStab:  Solving for Uy, Initial residual = 0, Final residual = 0, No Iterations 0
[OGL LOG] init_host_sparsity_pattern : 267 ms
[OGL LOG] matrix not stored update host matrix
[OGL LOG] update_host_mtx : 145 ms
[OGL LOG] matrix is not yet sorted, sorting host matrix
[OGL LOG] sort_host_mtx_sparsity_pattern : 193 ms
[OGL LOG] sort_host_mtx : 125 ms
[OGL LOG] init_preconditioner : 0 ms
[OGL LOG] solve : 35 ms
noneompGKOBiCGStab:  Solving for Uz, Initial residual = 0, Final residual = 0, No Iterations 0
[OGL LOG] init_host_sparsity_pattern : 288 ms
[OGL LOG] matrix not stored update host matrix
[OGL LOG] update_host_mtx : 147 ms
[OGL LOG] matrix is not yet sorted, sorting host matrix
[OGL LOG] sort_host_mtx_sparsity_pattern : 192 ms
[OGL LOG] sort_host_mtx : 125 ms
[OGL LOG] init_preconditioner : 0 ms
[OGL LOG] solve : 10969 ms
noneompGKOCG:  Solving for p, Initial residual = 1, Final residual = 9.86968e-07, No Iterations 900
time step continuity errors : sum local = 5.91737e-10, global = -7.16685e-21, cumulative = -7.16685e-21
[OGL LOG] init_preconditioner : 0 ms
[OGL LOG] solve : 11306 ms
noneompGKOCG:  Solving for p, Initial residual = 0.783585, Final residual = 9.53841e-07, No Iterations 893
time step continuity errors : sum local = 7.14956e-10, global = -6.72156e-22, cumulative = -7.83901e-21
ExecutionTime = 207.54 s  ClockTime = 41 s

Time = 0.002

Courant Number mean: 0.0571435 max: 0.804774
[OGL LOG] init_host_sparsity_pattern : 267 ms
[OGL LOG] matrix not stored update host matrix
[OGL LOG] update_host_mtx : 136 ms
[OGL LOG] matrix is not yet sorted, sorting host matrix
[OGL LOG] sort_host_mtx_sparsity_pattern : 199 ms
[OGL LOG] sort_host_mtx : 124 ms
[OGL LOG] init_preconditioner : 0 ms
[OGL LOG] solve : 1181 ms
noneompGKOBiCGStab:  Solving for Ux, Initial residual = 0.169075, Final residual = 9.66775e-07, No Iterations 46
[OGL LOG] init_host_sparsity_pattern : 278 ms
[OGL LOG] matrix not stored update host matrix
[OGL LOG] update_host_mtx : 159 ms
[OGL LOG] matrix is not yet sorted, sorting host matrix
[OGL LOG] sort_host_mtx_sparsity_pattern : 192 ms
[OGL LOG] sort_host_mtx : 124 ms
[OGL LOG] init_preconditioner : 0 ms
[OGL LOG] solve : 1496 ms
noneompGKOBiCGStab:  Solving for Uy, Initial residual = 0.620181, Final residual = 5.27796e-07, No Iterations 56
[OGL LOG] init_host_sparsity_pattern : 272 ms
[OGL LOG] matrix not stored update host matrix
[OGL LOG] update_host_mtx : 126 ms
[OGL LOG] matrix is not yet sorted, sorting host matrix
[OGL LOG] sort_host_mtx_sparsity_pattern : 198 ms
[OGL LOG] sort_host_mtx : 124 ms
[OGL LOG] init_preconditioner : 0 ms
[OGL LOG] solve : 1378 ms
noneompGKOBiCGStab:  Solving for Uz, Initial residual = 0.646977, Final residual = 9.86081e-07, No Iterations 55
[OGL LOG] init_preconditioner : 0 ms
[OGL LOG] solve : 11576 ms
noneompGKOCG:  Solving for p, Initial residual = 0.798454, Final residual = 9.8022e-07, No Iterations 884
time step continuity errors : sum local = 9.96796e-10, global = 3.5688e-21, cumulative = -4.27021e-21
[OGL LOG] init_preconditioner : 0 ms
[OGL LOG] solve : 10674 ms
noneompGKOCG:  Solving for p, Initial residual = 0.738609, Final residual = 9.63692e-07, No Iterations 872
time step continuity errors : sum local = 1.00108e-09, global = -6.42219e-21, cumulative = -1.06924e-20
ExecutionTime = 421.05 s  ClockTime = 71 s

Time = 0.003

Courant Number mean: 0.0867389 max: 0.944827
[OGL LOG] init_host_sparsity_pattern : 268 ms
[OGL LOG] matrix not stored update host matrix
[OGL LOG] update_host_mtx : 135 ms
[OGL LOG] matrix is not yet sorted, sorting host matrix
[OGL LOG] sort_host_mtx_sparsity_pattern : 198 ms
[OGL LOG] sort_host_mtx : 124 ms
[OGL LOG] init_preconditioner : 0 ms
[OGL LOG] solve : 1192 ms
noneompGKOBiCGStab:  Solving for Ux, Initial residual = 0.102637, Final residual = 9.00414e-07, No Iterations 47
[OGL LOG] init_host_sparsity_pattern : 266 ms
[OGL LOG] matrix not stored update host matrix
[OGL LOG] update_host_mtx : 126 ms
[OGL LOG] matrix is not yet sorted, sorting host matrix
[OGL LOG] sort_host_mtx_sparsity_pattern : 192 ms
[OGL LOG] sort_host_mtx : 124 ms
[OGL LOG] init_preconditioner : 0 ms
[OGL LOG] solve : 1244 ms
noneompGKOBiCGStab:  Solving for Uy, Initial residual = 0.396947, Final residual = 9.10483e-07, No Iterations 49
[OGL LOG] init_host_sparsity_pattern : 266 ms
[OGL LOG] matrix not stored update host matrix
[OGL LOG] update_host_mtx : 126 ms
[OGL LOG] matrix is not yet sorted, sorting host matrix
[OGL LOG] sort_host_mtx_sparsity_pattern : 192 ms
[OGL LOG] sort_host_mtx : 124 ms
[OGL LOG] init_preconditioner : 0 ms
[OGL LOG] solve : 1443 ms
noneompGKOBiCGStab:  Solving for Uz, Initial residual = 1.00089, Final residual = 7.42644e-07, No Iterations 55
[OGL LOG] init_preconditioner : 0 ms
[OGL LOG] solve : 11688 ms
noneompGKOCG:  Solving for p, Initial residual = 0.832648, Final residual = 9.55263e-07, No Iterations 890
time step continuity errors : sum local = 9.20226e-10, global = -1.1682e-20, cumulative = -2.23744e-20
[OGL LOG] init_preconditioner : 0 ms
[OGL LOG] solve : 11678 ms
noneompGKOCG:  Solving for p, Initial residual = 0.802906, Final residual = 9.57525e-07, No Iterations 889
time step continuity errors : sum local = 8.99345e-10, global = 6.16263e-21, cumulative = -1.62117e-20
ExecutionTime = 642.02 s  ClockTime = 101 s

Time = 0.004

Courant Number mean: 0.0995266 max: 0.926351
[OGL LOG] init_host_sparsity_pattern : 267 ms
[OGL LOG] matrix not stored update host matrix
[OGL LOG] update_host_mtx : 133 ms
[OGL LOG] matrix is not yet sorted, sorting host matrix
[OGL LOG] sort_host_mtx_sparsity_pattern : 198 ms
[OGL LOG] sort_host_mtx : 125 ms
[OGL LOG] init_preconditioner : 0 ms
[OGL LOG] solve : 1133 ms
noneompGKOBiCGStab:  Solving for Ux, Initial residual = 0.0541606, Final residual = 9.27284e-07, No Iterations 43
[OGL LOG] init_host_sparsity_pattern : 281 ms
[OGL LOG] matrix not stored update host matrix
[OGL LOG] update_host_mtx : 146 ms
[OGL LOG] matrix is not yet sorted, sorting host matrix
[OGL LOG] sort_host_mtx_sparsity_pattern : 200 ms
[OGL LOG] sort_host_mtx : 125 ms
[OGL LOG] init_preconditioner : 0 ms
[OGL LOG] solve : 1237 ms
noneompGKOBiCGStab:  Solving for Uy, Initial residual = 0.255021, Final residual = 4.44976e-07, No Iterations 49
[OGL LOG] init_host_sparsity_pattern : 266 ms
[OGL LOG] matrix not stored update host matrix
[OGL LOG] update_host_mtx : 127 ms
[OGL LOG] matrix is not yet sorted, sorting host matrix
[OGL LOG] sort_host_mtx_sparsity_pattern : 193 ms
[OGL LOG] sort_host_mtx : 124 ms
[OGL LOG] init_preconditioner : 0 ms
[OGL LOG] solve : 1327 ms
noneompGKOBiCGStab:  Solving for Uz, Initial residual = 0.87305, Final residual = 7.949e-07, No Iterations 53
[OGL LOG] init_preconditioner : 0 ms
[OGL LOG] solve : 11698 ms
noneompGKOCG:  Solving for p, Initial residual = 0.750171, Final residual = 9.65327e-07, No Iterations 889
time step continuity errors : sum local = 8.59011e-10, global = -5.79538e-21, cumulative = -2.20071e-20
[OGL LOG] init_preconditioner : 0 ms
[OGL LOG] solve : 11635 ms
noneompGKOCG:  Solving for p, Initial residual = 0.685317, Final residual = 9.60294e-07, No Iterations 887
time step continuity errors : sum local = 8.70695e-10, global = -1.20525e-20, cumulative = -3.40596e-20
ExecutionTime = 861.17 s  ClockTime = 132 s

Time = 0.005

Courant Number mean: 0.112163 max: 0.946348
[OGL LOG] init_host_sparsity_pattern : 267 ms
[OGL LOG] matrix not stored update host matrix
[OGL LOG] update_host_mtx : 133 ms
[OGL LOG] matrix is not yet sorted, sorting host matrix
[OGL LOG] sort_host_mtx_sparsity_pattern : 198 ms
[OGL LOG] sort_host_mtx : 124 ms
[OGL LOG] init_preconditioner : 0 ms
[OGL LOG] solve : 1193 ms
noneompGKOBiCGStab:  Solving for Ux, Initial residual = 0.0411815, Final residual = 5.02589e-07, No Iterations 45
[OGL LOG] init_host_sparsity_pattern : 283 ms
[OGL LOG] matrix not stored update host matrix
[OGL LOG] update_host_mtx : 146 ms
[OGL LOG] matrix is not yet sorted, sorting host matrix
[OGL LOG] sort_host_mtx_sparsity_pattern : 199 ms
[OGL LOG] sort_host_mtx : 124 ms
[OGL LOG] init_preconditioner : 0 ms
[OGL LOG] solve : 1223 ms
noneompGKOBiCGStab:  Solving for Uy, Initial residual = 0.131859, Final residual = 6.46485e-07, No Iterations 46
[OGL LOG] init_host_sparsity_pattern : 267 ms
[OGL LOG] matrix not stored update host matrix
[OGL LOG] update_host_mtx : 128 ms
[OGL LOG] matrix is not yet sorted, sorting host matrix
[OGL LOG] sort_host_mtx_sparsity_pattern : 194 ms
[OGL LOG] sort_host_mtx : 125 ms
[OGL LOG] init_preconditioner : 0 ms
[OGL LOG] solve : 1310 ms
noneompGKOBiCGStab:  Solving for Uz, Initial residual = 0.871833, Final residual = 6.53604e-07, No Iterations 51
[OGL LOG] init_preconditioner : 0 ms
[OGL LOG] solve : 11791 ms
noneompGKOCG:  Solving for p, Initial residual = 0.760003, Final residual = 9.49293e-07, No Iterations 896
time step continuity errors : sum local = 7.17775e-10, global = 2.57483e-21, cumulative = -3.14848e-20
[OGL LOG] init_preconditioner : 0 ms
[OGL LOG] solve : 11471 ms
noneompGKOCG:  Solving for p, Initial residual = 0.713347, Final residual = 9.78253e-07, No Iterations 894
time step continuity errors : sum local = 7.27867e-10, global = 1.17754e-20, cumulative = -1.97094e-20
ExecutionTime = 1080.06 s  ClockTime = 162 s

End

