/*---------------------------------------------------------------------------*\
  =========                 |
  \\      /  F ield         | OpenFOAM: The Open Source CFD Toolbox
   \\    /   O peration     | Website:  https://openfoam.org
    \\  /    A nd           | Version:  8
     \\/     M anipulation  |
\*---------------------------------------------------------------------------*/
Build  : 8-13d66902f78c
Exec   : icoFoam
Date   : Jul 14 2021
Time   : 00:42:26
Host   : "uc2n525.localdomain"
PID    : 3765709
I/O    : uncollated
Case   : /pfs/data5/home/kit/scc/nq7776/code/OGL_DATA/lidDrivenCavity3D/v0.1-136-g40fef35/f584ccac99/IntelXeonGold6230CPU@2.10GHz/Test_2021-07-13-22:16:26/100/p-BiCGStab-GKO-none-omp/lidDrivenCavity3D
nProcs : 1
sigFpe : Enabling floating point exception trapping (FOAM_SIGFPE).
fileModificationChecking : Monitoring run-time modified files using timeStampMaster (fileModificationSkew 10)
allowSystemOperations : Allowing user-supplied system call operations

// * * * * * * * * * * * * * * * * * * * * * * * * * * * * * * * * * * * * * //
Create time

Create mesh for time = 0

Reading transportProperties

Reading field p

Reading field U

Reading/calculating face flux field phi


Starting time loop

Time = 0.001

Courant Number mean: 0 max: 0
nonePBiCGStab:  Solving for Ux, Initial residual = 1, Final residual = 0.0818707, No Iterations 5
nonePBiCGStab:  Solving for Uy, Initial residual = 0, Final residual = 0, No Iterations 0
nonePBiCGStab:  Solving for Uz, Initial residual = 0, Final residual = 0, No Iterations 0
[OGL LOG] init_host_sparsity_pattern : 294 ms
[OGL LOG] matrix not stored update host matrix
[OGL LOG] update_host_mtx : 148 ms
[OGL LOG] matrix is not yet sorted, compute sorting idxs
[OGL LOG] compute_sort : 8306 ms
[OGL LOG] matrix is not yet sorted, sorting host matrix
[OGL LOG] sort_host_mtx_sparsity_pattern : 194 ms
[OGL LOG] sort_host_mtx : 133 ms
[OGL LOG] init_preconditioner : 0 ms
[OGL LOG] solve : 20901 ms
noneompGKOBiCGStab:  Solving for p, Initial residual = 1, Final residual = 1.82149e-07, No Iterations 720
time step continuity errors : sum local = 2.37944e-09, global = -9.55767e-21, cumulative = -9.55767e-21
[OGL LOG] init_preconditioner : 0 ms
[OGL LOG] solve : 19448 ms
noneompGKOBiCGStab:  Solving for p, Initial residual = 0.707493, Final residual = 3.87685e-07, No Iterations 672
time step continuity errors : sum local = 1.41871e-07, global = 7.09064e-21, cumulative = -2.46703e-21
ExecutionTime = 174.72 s  ClockTime = 55 s

Time = 0.002

Courant Number mean: 0.0422156 max: 0.791725
nonePBiCGStab:  Solving for Ux, Initial residual = 0.137878, Final residual = 0.0400158, No Iterations 5
nonePBiCGStab:  Solving for Uy, Initial residual = 0.451735, Final residual = 0.13029, No Iterations 5
nonePBiCGStab:  Solving for Uz, Initial residual = 0.986382, Final residual = 0.324108, No Iterations 5
[OGL LOG] init_preconditioner : 0 ms
[OGL LOG] solve : 21019 ms
noneompGKOBiCGStab:  Solving for p, Initial residual = 0.789586, Final residual = 6.64485e-07, No Iterations 723
time step continuity errors : sum local = 8.10616e-08, global = 3.89744e-23, cumulative = -2.42806e-21
[OGL LOG] init_preconditioner : 0 ms
[OGL LOG] solve : 20854 ms
noneompGKOBiCGStab:  Solving for p, Initial residual = 0.713415, Final residual = 1.24647e-07, No Iterations 719
time step continuity errors : sum local = 7.73729e-08, global = 2.85146e-22, cumulative = -2.14291e-21
ExecutionTime = 343.1 s  ClockTime = 98 s

Time = 0.003

Courant Number mean: 0.0674641 max: 0.899963
nonePBiCGStab:  Solving for Ux, Initial residual = 0.0610458, Final residual = 0.0152947, No Iterations 5
nonePBiCGStab:  Solving for Uy, Initial residual = 0.20887, Final residual = 0.0595252, No Iterations 5
nonePBiCGStab:  Solving for Uz, Initial residual = 0.710501, Final residual = 0.212917, No Iterations 5
[OGL LOG] init_preconditioner : 0 ms
[OGL LOG] solve : 22372 ms
noneompGKOBiCGStab:  Solving for p, Initial residual = 0.797, Final residual = 9.53426e-07, No Iterations 783
time step continuity errors : sum local = 7.53455e-08, global = 2.48301e-21, cumulative = 3.40099e-22
[OGL LOG] init_preconditioner : 0 ms
[OGL LOG] solve : 22053 ms
noneompGKOBiCGStab:  Solving for p, Initial residual = 0.724917, Final residual = 3.66862e-07, No Iterations 764
time step continuity errors : sum local = 3.46484e-08, global = 2.28771e-21, cumulative = 2.62781e-21
ExecutionTime = 521.68 s  ClockTime = 144 s

Time = 0.004

Courant Number mean: 0.0814701 max: 0.912887
nonePBiCGStab:  Solving for Ux, Initial residual = 0.038776, Final residual = 0.0107244, No Iterations 5
nonePBiCGStab:  Solving for Uy, Initial residual = 0.149006, Final residual = 0.0503312, No Iterations 5
nonePBiCGStab:  Solving for Uz, Initial residual = 0.493383, Final residual = 0.137811, No Iterations 5
[OGL LOG] init_preconditioner : 0 ms
[OGL LOG] solve : 21882 ms
noneompGKOBiCGStab:  Solving for p, Initial residual = 0.71941, Final residual = 9.57223e-07, No Iterations 757
time step continuity errors : sum local = 1.37868e-08, global = -8.67089e-21, cumulative = -6.04308e-21
[OGL LOG] init_preconditioner : 0 ms
[OGL LOG] solve : 20418 ms
noneompGKOBiCGStab:  Solving for p, Initial residual = 0.619806, Final residual = 9.56905e-07, No Iterations 708
time step continuity errors : sum local = 4.3609e-09, global = 6.05599e-21, cumulative = 1.29182e-23
ExecutionTime = 691.77 s  ClockTime = 187 s

Time = 0.005

Courant Number mean: 0.0922728 max: 0.925555
nonePBiCGStab:  Solving for Ux, Initial residual = 0.0298139, Final residual = 0.00896193, No Iterations 5
nonePBiCGStab:  Solving for Uy, Initial residual = 0.0986591, Final residual = 0.0358688, No Iterations 5
nonePBiCGStab:  Solving for Uz, Initial residual = 0.3045, Final residual = 0.0785439, No Iterations 5
[OGL LOG] init_preconditioner : 0 ms
[OGL LOG] solve : 21859 ms
noneompGKOBiCGStab:  Solving for p, Initial residual = 0.757011, Final residual = 8.37937e-07, No Iterations 763
time step continuity errors : sum local = 1.79856e-09, global = 9.97854e-21, cumulative = 9.99146e-21
[OGL LOG] init_preconditioner : 0 ms
[OGL LOG] solve : 22084 ms
noneompGKOBiCGStab:  Solving for p, Initial residual = 0.670732, Final residual = 8.58688e-07, No Iterations 754
time step continuity errors : sum local = 2.03714e-09, global = -9.83653e-21, cumulative = 1.54928e-22
ExecutionTime = 868.56 s  ClockTime = 233 s

End

