/*---------------------------------------------------------------------------*\
  =========                 |
  \\      /  F ield         | OpenFOAM: The Open Source CFD Toolbox
   \\    /   O peration     | Website:  https://openfoam.org
    \\  /    A nd           | Version:  8
     \\/     M anipulation  |
\*---------------------------------------------------------------------------*/
Build  : 8-13d66902f78c
Exec   : icoFoam
Date   : Jul 14 2021
Time   : 02:00:35
Host   : "uc2n538.localdomain"
PID    : 2781190
I/O    : uncollated
Case   : /pfs/data5/home/kit/scc/nq7776/code/OGL_DATA/lidDrivenCavity3D/v0.1-136-g40fef35/f584ccac99/IntelXeonGold6230CPU@2.10GHz/Test_2021-07-14-01:57:38/75/p-U-CG-OF-none-reference/lidDrivenCavity3D
nProcs : 1
sigFpe : Enabling floating point exception trapping (FOAM_SIGFPE).
fileModificationChecking : Monitoring run-time modified files using timeStampMaster (fileModificationSkew 10)
allowSystemOperations : Allowing user-supplied system call operations

// * * * * * * * * * * * * * * * * * * * * * * * * * * * * * * * * * * * * * //
Create time

Create mesh for time = 0

Reading transportProperties

Reading field p

Reading field U

Reading/calculating face flux field phi


Starting time loop

Time = 0.00133333

Courant Number mean: 0 max: 0
nonePBiCGStab:  Solving for Ux, Initial residual = 1, Final residual = 4.80905e-07, No Iterations 51
nonePBiCGStab:  Solving for Uy, Initial residual = 0, Final residual = 0, No Iterations 0
nonePBiCGStab:  Solving for Uz, Initial residual = 0, Final residual = 0, No Iterations 0
nonePCG:  Solving for p, Initial residual = 1, Final residual = 9.34041e-07, No Iterations 671
time step continuity errors : sum local = 8.53142e-10, global = 1.60632e-22, cumulative = 1.60632e-22
nonePCG:  Solving for p, Initial residual = 0.759327, Final residual = 8.90067e-07, No Iterations 667
time step continuity errors : sum local = 1.04074e-09, global = 8.99424e-23, cumulative = 2.50575e-22
ExecutionTime = 9.29 s  ClockTime = 10 s

Time = 0.00266667

Courant Number mean: 0.0631769 max: 0.775391
nonePBiCGStab:  Solving for Ux, Initial residual = 0.1461, Final residual = 8.48273e-07, No Iterations 46
nonePBiCGStab:  Solving for Uy, Initial residual = 0.397313, Final residual = 6.4278e-07, No Iterations 45
nonePBiCGStab:  Solving for Uz, Initial residual = 0.986937, Final residual = 8.16826e-07, No Iterations 51
nonePCG:  Solving for p, Initial residual = 0.749197, Final residual = 9.7495e-07, No Iterations 644
time step continuity errors : sum local = 1.38864e-09, global = 8.86275e-21, cumulative = 9.11333e-21
nonePCG:  Solving for p, Initial residual = 0.683644, Final residual = 9.69908e-07, No Iterations 642
time step continuity errors : sum local = 1.4122e-09, global = -1.44516e-20, cumulative = -5.33826e-21
ExecutionTime = 17.78 s  ClockTime = 18 s

Time = 0.004

Courant Number mean: 0.095146 max: 0.917198
nonePBiCGStab:  Solving for Ux, Initial residual = 0.0611247, Final residual = 6.15012e-07, No Iterations 39
nonePBiCGStab:  Solving for Uy, Initial residual = 0.173982, Final residual = 7.77034e-07, No Iterations 43
nonePBiCGStab:  Solving for Uz, Initial residual = 0.741984, Final residual = 9.93446e-07, No Iterations 51
nonePCG:  Solving for p, Initial residual = 0.753006, Final residual = 9.68953e-07, No Iterations 659
time step continuity errors : sum local = 1.13123e-09, global = -2.63452e-20, cumulative = -3.16834e-20
nonePCG:  Solving for p, Initial residual = 0.714883, Final residual = 9.39677e-07, No Iterations 658
time step continuity errors : sum local = 1.06413e-09, global = 1.04105e-20, cumulative = -2.12729e-20
ExecutionTime = 26.35 s  ClockTime = 27 s

Time = 0.00533333

Courant Number mean: 0.109258 max: 0.913447
nonePBiCGStab:  Solving for Ux, Initial residual = 0.031994, Final residual = 7.7379e-07, No Iterations 38
nonePBiCGStab:  Solving for Uy, Initial residual = 0.12411, Final residual = 9.64063e-07, No Iterations 41
nonePBiCGStab:  Solving for Uz, Initial residual = 0.472235, Final residual = 4.96e-07, No Iterations 45
nonePCG:  Solving for p, Initial residual = 0.606733, Final residual = 9.62442e-07, No Iterations 653
time step continuity errors : sum local = 9.74317e-10, global = 2.03259e-20, cumulative = -9.46949e-22
nonePCG:  Solving for p, Initial residual = 0.541026, Final residual = 9.56678e-07, No Iterations 652
time step continuity errors : sum local = 9.82976e-10, global = -7.32529e-22, cumulative = -1.67948e-21
ExecutionTime = 34.73 s  ClockTime = 35 s

Time = 0.00666667

Courant Number mean: 0.122084 max: 0.928859
nonePBiCGStab:  Solving for Ux, Initial residual = 0.0238216, Final residual = 9.32745e-07, No Iterations 39
nonePBiCGStab:  Solving for Uy, Initial residual = 0.060773, Final residual = 7.97976e-07, No Iterations 41
nonePBiCGStab:  Solving for Uz, Initial residual = 0.303731, Final residual = 9.89918e-07, No Iterations 43
nonePCG:  Solving for p, Initial residual = 0.569034, Final residual = 9.66653e-07, No Iterations 653
time step continuity errors : sum local = 7.69724e-10, global = -3.43788e-20, cumulative = -3.60583e-20
nonePCG:  Solving for p, Initial residual = 0.517167, Final residual = 9.80597e-07, No Iterations 651
time step continuity errors : sum local = 7.70681e-10, global = -9.3589e-21, cumulative = -4.54172e-20
ExecutionTime = 43.1 s  ClockTime = 43 s

End

