/*---------------------------------------------------------------------------*\
  =========                 |
  \\      /  F ield         | OpenFOAM: The Open Source CFD Toolbox
   \\    /   O peration     | Website:  https://openfoam.org
    \\  /    A nd           | Version:  8
     \\/     M anipulation  |
\*---------------------------------------------------------------------------*/
Build  : 8-13d66902f78c
Exec   : icoFoam
Date   : Jul 14 2021
Time   : 00:59:52
Host   : "uc2n553.localdomain"
PID    : 754329
I/O    : uncollated
Case   : /pfs/data5/home/kit/scc/nq7776/code/OGL_DATA/lidDrivenCavity3D/v0.1-136-g40fef35/f584ccac99/IntelXeonGold6230CPU@2.10GHz/Test_2021-07-14-00:17:39/75/p-U-CG-GKO-none-omp/lidDrivenCavity3D
nProcs : 1
sigFpe : Enabling floating point exception trapping (FOAM_SIGFPE).
fileModificationChecking : Monitoring run-time modified files using timeStampMaster (fileModificationSkew 10)
allowSystemOperations : Allowing user-supplied system call operations

// * * * * * * * * * * * * * * * * * * * * * * * * * * * * * * * * * * * * * //
Create time

Create mesh for time = 0

Reading transportProperties

Reading field p

Reading field U

Reading/calculating face flux field phi


Starting time loop

Time = 0.00133333

Courant Number mean: 0 max: 0
[OGL LOG] init_host_sparsity_pattern : 120 ms
[OGL LOG] matrix not stored update host matrix
[OGL LOG] update_host_mtx : 61 ms
[OGL LOG] matrix is not yet sorted, compute sorting idxs
[OGL LOG] compute_sort : 3343 ms
[OGL LOG] matrix is not yet sorted, sorting host matrix
[OGL LOG] sort_host_mtx_sparsity_pattern : 78 ms
[OGL LOG] sort_host_mtx : 52 ms
[OGL LOG] init_preconditioner : 0 ms
[OGL LOG] solve : 522 ms
noneompGKOBiCGStab:  Solving for Ux, Initial residual = 1, Final residual = 8.84363e-07, No Iterations 51
[OGL LOG] init_host_sparsity_pattern : 116 ms
[OGL LOG] matrix not stored update host matrix
[OGL LOG] update_host_mtx : 62 ms
[OGL LOG] matrix is not yet sorted, sorting host matrix
[OGL LOG] sort_host_mtx_sparsity_pattern : 80 ms
[OGL LOG] sort_host_mtx : 43 ms
[OGL LOG] init_preconditioner : 0 ms
[OGL LOG] solve : 12 ms
noneompGKOBiCGStab:  Solving for Uy, Initial residual = 0, Final residual = 0, No Iterations 0
[OGL LOG] init_host_sparsity_pattern : 112 ms
[OGL LOG] matrix not stored update host matrix
[OGL LOG] update_host_mtx : 53 ms
[OGL LOG] matrix is not yet sorted, sorting host matrix
[OGL LOG] sort_host_mtx_sparsity_pattern : 80 ms
[OGL LOG] sort_host_mtx : 43 ms
[OGL LOG] init_preconditioner : 0 ms
[OGL LOG] solve : 10 ms
noneompGKOBiCGStab:  Solving for Uz, Initial residual = 0, Final residual = 0, No Iterations 0
[OGL LOG] init_host_sparsity_pattern : 115 ms
[OGL LOG] matrix not stored update host matrix
[OGL LOG] update_host_mtx : 64 ms
[OGL LOG] matrix is not yet sorted, sorting host matrix
[OGL LOG] sort_host_mtx_sparsity_pattern : 80 ms
[OGL LOG] sort_host_mtx : 43 ms
[OGL LOG] init_preconditioner : 0 ms
[OGL LOG] solve : 3584 ms
noneompGKOCG:  Solving for p, Initial residual = 1, Final residual = 9.33866e-07, No Iterations 671
time step continuity errors : sum local = 8.52975e-10, global = 3.77104e-21, cumulative = 3.77104e-21
[OGL LOG] init_preconditioner : 0 ms
[OGL LOG] solve : 3444 ms
noneompGKOCG:  Solving for p, Initial residual = 0.75933, Final residual = 8.89953e-07, No Iterations 667
time step continuity errors : sum local = 1.0406e-09, global = 6.39112e-21, cumulative = 1.01622e-20
ExecutionTime = 67.31 s  ClockTime = 14 s

Time = 0.00266667

Courant Number mean: 0.0631768 max: 0.775391
[OGL LOG] init_host_sparsity_pattern : 112 ms
[OGL LOG] matrix not stored update host matrix
[OGL LOG] update_host_mtx : 56 ms
[OGL LOG] matrix is not yet sorted, sorting host matrix
[OGL LOG] sort_host_mtx_sparsity_pattern : 80 ms
[OGL LOG] sort_host_mtx : 43 ms
[OGL LOG] init_preconditioner : 0 ms
[OGL LOG] solve : 486 ms
noneompGKOBiCGStab:  Solving for Ux, Initial residual = 0.18303, Final residual = 4.42479e-07, No Iterations 48
[OGL LOG] init_host_sparsity_pattern : 112 ms
[OGL LOG] matrix not stored update host matrix
[OGL LOG] update_host_mtx : 53 ms
[OGL LOG] matrix is not yet sorted, sorting host matrix
[OGL LOG] sort_host_mtx_sparsity_pattern : 73 ms
[OGL LOG] sort_host_mtx : 43 ms
[OGL LOG] init_preconditioner : 0 ms
[OGL LOG] solve : 486 ms
noneompGKOBiCGStab:  Solving for Uy, Initial residual = 0.619628, Final residual = 6.28684e-07, No Iterations 48
[OGL LOG] init_host_sparsity_pattern : 112 ms
[OGL LOG] matrix not stored update host matrix
[OGL LOG] update_host_mtx : 53 ms
[OGL LOG] matrix is not yet sorted, sorting host matrix
[OGL LOG] sort_host_mtx_sparsity_pattern : 73 ms
[OGL LOG] sort_host_mtx : 43 ms
[OGL LOG] init_preconditioner : 0 ms
[OGL LOG] solve : 456 ms
noneompGKOBiCGStab:  Solving for Uz, Initial residual = 0.604725, Final residual = 7.45802e-07, No Iterations 44
[OGL LOG] init_preconditioner : 0 ms
[OGL LOG] solve : 3483 ms
noneompGKOCG:  Solving for p, Initial residual = 0.749121, Final residual = 9.99838e-07, No Iterations 644
time step continuity errors : sum local = 1.89612e-09, global = 1.06704e-20, cumulative = 2.08326e-20
[OGL LOG] init_preconditioner : 0 ms
[OGL LOG] solve : 3370 ms
noneompGKOCG:  Solving for p, Initial residual = 0.683903, Final residual = 9.65143e-07, No Iterations 643
time step continuity errors : sum local = 1.41444e-09, global = 9.29137e-21, cumulative = 3.0124e-20
ExecutionTime = 134.88 s  ClockTime = 24 s

Time = 0.004

Courant Number mean: 0.0951461 max: 0.917122
[OGL LOG] init_host_sparsity_pattern : 111 ms
[OGL LOG] matrix not stored update host matrix
[OGL LOG] update_host_mtx : 57 ms
[OGL LOG] matrix is not yet sorted, sorting host matrix
[OGL LOG] sort_host_mtx_sparsity_pattern : 85 ms
[OGL LOG] sort_host_mtx : 43 ms
[OGL LOG] init_preconditioner : 0 ms
[OGL LOG] solve : 445 ms
noneompGKOBiCGStab:  Solving for Ux, Initial residual = 0.101942, Final residual = 7.60856e-07, No Iterations 43
[OGL LOG] init_host_sparsity_pattern : 112 ms
[OGL LOG] matrix not stored update host matrix
[OGL LOG] update_host_mtx : 53 ms
[OGL LOG] matrix is not yet sorted, sorting host matrix
[OGL LOG] sort_host_mtx_sparsity_pattern : 72 ms
[OGL LOG] sort_host_mtx : 43 ms
[OGL LOG] init_preconditioner : 0 ms
[OGL LOG] solve : 474 ms
noneompGKOBiCGStab:  Solving for Uy, Initial residual = 0.335432, Final residual = 7.96991e-07, No Iterations 46
[OGL LOG] init_host_sparsity_pattern : 112 ms
[OGL LOG] matrix not stored update host matrix
[OGL LOG] update_host_mtx : 53 ms
[OGL LOG] matrix is not yet sorted, sorting host matrix
[OGL LOG] sort_host_mtx_sparsity_pattern : 73 ms
[OGL LOG] sort_host_mtx : 43 ms
[OGL LOG] init_preconditioner : 0 ms
[OGL LOG] solve : 513 ms
noneompGKOBiCGStab:  Solving for Uz, Initial residual = 0.92071, Final residual = 6.767e-07, No Iterations 49
[OGL LOG] init_preconditioner : 0 ms
[OGL LOG] solve : 3537 ms
noneompGKOCG:  Solving for p, Initial residual = 0.754749, Final residual = 9.7379e-07, No Iterations 663
time step continuity errors : sum local = 1.45284e-09, global = 9.72939e-21, cumulative = 3.98533e-20
[OGL LOG] init_preconditioner : 0 ms
[OGL LOG] solve : 3554 ms
noneompGKOCG:  Solving for p, Initial residual = 0.717013, Final residual = 9.89337e-07, No Iterations 661
time step continuity errors : sum local = 1.14765e-09, global = 7.26253e-21, cumulative = 4.71159e-20
ExecutionTime = 204.42 s  ClockTime = 34 s

Time = 0.00533333

Courant Number mean: 0.109256 max: 0.91346
[OGL LOG] init_host_sparsity_pattern : 111 ms
[OGL LOG] matrix not stored update host matrix
[OGL LOG] update_host_mtx : 56 ms
[OGL LOG] matrix is not yet sorted, sorting host matrix
[OGL LOG] sort_host_mtx_sparsity_pattern : 79 ms
[OGL LOG] sort_host_mtx : 43 ms
[OGL LOG] init_preconditioner : 0 ms
[OGL LOG] solve : 403 ms
noneompGKOBiCGStab:  Solving for Ux, Initial residual = 0.0446956, Final residual = 7.0111e-07, No Iterations 38
[OGL LOG] init_host_sparsity_pattern : 112 ms
[OGL LOG] matrix not stored update host matrix
[OGL LOG] update_host_mtx : 53 ms
[OGL LOG] matrix is not yet sorted, sorting host matrix
[OGL LOG] sort_host_mtx_sparsity_pattern : 72 ms
[OGL LOG] sort_host_mtx : 43 ms
[OGL LOG] init_preconditioner : 0 ms
[OGL LOG] solve : 432 ms
noneompGKOBiCGStab:  Solving for Uy, Initial residual = 0.197564, Final residual = 8.5316e-07, No Iterations 41
[OGL LOG] init_host_sparsity_pattern : 112 ms
[OGL LOG] matrix not stored update host matrix
[OGL LOG] update_host_mtx : 53 ms
[OGL LOG] matrix is not yet sorted, sorting host matrix
[OGL LOG] sort_host_mtx_sparsity_pattern : 73 ms
[OGL LOG] sort_host_mtx : 43 ms
[OGL LOG] init_preconditioner : 0 ms
[OGL LOG] solve : 456 ms
noneompGKOBiCGStab:  Solving for Uz, Initial residual = 0.73245, Final residual = 8.277e-07, No Iterations 43
[OGL LOG] init_preconditioner : 0 ms
[OGL LOG] solve : 3527 ms
noneompGKOCG:  Solving for p, Initial residual = 0.617351, Final residual = 9.82775e-07, No Iterations 661
time step continuity errors : sum local = 1.1698e-09, global = -1.7552e-20, cumulative = 2.95639e-20
[OGL LOG] init_preconditioner : 0 ms
[OGL LOG] solve : 3600 ms
noneompGKOCG:  Solving for p, Initial residual = 0.554745, Final residual = 9.82499e-07, No Iterations 659
time step continuity errors : sum local = 1.0541e-09, global = 6.36729e-21, cumulative = 3.59312e-20
ExecutionTime = 273.04 s  ClockTime = 43 s

Time = 0.00666667

Courant Number mean: 0.122085 max: 0.929107
[OGL LOG] init_host_sparsity_pattern : 116 ms
[OGL LOG] matrix not stored update host matrix
[OGL LOG] update_host_mtx : 61 ms
[OGL LOG] matrix is not yet sorted, sorting host matrix
[OGL LOG] sort_host_mtx_sparsity_pattern : 81 ms
[OGL LOG] sort_host_mtx : 43 ms
[OGL LOG] init_preconditioner : 0 ms
[OGL LOG] solve : 392 ms
noneompGKOBiCGStab:  Solving for Ux, Initial residual = 0.0319066, Final residual = 9.46387e-07, No Iterations 39
[OGL LOG] init_host_sparsity_pattern : 112 ms
[OGL LOG] matrix not stored update host matrix
[OGL LOG] update_host_mtx : 54 ms
[OGL LOG] matrix is not yet sorted, sorting host matrix
[OGL LOG] sort_host_mtx_sparsity_pattern : 73 ms
[OGL LOG] sort_host_mtx : 43 ms
[OGL LOG] init_preconditioner : 0 ms
[OGL LOG] solve : 415 ms
noneompGKOBiCGStab:  Solving for Uy, Initial residual = 0.0804624, Final residual = 8.67404e-07, No Iterations 39
[OGL LOG] init_host_sparsity_pattern : 112 ms
[OGL LOG] matrix not stored update host matrix
[OGL LOG] update_host_mtx : 53 ms
[OGL LOG] matrix is not yet sorted, sorting host matrix
[OGL LOG] sort_host_mtx_sparsity_pattern : 73 ms
[OGL LOG] sort_host_mtx : 43 ms
[OGL LOG] init_preconditioner : 0 ms
[OGL LOG] solve : 477 ms
noneompGKOBiCGStab:  Solving for Uz, Initial residual = 0.513442, Final residual = 9.76753e-07, No Iterations 44
[OGL LOG] init_preconditioner : 0 ms
[OGL LOG] solve : 3505 ms
noneompGKOCG:  Solving for p, Initial residual = 0.591987, Final residual = 9.66899e-07, No Iterations 666
time step continuity errors : sum local = 9.08627e-10, global = -1.68607e-21, cumulative = 3.42451e-20
[OGL LOG] init_preconditioner : 0 ms
[OGL LOG] solve : 3608 ms
noneompGKOCG:  Solving for p, Initial residual = 0.54311, Final residual = 9.03171e-07, No Iterations 666
time step continuity errors : sum local = 7.70315e-10, global = 1.00233e-20, cumulative = 4.42684e-20
ExecutionTime = 341.68 s  ClockTime = 53 s

End

