/*---------------------------------------------------------------------------*\
  =========                 |
  \\      /  F ield         | OpenFOAM: The Open Source CFD Toolbox
   \\    /   O peration     | Website:  https://openfoam.org
    \\  /    A nd           | Version:  8
     \\/     M anipulation  |
\*---------------------------------------------------------------------------*/
Build  : 8-13d66902f78c
Exec   : icoFoam
Date   : Jul 14 2021
Time   : 00:46:06
Host   : "uc2n394.localdomain"
PID    : 3276861
I/O    : uncollated
Case   : /pfs/data5/home/kit/scc/nq7776/code/OGL_DATA/lidDrivenCavity3D/v0.1-136-g40fef35/f584ccac99/IntelXeonGold6230CPU@2.10GHz/Test_2021-07-14-00:31:10/50/p-BiCGStab-GKO-BJ-omp/lidDrivenCavity3D
nProcs : 1
sigFpe : Enabling floating point exception trapping (FOAM_SIGFPE).
fileModificationChecking : Monitoring run-time modified files using timeStampMaster (fileModificationSkew 10)
allowSystemOperations : Allowing user-supplied system call operations

// * * * * * * * * * * * * * * * * * * * * * * * * * * * * * * * * * * * * * //
Create time

Create mesh for time = 0

Reading transportProperties

Reading field p

Reading field U

Reading/calculating face flux field phi


Starting time loop

Time = 0.002

Courant Number mean: 0 max: 0
nonePBiCGStab:  Solving for Ux, Initial residual = 1, Final residual = 0.0592055, No Iterations 5
nonePBiCGStab:  Solving for Uy, Initial residual = 0, Final residual = 0, No Iterations 0
nonePBiCGStab:  Solving for Uz, Initial residual = 0, Final residual = 0, No Iterations 0
[OGL LOG] init_host_sparsity_pattern : 35 ms
[OGL LOG] matrix not stored update host matrix
[OGL LOG] update_host_mtx : 18 ms
[OGL LOG] matrix is not yet sorted, compute sorting idxs
[OGL LOG] compute_sort : 908 ms
[OGL LOG] matrix is not yet sorted, sorting host matrix
[OGL LOG] sort_host_mtx_sparsity_pattern : 23 ms
[OGL LOG] sort_host_mtx : 14 ms
[OGL LOG] init_preconditioner : 18 ms
[OGL LOG] solve : 3898 ms
BJompGKOBiCGStab:  Solving for p, Initial residual = 1, Final residual = 4.48358e-07, No Iterations 330
time step continuity errors : sum local = 1.65367e-08, global = 4.03106e-21, cumulative = 4.03106e-21
[OGL LOG] init_preconditioner : 0 ms
[OGL LOG] solve : 3720 ms
BJompGKOBiCGStab:  Solving for p, Initial residual = 0.67672, Final residual = 6.35782e-07, No Iterations 317
time step continuity errors : sum local = 1.98231e-08, global = 1.75937e-21, cumulative = 5.79043e-21
ExecutionTime = 16.92 s  ClockTime = 10 s

Time = 0.004

Courant Number mean: 0.0636233 max: 0.723792
nonePBiCGStab:  Solving for Ux, Initial residual = 0.144133, Final residual = 0.0219193, No Iterations 5
nonePBiCGStab:  Solving for Uy, Initial residual = 0.363931, Final residual = 0.0522852, No Iterations 5
nonePBiCGStab:  Solving for Uz, Initial residual = 0.973535, Final residual = 0.158908, No Iterations 5
[OGL LOG] init_preconditioner : 0 ms
[OGL LOG] solve : 3670 ms
BJompGKOBiCGStab:  Solving for p, Initial residual = 0.668519, Final residual = 9.96062e-07, No Iterations 312
time step continuity errors : sum local = 7.37143e-09, global = -5.77392e-21, cumulative = 1.65081e-23
[OGL LOG] init_preconditioner : 0 ms
[OGL LOG] solve : 3884 ms
BJompGKOBiCGStab:  Solving for p, Initial residual = 0.584676, Final residual = 6.53061e-07, No Iterations 331
time step continuity errors : sum local = 5.82692e-09, global = 3.55597e-22, cumulative = 3.72105e-22
ExecutionTime = 32.15 s  ClockTime = 17 s

Time = 0.006

Courant Number mean: 0.0972276 max: 0.862514
nonePBiCGStab:  Solving for Ux, Initial residual = 0.0524167, Final residual = 0.00685531, No Iterations 5
nonePBiCGStab:  Solving for Uy, Initial residual = 0.127052, Final residual = 0.0201191, No Iterations 5
nonePBiCGStab:  Solving for Uz, Initial residual = 0.366747, Final residual = 0.0531355, No Iterations 5
[OGL LOG] init_preconditioner : 0 ms
[OGL LOG] solve : 3894 ms
BJompGKOBiCGStab:  Solving for p, Initial residual = 0.59454, Final residual = 9.96463e-07, No Iterations 333
time step continuity errors : sum local = 2.49857e-09, global = 3.19153e-20, cumulative = 3.22874e-20
[OGL LOG] init_preconditioner : 0 ms
[OGL LOG] solve : 4207 ms
BJompGKOBiCGStab:  Solving for p, Initial residual = 0.528695, Final residual = 6.40068e-07, No Iterations 358
time step continuity errors : sum local = 5.4316e-08, global = 2.16437e-20, cumulative = 5.39311e-20
ExecutionTime = 48.47 s  ClockTime = 26 s

Time = 0.008

Courant Number mean: 0.113794 max: 0.88248
nonePBiCGStab:  Solving for Ux, Initial residual = 0.0289602, Final residual = 0.00344528, No Iterations 5
nonePBiCGStab:  Solving for Uy, Initial residual = 0.0844194, Final residual = 0.0109201, No Iterations 5
nonePBiCGStab:  Solving for Uz, Initial residual = 0.229188, Final residual = 0.0298314, No Iterations 5
[OGL LOG] init_preconditioner : 0 ms
[OGL LOG] solve : 4059 ms
BJompGKOBiCGStab:  Solving for p, Initial residual = 0.411423, Final residual = 7.97503e-07, No Iterations 347
time step continuity errors : sum local = 1.21566e-09, global = -8.45241e-21, cumulative = 4.54787e-20
[OGL LOG] init_preconditioner : 0 ms
[OGL LOG] solve : 3744 ms
BJompGKOBiCGStab:  Solving for p, Initial residual = 0.342695, Final residual = 9.93143e-07, No Iterations 320
time step continuity errors : sum local = 1.63925e-09, global = 3.33018e-20, cumulative = 7.87805e-20
ExecutionTime = 64.19 s  ClockTime = 34 s

Time = 0.01

Courant Number mean: 0.127339 max: 0.898877
nonePBiCGStab:  Solving for Ux, Initial residual = 0.0202774, Final residual = 0.00208491, No Iterations 5
nonePBiCGStab:  Solving for Uy, Initial residual = 0.050558, Final residual = 0.00623668, No Iterations 5
nonePBiCGStab:  Solving for Uz, Initial residual = 0.112909, Final residual = 0.0180769, No Iterations 5
[OGL LOG] init_preconditioner : 0 ms
[OGL LOG] solve : 3490 ms
BJompGKOBiCGStab:  Solving for p, Initial residual = 0.354047, Final residual = 9.97588e-07, No Iterations 298
time step continuity errors : sum local = 3.35598e-09, global = -1.96772e-20, cumulative = 5.91033e-20
[OGL LOG] init_preconditioner : 0 ms
[OGL LOG] solve : 4205 ms
BJompGKOBiCGStab:  Solving for p, Initial residual = 0.302216, Final residual = 7.42666e-07, No Iterations 358
time step continuity errors : sum local = 1.63216e-09, global = 2.90577e-21, cumulative = 6.2009e-20
ExecutionTime = 79.68 s  ClockTime = 41 s

End

