/*---------------------------------------------------------------------------*\
  =========                 |
  \\      /  F ield         | OpenFOAM: The Open Source CFD Toolbox
   \\    /   O peration     | Website:  https://openfoam.org
    \\  /    A nd           | Version:  8
     \\/     M anipulation  |
\*---------------------------------------------------------------------------*/
Build  : 8-13d66902f78c
Exec   : icoFoam
Date   : Jul 14 2021
Time   : 02:07:03
Host   : "uc2n398.localdomain"
PID    : 544384
I/O    : uncollated
Case   : /pfs/data5/home/kit/scc/nq7776/code/OGL_DATA/lidDrivenCavity3D/v0.1-136-g40fef35/f584ccac99/IntelXeonGold6230CPU@2.10GHz/Test_2021-07-14-01:40:40/50/p-U-BiCGStab-GKO-BJ-omp/lidDrivenCavity3D
nProcs : 1
sigFpe : Enabling floating point exception trapping (FOAM_SIGFPE).
fileModificationChecking : Monitoring run-time modified files using timeStampMaster (fileModificationSkew 10)
allowSystemOperations : Allowing user-supplied system call operations

// * * * * * * * * * * * * * * * * * * * * * * * * * * * * * * * * * * * * * //
Create time

Create mesh for time = 0

Reading transportProperties

Reading field p

Reading field U

Reading/calculating face flux field phi


Starting time loop

Time = 0.002

Courant Number mean: 0 max: 0
[OGL LOG] init_host_sparsity_pattern : 35 ms
[OGL LOG] matrix not stored update host matrix
[OGL LOG] update_host_mtx : 18 ms
[OGL LOG] matrix is not yet sorted, compute sorting idxs
[OGL LOG] compute_sort : 906 ms
[OGL LOG] matrix is not yet sorted, sorting host matrix
[OGL LOG] sort_host_mtx_sparsity_pattern : 23 ms
[OGL LOG] sort_host_mtx : 15 ms
[OGL LOG] init_preconditioner : 4 ms
[OGL LOG] solve : 194 ms
BJompGKOBiCGStab:  Solving for Ux, Initial residual = 1, Final residual = 3.61163e-07, No Iterations 40
[OGL LOG] init_host_sparsity_pattern : 37 ms
[OGL LOG] matrix not stored update host matrix
[OGL LOG] update_host_mtx : 18 ms
[OGL LOG] matrix is not yet sorted, sorting host matrix
[OGL LOG] sort_host_mtx_sparsity_pattern : 23 ms
[OGL LOG] sort_host_mtx : 12 ms
[OGL LOG] init_preconditioner : 3 ms
[OGL LOG] solve : 5 ms
BJompGKOBiCGStab:  Solving for Uy, Initial residual = 0, Final residual = 0, No Iterations 0
[OGL LOG] init_host_sparsity_pattern : 36 ms
[OGL LOG] matrix not stored update host matrix
[OGL LOG] update_host_mtx : 15 ms
[OGL LOG] matrix is not yet sorted, sorting host matrix
[OGL LOG] sort_host_mtx_sparsity_pattern : 23 ms
[OGL LOG] sort_host_mtx : 12 ms
[OGL LOG] init_preconditioner : 3 ms
[OGL LOG] solve : 4 ms
BJompGKOBiCGStab:  Solving for Uz, Initial residual = 0, Final residual = 0, No Iterations 0
[OGL LOG] init_host_sparsity_pattern : 33 ms
[OGL LOG] matrix not stored update host matrix
[OGL LOG] update_host_mtx : 18 ms
[OGL LOG] matrix is not yet sorted, sorting host matrix
[OGL LOG] sort_host_mtx_sparsity_pattern : 22 ms
[OGL LOG] sort_host_mtx : 14 ms
[OGL LOG] init_preconditioner : 3 ms
[OGL LOG] solve : 1315 ms
BJompGKOBiCGStab:  Solving for p, Initial residual = 1, Final residual = 8.1634e-07, No Iterations 313
time step continuity errors : sum local = 1.34887e-07, global = 1.41946e-20, cumulative = 1.41946e-20
[OGL LOG] init_preconditioner : 0 ms
[OGL LOG] solve : 1255 ms
BJompGKOBiCGStab:  Solving for p, Initial residual = 0.721587, Final residual = 5.48686e-07, No Iterations 314
time step continuity errors : sum local = 5.58978e-07, global = 1.87656e-21, cumulative = 1.60712e-20
ExecutionTime = 92.47 s  ClockTime = 4 s

Time = 0.004

Courant Number mean: 0.0720724 max: 0.726639
[OGL LOG] init_host_sparsity_pattern : 33 ms
[OGL LOG] matrix not stored update host matrix
[OGL LOG] update_host_mtx : 15 ms
[OGL LOG] matrix is not yet sorted, sorting host matrix
[OGL LOG] sort_host_mtx_sparsity_pattern : 25 ms
[OGL LOG] sort_host_mtx : 13 ms
[OGL LOG] init_preconditioner : 0 ms
[OGL LOG] solve : 168 ms
BJompGKOBiCGStab:  Solving for Ux, Initial residual = 0.203458, Final residual = 9.44682e-07, No Iterations 39
[OGL LOG] init_host_sparsity_pattern : 33 ms
[OGL LOG] matrix not stored update host matrix
[OGL LOG] update_host_mtx : 15 ms
[OGL LOG] matrix is not yet sorted, sorting host matrix
[OGL LOG] sort_host_mtx_sparsity_pattern : 22 ms
[OGL LOG] sort_host_mtx : 12 ms
[OGL LOG] init_preconditioner : 0 ms
[OGL LOG] solve : 174 ms
BJompGKOBiCGStab:  Solving for Uy, Initial residual = 0.618434, Final residual = 7.66406e-07, No Iterations 40
[OGL LOG] init_host_sparsity_pattern : 33 ms
[OGL LOG] matrix not stored update host matrix
[OGL LOG] update_host_mtx : 15 ms
[OGL LOG] matrix is not yet sorted, sorting host matrix
[OGL LOG] sort_host_mtx_sparsity_pattern : 22 ms
[OGL LOG] sort_host_mtx : 12 ms
[OGL LOG] init_preconditioner : 0 ms
[OGL LOG] solve : 178 ms
BJompGKOBiCGStab:  Solving for Uz, Initial residual = 0.535926, Final residual = 8.88526e-07, No Iterations 41
[OGL LOG] init_preconditioner : 0 ms
[OGL LOG] solve : 1136 ms
BJompGKOBiCGStab:  Solving for p, Initial residual = 0.673306, Final residual = 8.19163e-07, No Iterations 315
time step continuity errors : sum local = 2.47732e-08, global = 1.73524e-20, cumulative = 3.34236e-20
[OGL LOG] init_preconditioner : 0 ms
[OGL LOG] solve : 1100 ms
BJompGKOBiCGStab:  Solving for p, Initial residual = 0.598897, Final residual = 8.59573e-07, No Iterations 318
time step continuity errors : sum local = 3.45973e-08, global = 5.60218e-21, cumulative = 3.90258e-20
ExecutionTime = 181.85 s  ClockTime = 8 s

Time = 0.006

Courant Number mean: 0.107408 max: 0.881754
[OGL LOG] init_host_sparsity_pattern : 33 ms
[OGL LOG] matrix not stored update host matrix
[OGL LOG] update_host_mtx : 17 ms
[OGL LOG] matrix is not yet sorted, sorting host matrix
[OGL LOG] sort_host_mtx_sparsity_pattern : 24 ms
[OGL LOG] sort_host_mtx : 13 ms
[OGL LOG] init_preconditioner : 0 ms
[OGL LOG] solve : 123 ms
BJompGKOBiCGStab:  Solving for Ux, Initial residual = 0.0995524, Final residual = 9.86047e-07, No Iterations 34
[OGL LOG] init_host_sparsity_pattern : 33 ms
[OGL LOG] matrix not stored update host matrix
[OGL LOG] update_host_mtx : 15 ms
[OGL LOG] matrix is not yet sorted, sorting host matrix
[OGL LOG] sort_host_mtx_sparsity_pattern : 22 ms
[OGL LOG] sort_host_mtx : 12 ms
[OGL LOG] init_preconditioner : 0 ms
[OGL LOG] solve : 151 ms
BJompGKOBiCGStab:  Solving for Uy, Initial residual = 0.250033, Final residual = 9.17006e-07, No Iterations 37
[OGL LOG] init_host_sparsity_pattern : 34 ms
[OGL LOG] matrix not stored update host matrix
[OGL LOG] update_host_mtx : 15 ms
[OGL LOG] matrix is not yet sorted, sorting host matrix
[OGL LOG] sort_host_mtx_sparsity_pattern : 22 ms
[OGL LOG] sort_host_mtx : 12 ms
[OGL LOG] init_preconditioner : 0 ms
[OGL LOG] solve : 137 ms
BJompGKOBiCGStab:  Solving for Uz, Initial residual = 0.541645, Final residual = 7.91154e-07, No Iterations 38
[OGL LOG] init_preconditioner : 0 ms
[OGL LOG] solve : 1204 ms
BJompGKOBiCGStab:  Solving for p, Initial residual = 0.606896, Final residual = 1.88067e-07, No Iterations 357
time step continuity errors : sum local = 3.89876e-08, global = -1.92803e-20, cumulative = 1.97455e-20
[OGL LOG] init_preconditioner : 0 ms
[OGL LOG] solve : 1075 ms
BJompGKOBiCGStab:  Solving for p, Initial residual = 0.560895, Final residual = 9.13926e-07, No Iterations 323
time step continuity errors : sum local = 2.26679e-09, global = -6.70563e-21, cumulative = 1.30399e-20
ExecutionTime = 269.16 s  ClockTime = 11 s

Time = 0.008

Courant Number mean: 0.123244 max: 0.890103
[OGL LOG] init_host_sparsity_pattern : 33 ms
[OGL LOG] matrix not stored update host matrix
[OGL LOG] update_host_mtx : 15 ms
[OGL LOG] matrix is not yet sorted, sorting host matrix
[OGL LOG] sort_host_mtx_sparsity_pattern : 22 ms
[OGL LOG] sort_host_mtx : 12 ms
[OGL LOG] init_preconditioner : 0 ms
[OGL LOG] solve : 104 ms
BJompGKOBiCGStab:  Solving for Ux, Initial residual = 0.0341366, Final residual = 9.00837e-07, No Iterations 30
[OGL LOG] init_host_sparsity_pattern : 33 ms
[OGL LOG] matrix not stored update host matrix
[OGL LOG] update_host_mtx : 15 ms
[OGL LOG] matrix is not yet sorted, sorting host matrix
[OGL LOG] sort_host_mtx_sparsity_pattern : 22 ms
[OGL LOG] sort_host_mtx : 12 ms
[OGL LOG] init_preconditioner : 0 ms
[OGL LOG] solve : 124 ms
BJompGKOBiCGStab:  Solving for Uy, Initial residual = 0.132384, Final residual = 8.11663e-07, No Iterations 36
[OGL LOG] init_host_sparsity_pattern : 33 ms
[OGL LOG] matrix not stored update host matrix
[OGL LOG] update_host_mtx : 15 ms
[OGL LOG] matrix is not yet sorted, sorting host matrix
[OGL LOG] sort_host_mtx_sparsity_pattern : 22 ms
[OGL LOG] sort_host_mtx : 12 ms
[OGL LOG] init_preconditioner : 0 ms
[OGL LOG] solve : 134 ms
BJompGKOBiCGStab:  Solving for Uz, Initial residual = 0.47222, Final residual = 9.0002e-07, No Iterations 39
[OGL LOG] init_preconditioner : 0 ms
[OGL LOG] solve : 1056 ms
BJompGKOBiCGStab:  Solving for p, Initial residual = 0.423018, Final residual = 9.78711e-07, No Iterations 311
time step continuity errors : sum local = 1.06369e-08, global = -1.86277e-20, cumulative = -5.58786e-21
[OGL LOG] init_preconditioner : 0 ms
[OGL LOG] solve : 1123 ms
BJompGKOBiCGStab:  Solving for p, Initial residual = 0.36835, Final residual = 8.02124e-07, No Iterations 336
time step continuity errors : sum local = 2.23923e-09, global = -3.13152e-20, cumulative = -3.6903e-20
ExecutionTime = 351.74 s  ClockTime = 14 s

Time = 0.01

Courant Number mean: 0.136096 max: 0.906943
[OGL LOG] init_host_sparsity_pattern : 33 ms
[OGL LOG] matrix not stored update host matrix
[OGL LOG] update_host_mtx : 18 ms
[OGL LOG] matrix is not yet sorted, sorting host matrix
[OGL LOG] sort_host_mtx_sparsity_pattern : 25 ms
[OGL LOG] sort_host_mtx : 13 ms
[OGL LOG] init_preconditioner : 0 ms
[OGL LOG] solve : 128 ms
BJompGKOBiCGStab:  Solving for Ux, Initial residual = 0.023075, Final residual = 8.38949e-07, No Iterations 29
[OGL LOG] init_host_sparsity_pattern : 33 ms
[OGL LOG] matrix not stored update host matrix
[OGL LOG] update_host_mtx : 15 ms
[OGL LOG] matrix is not yet sorted, sorting host matrix
[OGL LOG] sort_host_mtx_sparsity_pattern : 22 ms
[OGL LOG] sort_host_mtx : 12 ms
[OGL LOG] init_preconditioner : 0 ms
[OGL LOG] solve : 136 ms
BJompGKOBiCGStab:  Solving for Uy, Initial residual = 0.0484018, Final residual = 9.84313e-07, No Iterations 31
[OGL LOG] init_host_sparsity_pattern : 33 ms
[OGL LOG] matrix not stored update host matrix
[OGL LOG] update_host_mtx : 15 ms
[OGL LOG] matrix is not yet sorted, sorting host matrix
[OGL LOG] sort_host_mtx_sparsity_pattern : 22 ms
[OGL LOG] sort_host_mtx : 12 ms
[OGL LOG] init_preconditioner : 0 ms
[OGL LOG] solve : 149 ms
BJompGKOBiCGStab:  Solving for Uz, Initial residual = 0.159312, Final residual = 9.12139e-07, No Iterations 34
[OGL LOG] init_preconditioner : 0 ms
[OGL LOG] solve : 1131 ms
BJompGKOBiCGStab:  Solving for p, Initial residual = 0.361679, Final residual = 6.92612e-07, No Iterations 313
time step continuity errors : sum local = 2.44921e-09, global = -1.02782e-20, cumulative = -4.71812e-20
[OGL LOG] init_preconditioner : 0 ms
[OGL LOG] solve : 968 ms
BJompGKOBiCGStab:  Solving for p, Initial residual = 0.33318, Final residual = 4.35598e-07, No Iterations 284
time step continuity errors : sum local = 5.93699e-10, global = -2.22962e-20, cumulative = -6.94775e-20
ExecutionTime = 433.39 s  ClockTime = 16 s

End

