/*---------------------------------------------------------------------------*\
  =========                 |
  \\      /  F ield         | OpenFOAM: The Open Source CFD Toolbox
   \\    /   O peration     | Website:  https://openfoam.org
    \\  /    A nd           | Version:  8
     \\/     M anipulation  |
\*---------------------------------------------------------------------------*/
Build  : 8-13d66902f78c
Exec   : icoFoam
Date   : Jul 14 2021
Time   : 01:55:03
Host   : "uc2n480.localdomain"
PID    : 600279
I/O    : uncollated
Case   : /pfs/data5/home/kit/scc/nq7776/code/OGL_DATA/lidDrivenCavity3D/v0.1-136-g40fef35/f584ccac99/IntelXeonGold6230CPU@2.10GHz/Test_2021-07-14-01:53:11/50/p-BiCGStab-OF-DIC-reference/lidDrivenCavity3D
nProcs : 1
sigFpe : Enabling floating point exception trapping (FOAM_SIGFPE).
fileModificationChecking : Monitoring run-time modified files using timeStampMaster (fileModificationSkew 10)
allowSystemOperations : Allowing user-supplied system call operations

// * * * * * * * * * * * * * * * * * * * * * * * * * * * * * * * * * * * * * //
Create time

Create mesh for time = 0

Reading transportProperties

Reading field p

Reading field U

Reading/calculating face flux field phi


Starting time loop

Time = 0.002

Courant Number mean: 0 max: 0
nonePBiCGStab:  Solving for Ux, Initial residual = 1, Final residual = 0.0592055, No Iterations 5
nonePBiCGStab:  Solving for Uy, Initial residual = 0, Final residual = 0, No Iterations 0
nonePBiCGStab:  Solving for Uz, Initial residual = 0, Final residual = 0, No Iterations 0
DICPBiCGStab:  Solving for p, Initial residual = 1, Final residual = 8.02619e-07, No Iterations 100
time step continuity errors : sum local = 1.49284e-09, global = -5.14817e-22, cumulative = -5.14817e-22
DICPBiCGStab:  Solving for p, Initial residual = 0.676729, Final residual = 8.65718e-07, No Iterations 95
time step continuity errors : sum local = 2.49685e-09, global = -5.08783e-21, cumulative = -5.60265e-21
ExecutionTime = 1.55 s  ClockTime = 2 s

Time = 0.004

Courant Number mean: 0.0636233 max: 0.723792
nonePBiCGStab:  Solving for Ux, Initial residual = 0.144136, Final residual = 0.0219205, No Iterations 5
nonePBiCGStab:  Solving for Uy, Initial residual = 0.363931, Final residual = 0.0522818, No Iterations 5
nonePBiCGStab:  Solving for Uz, Initial residual = 0.973656, Final residual = 0.158938, No Iterations 5
DICPBiCGStab:  Solving for p, Initial residual = 0.66851, Final residual = 5.23318e-07, No Iterations 101
time step continuity errors : sum local = 2.39554e-09, global = 1.0923e-20, cumulative = 5.32034e-21
DICPBiCGStab:  Solving for p, Initial residual = 0.584658, Final residual = 5.04192e-07, No Iterations 102
time step continuity errors : sum local = 2.36706e-09, global = -1.64937e-20, cumulative = -1.11734e-20
ExecutionTime = 2.69 s  ClockTime = 3 s

Time = 0.006

Courant Number mean: 0.0972275 max: 0.862515
nonePBiCGStab:  Solving for Ux, Initial residual = 0.0524206, Final residual = 0.00685581, No Iterations 5
nonePBiCGStab:  Solving for Uy, Initial residual = 0.12704, Final residual = 0.0201166, No Iterations 5
nonePBiCGStab:  Solving for Uz, Initial residual = 0.366954, Final residual = 0.0531266, No Iterations 5
DICPBiCGStab:  Solving for p, Initial residual = 0.594542, Final residual = 9.44536e-07, No Iterations 103
time step continuity errors : sum local = 2.94133e-09, global = -3.21799e-20, cumulative = -4.33532e-20
DICPBiCGStab:  Solving for p, Initial residual = 0.528698, Final residual = 9.25082e-07, No Iterations 101
time step continuity errors : sum local = 1.5364e-09, global = -2.58466e-20, cumulative = -6.91998e-20
ExecutionTime = 3.84 s  ClockTime = 4 s

Time = 0.008

Courant Number mean: 0.113794 max: 0.88248
nonePBiCGStab:  Solving for Ux, Initial residual = 0.0289571, Final residual = 0.00344443, No Iterations 5
nonePBiCGStab:  Solving for Uy, Initial residual = 0.0844265, Final residual = 0.0109194, No Iterations 5
nonePBiCGStab:  Solving for Uz, Initial residual = 0.229372, Final residual = 0.0297888, No Iterations 5
DICPBiCGStab:  Solving for p, Initial residual = 0.411434, Final residual = 4.86074e-07, No Iterations 101
time step continuity errors : sum local = 8.81352e-10, global = 2.10285e-21, cumulative = -6.7097e-20
DICPBiCGStab:  Solving for p, Initial residual = 0.342681, Final residual = 6.33146e-07, No Iterations 104
time step continuity errors : sum local = 1.30456e-09, global = 2.09905e-20, cumulative = -4.61065e-20
ExecutionTime = 4.99 s  ClockTime = 5 s

Time = 0.01

Courant Number mean: 0.127339 max: 0.898877
nonePBiCGStab:  Solving for Ux, Initial residual = 0.0202767, Final residual = 0.00208486, No Iterations 5
nonePBiCGStab:  Solving for Uy, Initial residual = 0.0505562, Final residual = 0.00623584, No Iterations 5
nonePBiCGStab:  Solving for Uz, Initial residual = 0.113023, Final residual = 0.0180788, No Iterations 5
DICPBiCGStab:  Solving for p, Initial residual = 0.354044, Final residual = 3.00624e-07, No Iterations 104
time step continuity errors : sum local = 7.6215e-10, global = 2.46962e-20, cumulative = -2.14103e-20
DICPBiCGStab:  Solving for p, Initial residual = 0.302209, Final residual = 2.90682e-07, No Iterations 99
time step continuity errors : sum local = 7.23447e-10, global = -4.73164e-20, cumulative = -6.87266e-20
ExecutionTime = 6.12 s  ClockTime = 6 s

End

