/*---------------------------------------------------------------------------*\
  =========                 |
  \\      /  F ield         | OpenFOAM: The Open Source CFD Toolbox
   \\    /   O peration     | Website:  https://openfoam.org
    \\  /    A nd           | Version:  8
     \\/     M anipulation  |
\*---------------------------------------------------------------------------*/
Build  : 8-13d66902f78c
Exec   : icoFoam
Date   : Jul 14 2021
Time   : 00:50:14
Host   : "uc2n477.localdomain"
PID    : 2914942
I/O    : uncollated
Case   : /pfs/data5/home/kit/scc/nq7776/code/OGL_DATA/lidDrivenCavity3D/v0.1-136-g40fef35/f584ccac99/IntelXeonGold6230CPU@2.10GHz/Test_2021-07-14-00:33:42/50/p-U-CG-GKO-BJ-omp/lidDrivenCavity3D
nProcs : 1
sigFpe : Enabling floating point exception trapping (FOAM_SIGFPE).
fileModificationChecking : Monitoring run-time modified files using timeStampMaster (fileModificationSkew 10)
allowSystemOperations : Allowing user-supplied system call operations

// * * * * * * * * * * * * * * * * * * * * * * * * * * * * * * * * * * * * * //
Create time

Create mesh for time = 0

Reading transportProperties

Reading field p

Reading field U

Reading/calculating face flux field phi


Starting time loop

Time = 0.002

Courant Number mean: 0 max: 0
[OGL LOG] init_host_sparsity_pattern : 35 ms
[OGL LOG] matrix not stored update host matrix
[OGL LOG] update_host_mtx : 18 ms
[OGL LOG] matrix is not yet sorted, compute sorting idxs
[OGL LOG] compute_sort : 907 ms
[OGL LOG] matrix is not yet sorted, sorting host matrix
[OGL LOG] sort_host_mtx_sparsity_pattern : 24 ms
[OGL LOG] sort_host_mtx : 15 ms
[OGL LOG] init_preconditioner : 10 ms
[OGL LOG] solve : 291 ms
BJompGKOBiCGStab:  Solving for Ux, Initial residual = 1, Final residual = 3.61163e-07, No Iterations 40
[OGL LOG] init_host_sparsity_pattern : 34 ms
[OGL LOG] matrix not stored update host matrix
[OGL LOG] update_host_mtx : 18 ms
[OGL LOG] matrix is not yet sorted, sorting host matrix
[OGL LOG] sort_host_mtx_sparsity_pattern : 23 ms
[OGL LOG] sort_host_mtx : 12 ms
[OGL LOG] init_preconditioner : 10 ms
[OGL LOG] solve : 6 ms
BJompGKOBiCGStab:  Solving for Uy, Initial residual = 0, Final residual = 0, No Iterations 0
[OGL LOG] init_host_sparsity_pattern : 33 ms
[OGL LOG] matrix not stored update host matrix
[OGL LOG] update_host_mtx : 15 ms
[OGL LOG] matrix is not yet sorted, sorting host matrix
[OGL LOG] sort_host_mtx_sparsity_pattern : 23 ms
[OGL LOG] sort_host_mtx : 12 ms
[OGL LOG] init_preconditioner : 11 ms
[OGL LOG] solve : 6 ms
BJompGKOBiCGStab:  Solving for Uz, Initial residual = 0, Final residual = 0, No Iterations 0
[OGL LOG] init_host_sparsity_pattern : 32 ms
[OGL LOG] matrix not stored update host matrix
[OGL LOG] update_host_mtx : 18 ms
[OGL LOG] matrix is not yet sorted, sorting host matrix
[OGL LOG] sort_host_mtx_sparsity_pattern : 22 ms
[OGL LOG] sort_host_mtx : 14 ms
[OGL LOG] init_preconditioner : 11 ms
 CG create  precond 
[OGL LOG] solve : 1629 ms
BJompGKOCG:  Solving for p, Initial residual = 1, Final residual = 8.7136e-07, No Iterations 434
time step continuity errors : sum local = 1.43467e-09, global = 2.16334e-20, cumulative = 2.16334e-20
[OGL LOG] init_preconditioner : 0 ms
 CG create  precond 
[OGL LOG] solve : 1607 ms
BJompGKOCG:  Solving for p, Initial residual = 0.721581, Final residual = 9.99561e-07, No Iterations 429
time step continuity errors : sum local = 2.18206e-09, global = 9.38824e-22, cumulative = 2.25723e-20
ExecutionTime = 16.28 s  ClockTime = 6 s

Time = 0.004

Courant Number mean: 0.0720722 max: 0.726639
[OGL LOG] init_host_sparsity_pattern : 33 ms
[OGL LOG] matrix not stored update host matrix
[OGL LOG] update_host_mtx : 16 ms
[OGL LOG] matrix is not yet sorted, sorting host matrix
[OGL LOG] sort_host_mtx_sparsity_pattern : 24 ms
[OGL LOG] sort_host_mtx : 13 ms
[OGL LOG] init_preconditioner : 0 ms
[OGL LOG] solve : 236 ms
BJompGKOBiCGStab:  Solving for Ux, Initial residual = 0.203465, Final residual = 8.82245e-07, No Iterations 30
[OGL LOG] init_host_sparsity_pattern : 33 ms
[OGL LOG] matrix not stored update host matrix
[OGL LOG] update_host_mtx : 15 ms
[OGL LOG] matrix is not yet sorted, sorting host matrix
[OGL LOG] sort_host_mtx_sparsity_pattern : 22 ms
[OGL LOG] sort_host_mtx : 12 ms
[OGL LOG] init_preconditioner : 0 ms
[OGL LOG] solve : 290 ms
BJompGKOBiCGStab:  Solving for Uy, Initial residual = 0.618431, Final residual = 6.21292e-07, No Iterations 39
[OGL LOG] init_host_sparsity_pattern : 33 ms
[OGL LOG] matrix not stored update host matrix
[OGL LOG] update_host_mtx : 15 ms
[OGL LOG] matrix is not yet sorted, sorting host matrix
[OGL LOG] sort_host_mtx_sparsity_pattern : 22 ms
[OGL LOG] sort_host_mtx : 12 ms
[OGL LOG] init_preconditioner : 0 ms
[OGL LOG] solve : 276 ms
BJompGKOBiCGStab:  Solving for Uz, Initial residual = 0.536258, Final residual = 2.20958e-07, No Iterations 37
[OGL LOG] init_preconditioner : 0 ms
 CG create  precond 
[OGL LOG] solve : 1605 ms
BJompGKOCG:  Solving for p, Initial residual = 0.673319, Final residual = 9.59803e-07, No Iterations 419
time step continuity errors : sum local = 2.27643e-09, global = 2.20409e-21, cumulative = 2.47763e-20
[OGL LOG] init_preconditioner : 0 ms
 CG create  precond 
[OGL LOG] solve : 1586 ms
BJompGKOCG:  Solving for p, Initial residual = 0.598889, Final residual = 9.93341e-07, No Iterations 418
time step continuity errors : sum local = 2.41815e-09, global = 4.32197e-20, cumulative = 6.7996e-20
ExecutionTime = 32.69 s  ClockTime = 10 s

Time = 0.006

Courant Number mean: 0.107408 max: 0.881754
[OGL LOG] init_host_sparsity_pattern : 33 ms
[OGL LOG] matrix not stored update host matrix
[OGL LOG] update_host_mtx : 16 ms
[OGL LOG] matrix is not yet sorted, sorting host matrix
[OGL LOG] sort_host_mtx_sparsity_pattern : 23 ms
[OGL LOG] sort_host_mtx : 12 ms
[OGL LOG] init_preconditioner : 0 ms
[OGL LOG] solve : 249 ms
BJompGKOBiCGStab:  Solving for Ux, Initial residual = 0.0995684, Final residual = 8.756e-07, No Iterations 34
[OGL LOG] init_host_sparsity_pattern : 33 ms
[OGL LOG] matrix not stored update host matrix
[OGL LOG] update_host_mtx : 15 ms
[OGL LOG] matrix is not yet sorted, sorting host matrix
[OGL LOG] sort_host_mtx_sparsity_pattern : 21 ms
[OGL LOG] sort_host_mtx : 12 ms
[OGL LOG] init_preconditioner : 0 ms
[OGL LOG] solve : 207 ms
BJompGKOBiCGStab:  Solving for Uy, Initial residual = 0.24997, Final residual = 9.0002e-07, No Iterations 28
[OGL LOG] init_host_sparsity_pattern : 33 ms
[OGL LOG] matrix not stored update host matrix
[OGL LOG] update_host_mtx : 15 ms
[OGL LOG] matrix is not yet sorted, sorting host matrix
[OGL LOG] sort_host_mtx_sparsity_pattern : 21 ms
[OGL LOG] sort_host_mtx : 12 ms
[OGL LOG] init_preconditioner : 0 ms
[OGL LOG] solve : 266 ms
BJompGKOBiCGStab:  Solving for Uz, Initial residual = 0.540988, Final residual = 3.40125e-07, No Iterations 37
[OGL LOG] init_preconditioner : 0 ms
 CG create  precond 
[OGL LOG] solve : 1633 ms
BJompGKOCG:  Solving for p, Initial residual = 0.606886, Final residual = 9.86405e-07, No Iterations 429
time step continuity errors : sum local = 1.67954e-09, global = -2.57252e-21, cumulative = 6.54235e-20
[OGL LOG] init_preconditioner : 0 ms
 CG create  precond 
[OGL LOG] solve : 1668 ms
BJompGKOCG:  Solving for p, Initial residual = 0.560842, Final residual = 9.5476e-07, No Iterations 428
time step continuity errors : sum local = 1.57144e-09, global = 2.20077e-20, cumulative = 8.74312e-20
ExecutionTime = 49.19 s  ClockTime = 15 s

Time = 0.008

Courant Number mean: 0.123244 max: 0.890102
[OGL LOG] init_host_sparsity_pattern : 34 ms
[OGL LOG] matrix not stored update host matrix
[OGL LOG] update_host_mtx : 18 ms
[OGL LOG] matrix is not yet sorted, sorting host matrix
[OGL LOG] sort_host_mtx_sparsity_pattern : 24 ms
[OGL LOG] sort_host_mtx : 13 ms
[OGL LOG] init_preconditioner : 0 ms
[OGL LOG] solve : 236 ms
BJompGKOBiCGStab:  Solving for Ux, Initial residual = 0.0341422, Final residual = 9.12059e-07, No Iterations 30
[OGL LOG] init_host_sparsity_pattern : 33 ms
[OGL LOG] matrix not stored update host matrix
[OGL LOG] update_host_mtx : 15 ms
[OGL LOG] matrix is not yet sorted, sorting host matrix
[OGL LOG] sort_host_mtx_sparsity_pattern : 22 ms
[OGL LOG] sort_host_mtx : 12 ms
[OGL LOG] init_preconditioner : 0 ms
[OGL LOG] solve : 255 ms
BJompGKOBiCGStab:  Solving for Uy, Initial residual = 0.132381, Final residual = 5.90674e-07, No Iterations 35
[OGL LOG] init_host_sparsity_pattern : 33 ms
[OGL LOG] matrix not stored update host matrix
[OGL LOG] update_host_mtx : 15 ms
[OGL LOG] matrix is not yet sorted, sorting host matrix
[OGL LOG] sort_host_mtx_sparsity_pattern : 22 ms
[OGL LOG] sort_host_mtx : 12 ms
[OGL LOG] init_preconditioner : 0 ms
[OGL LOG] solve : 296 ms
BJompGKOBiCGStab:  Solving for Uz, Initial residual = 0.471972, Final residual = 7.02071e-07, No Iterations 40
[OGL LOG] init_preconditioner : 0 ms
 CG create  precond 
[OGL LOG] solve : 1641 ms
BJompGKOCG:  Solving for p, Initial residual = 0.423038, Final residual = 9.78371e-07, No Iterations 429
time step continuity errors : sum local = 1.54486e-09, global = -5.85013e-20, cumulative = 2.89299e-20
[OGL LOG] init_preconditioner : 0 ms
 CG create  precond 
[OGL LOG] solve : 1627 ms
BJompGKOCG:  Solving for p, Initial residual = 0.368377, Final residual = 9.46135e-07, No Iterations 428
time step continuity errors : sum local = 1.51568e-09, global = -3.89292e-21, cumulative = 2.5037e-20
ExecutionTime = 65.84 s  ClockTime = 19 s

Time = 0.01

Courant Number mean: 0.136096 max: 0.906942
[OGL LOG] init_host_sparsity_pattern : 32 ms
[OGL LOG] matrix not stored update host matrix
[OGL LOG] update_host_mtx : 15 ms
[OGL LOG] matrix is not yet sorted, sorting host matrix
[OGL LOG] sort_host_mtx_sparsity_pattern : 21 ms
[OGL LOG] sort_host_mtx : 12 ms
[OGL LOG] init_preconditioner : 0 ms
[OGL LOG] solve : 217 ms
BJompGKOBiCGStab:  Solving for Ux, Initial residual = 0.0230738, Final residual = 8.40549e-07, No Iterations 29
[OGL LOG] init_host_sparsity_pattern : 32 ms
[OGL LOG] matrix not stored update host matrix
[OGL LOG] update_host_mtx : 15 ms
[OGL LOG] matrix is not yet sorted, sorting host matrix
[OGL LOG] sort_host_mtx_sparsity_pattern : 21 ms
[OGL LOG] sort_host_mtx : 12 ms
[OGL LOG] init_preconditioner : 0 ms
[OGL LOG] solve : 229 ms
BJompGKOBiCGStab:  Solving for Uy, Initial residual = 0.0484114, Final residual = 9.75695e-07, No Iterations 31
[OGL LOG] init_host_sparsity_pattern : 33 ms
[OGL LOG] matrix not stored update host matrix
[OGL LOG] update_host_mtx : 15 ms
[OGL LOG] matrix is not yet sorted, sorting host matrix
[OGL LOG] sort_host_mtx_sparsity_pattern : 21 ms
[OGL LOG] sort_host_mtx : 12 ms
[OGL LOG] init_preconditioner : 0 ms
[OGL LOG] solve : 251 ms
BJompGKOBiCGStab:  Solving for Uz, Initial residual = 0.159033, Final residual = 8.85367e-07, No Iterations 34
[OGL LOG] init_preconditioner : 0 ms
 CG create  precond 
[OGL LOG] solve : 1636 ms
BJompGKOCG:  Solving for p, Initial residual = 0.361667, Final residual = 9.5977e-07, No Iterations 429
time step continuity errors : sum local = 1.31126e-09, global = -1.21889e-20, cumulative = 1.28481e-20
[OGL LOG] init_preconditioner : 0 ms
 CG create  precond 
[OGL LOG] solve : 1630 ms
BJompGKOCG:  Solving for p, Initial residual = 0.333161, Final residual = 9.22621e-07, No Iterations 429
time step continuity errors : sum local = 1.24922e-09, global = -7.84347e-21, cumulative = 5.00466e-21
ExecutionTime = 82.14 s  ClockTime = 23 s

End

