/*---------------------------------------------------------------------------*\
  =========                 |
  \\      /  F ield         | OpenFOAM: The Open Source CFD Toolbox
   \\    /   O peration     | Website:  https://openfoam.org
    \\  /    A nd           | Version:  8
     \\/     M anipulation  |
\*---------------------------------------------------------------------------*/
Build  : 8-13d66902f78c
Exec   : icoFoam
Date   : Jul 12 2021
Time   : 14:52:09
Host   : "uc2n395.localdomain"
PID    : 1633423
I/O    : uncollated
Case   : /pfs/data5/home/kit/scc/nq7776/code/OGL_DATA/lidDrivenCavity3D/v0.1-136-g40fef35/f584ccac99/IntelXeonGold6230CPU@2.10GHz/Test_2021-07-12-14:46:58/100/p-CG-OF-DIC-reference/lidDrivenCavity3D
nProcs : 1
sigFpe : Enabling floating point exception trapping (FOAM_SIGFPE).
fileModificationChecking : Monitoring run-time modified files using timeStampMaster (fileModificationSkew 10)
allowSystemOperations : Allowing user-supplied system call operations

// * * * * * * * * * * * * * * * * * * * * * * * * * * * * * * * * * * * * * //
Create time

Create mesh for time = 0

Reading transportProperties

Reading field p

Reading field U

Reading/calculating face flux field phi


Starting time loop

Time = 0.001

Courant Number mean: 0 max: 0
nonePBiCGStab:  Solving for Ux, Initial residual = 1, Final residual = 0.0818707, No Iterations 5
nonePBiCGStab:  Solving for Uy, Initial residual = 0, Final residual = 0, No Iterations 0
nonePBiCGStab:  Solving for Uz, Initial residual = 0, Final residual = 0, No Iterations 0
DICPCG:  Solving for p, Initial residual = 1, Final residual = 9.10219e-07, No Iterations 283
time step continuity errors : sum local = 3.44738e-10, global = -2.00347e-20, cumulative = -2.00347e-20
DICPCG:  Solving for p, Initial residual = 0.707485, Final residual = 8.93662e-07, No Iterations 280
time step continuity errors : sum local = 4.68816e-10, global = 2.83088e-21, cumulative = -1.72038e-20
ExecutionTime = 17.84 s  ClockTime = 18 s

Time = 0.002

Courant Number mean: 0.0422155 max: 0.791725
nonePBiCGStab:  Solving for Ux, Initial residual = 0.137867, Final residual = 0.0400077, No Iterations 5
nonePBiCGStab:  Solving for Uy, Initial residual = 0.451746, Final residual = 0.130142, No Iterations 5
nonePBiCGStab:  Solving for Uz, Initial residual = 0.987526, Final residual = 0.323465, No Iterations 5
DICPCG:  Solving for p, Initial residual = 0.789699, Final residual = 9.11394e-07, No Iterations 277
time step continuity errors : sum local = 8.30484e-10, global = 2.67832e-21, cumulative = -1.45255e-20
DICPCG:  Solving for p, Initial residual = 0.713525, Final residual = 9.79271e-07, No Iterations 275
time step continuity errors : sum local = 9.09605e-10, global = 1.3135e-21, cumulative = -1.3212e-20
ExecutionTime = 32.17 s  ClockTime = 32 s

Time = 0.003

Courant Number mean: 0.0674676 max: 0.89998
nonePBiCGStab:  Solving for Ux, Initial residual = 0.0610629, Final residual = 0.0153012, No Iterations 5
nonePBiCGStab:  Solving for Uy, Initial residual = 0.208727, Final residual = 0.0593992, No Iterations 5
nonePBiCGStab:  Solving for Uz, Initial residual = 0.71249, Final residual = 0.213728, No Iterations 5
DICPCG:  Solving for p, Initial residual = 0.797066, Final residual = 8.43702e-07, No Iterations 277
time step continuity errors : sum local = 6.11308e-10, global = -1.33892e-21, cumulative = -1.45509e-20
DICPCG:  Solving for p, Initial residual = 0.724869, Final residual = 9.07272e-07, No Iterations 276
time step continuity errors : sum local = 6.41156e-10, global = -4.68333e-21, cumulative = -1.92342e-20
ExecutionTime = 46.49 s  ClockTime = 47 s

Time = 0.004

Courant Number mean: 0.0814739 max: 0.91289
nonePBiCGStab:  Solving for Ux, Initial residual = 0.0387865, Final residual = 0.0107239, No Iterations 5
nonePBiCGStab:  Solving for Uy, Initial residual = 0.148965, Final residual = 0.0502054, No Iterations 5
nonePBiCGStab:  Solving for Uz, Initial residual = 0.492868, Final residual = 0.135097, No Iterations 5
DICPCG:  Solving for p, Initial residual = 0.719472, Final residual = 9.07376e-07, No Iterations 274
time step continuity errors : sum local = 6.75031e-10, global = 1.1915e-21, cumulative = -1.80428e-20
DICPCG:  Solving for p, Initial residual = 0.619839, Final residual = 7.80014e-07, No Iterations 274
time step continuity errors : sum local = 5.93634e-10, global = 3.85859e-21, cumulative = -1.41842e-20
ExecutionTime = 60.72 s  ClockTime = 61 s

Time = 0.005

Courant Number mean: 0.092279 max: 0.925557
nonePBiCGStab:  Solving for Ux, Initial residual = 0.0298127, Final residual = 0.00896084, No Iterations 5
nonePBiCGStab:  Solving for Uy, Initial residual = 0.0986419, Final residual = 0.0358093, No Iterations 5
nonePBiCGStab:  Solving for Uz, Initial residual = 0.304828, Final residual = 0.0787275, No Iterations 5
DICPCG:  Solving for p, Initial residual = 0.75714, Final residual = 9.17809e-07, No Iterations 270
time step continuity errors : sum local = 6.26988e-10, global = 5.71492e-22, cumulative = -1.36127e-20
DICPCG:  Solving for p, Initial residual = 0.670842, Final residual = 9.45315e-07, No Iterations 269
time step continuity errors : sum local = 6.38219e-10, global = -5.92731e-21, cumulative = -1.954e-20
ExecutionTime = 74.74 s  ClockTime = 75 s

End

