/*---------------------------------------------------------------------------*\
  =========                 |
  \\      /  F ield         | OpenFOAM: The Open Source CFD Toolbox
   \\    /   O peration     | Website:  https://openfoam.org
    \\  /    A nd           | Version:  8
     \\/     M anipulation  |
\*---------------------------------------------------------------------------*/
Build  : 8-13d66902f78c
Exec   : icoFoam
Date   : Jul 12 2021
Time   : 12:51:34
Host   : "uc2n400.localdomain"
PID    : 3887715
I/O    : uncollated
Case   : /pfs/data5/home/kit/scc/nq7776/code/OGL_DATA/lidDrivenCavity3D/v0.1-136-g40fef35/f584ccac99/IntelXeonGold6230CPU@2.10GHz/Test_2021-07-12-12:50:00/25/p-U-BiCGStab-GKO-none-omp/lidDrivenCavity3D
nProcs : 1
sigFpe : Enabling floating point exception trapping (FOAM_SIGFPE).
fileModificationChecking : Monitoring run-time modified files using timeStampMaster (fileModificationSkew 10)
allowSystemOperations : Allowing user-supplied system call operations

// * * * * * * * * * * * * * * * * * * * * * * * * * * * * * * * * * * * * * //
Create time

Create mesh for time = 0

Reading transportProperties

Reading field p

Reading field U

Reading/calculating face flux field phi


Starting time loop

Time = 0.004

Courant Number mean: 0 max: 0
[OGL LOG] init_host_sparsity_pattern : 4 ms
[OGL LOG] matrix not stored update host matrix
[OGL LOG] update_host_mtx : 2 ms
[OGL LOG] matrix is not yet sorted, compute sorting idxs
[OGL LOG] compute_sort : 106 ms
[OGL LOG] matrix is not yet sorted, sorting host matrix
[OGL LOG] sort_host_mtx_sparsity_pattern : 2 ms
[OGL LOG] sort_host_mtx : 1 ms
[OGL LOG] init_preconditioner : 0 ms
[OGL LOG] solve : 19 ms
noneompGKOBiCGStab:  Solving for Ux, Initial residual = 1, Final residual = 7.6541e-07, No Iterations 28
[OGL LOG] init_host_sparsity_pattern : 4 ms
[OGL LOG] matrix not stored update host matrix
[OGL LOG] update_host_mtx : 2 ms
[OGL LOG] matrix is not yet sorted, sorting host matrix
[OGL LOG] sort_host_mtx_sparsity_pattern : 2 ms
[OGL LOG] sort_host_mtx : 1 ms
[OGL LOG] init_preconditioner : 0 ms
[OGL LOG] solve : 0 ms
noneompGKOBiCGStab:  Solving for Uy, Initial residual = 0, Final residual = 0, No Iterations 0
[OGL LOG] init_host_sparsity_pattern : 4 ms
[OGL LOG] matrix not stored update host matrix
[OGL LOG] update_host_mtx : 1 ms
[OGL LOG] matrix is not yet sorted, sorting host matrix
[OGL LOG] sort_host_mtx_sparsity_pattern : 2 ms
[OGL LOG] sort_host_mtx : 1 ms
[OGL LOG] init_preconditioner : 0 ms
[OGL LOG] solve : 0 ms
noneompGKOBiCGStab:  Solving for Uz, Initial residual = 0, Final residual = 0, No Iterations 0
[OGL LOG] init_host_sparsity_pattern : 4 ms
[OGL LOG] matrix not stored update host matrix
[OGL LOG] update_host_mtx : 1 ms
[OGL LOG] matrix is not yet sorted, sorting host matrix
[OGL LOG] sort_host_mtx_sparsity_pattern : 2 ms
[OGL LOG] sort_host_mtx : 1 ms
[OGL LOG] init_preconditioner : 0 ms
[OGL LOG] solve : 113 ms
noneompGKOBiCGStab:  Solving for p, Initial residual = 1, Final residual = 9.90671e-07, No Iterations 174
time step continuity errors : sum local = 2.68281e-08, global = 4.38083e-20, cumulative = 4.38083e-20
[OGL LOG] init_preconditioner : 0 ms
[OGL LOG] solve : 110 ms
noneompGKOBiCGStab:  Solving for p, Initial residual = 0.644085, Final residual = 9.91186e-07, No Iterations 167
time step continuity errors : sum local = 6.41382e-09, global = 1.29704e-19, cumulative = 1.73513e-19
ExecutionTime = 0.78 s  ClockTime = 1 s

Time = 0.008

Courant Number mean: 0.0870974 max: 0.619854
[OGL LOG] init_host_sparsity_pattern : 4 ms
[OGL LOG] matrix not stored update host matrix
[OGL LOG] update_host_mtx : 1 ms
[OGL LOG] matrix is not yet sorted, sorting host matrix
[OGL LOG] sort_host_mtx_sparsity_pattern : 2 ms
[OGL LOG] sort_host_mtx : 1 ms
[OGL LOG] init_preconditioner : 0 ms
[OGL LOG] solve : 19 ms
noneompGKOBiCGStab:  Solving for Ux, Initial residual = 0.238939, Final residual = 6.81765e-07, No Iterations 25
[OGL LOG] init_host_sparsity_pattern : 4 ms
[OGL LOG] matrix not stored update host matrix
[OGL LOG] update_host_mtx : 1 ms
[OGL LOG] matrix is not yet sorted, sorting host matrix
[OGL LOG] sort_host_mtx_sparsity_pattern : 2 ms
[OGL LOG] sort_host_mtx : 1 ms
[OGL LOG] init_preconditioner : 0 ms
[OGL LOG] solve : 20 ms
noneompGKOBiCGStab:  Solving for Uy, Initial residual = 0.615477, Final residual = 9.88736e-07, No Iterations 27
[OGL LOG] init_host_sparsity_pattern : 4 ms
[OGL LOG] matrix not stored update host matrix
[OGL LOG] update_host_mtx : 1 ms
[OGL LOG] matrix is not yet sorted, sorting host matrix
[OGL LOG] sort_host_mtx_sparsity_pattern : 2 ms
[OGL LOG] sort_host_mtx : 1 ms
[OGL LOG] init_preconditioner : 0 ms
[OGL LOG] solve : 18 ms
noneompGKOBiCGStab:  Solving for Uz, Initial residual = 0.391863, Final residual = 9.18996e-07, No Iterations 24
[OGL LOG] init_preconditioner : 0 ms
[OGL LOG] solve : 123 ms
noneompGKOBiCGStab:  Solving for p, Initial residual = 0.527355, Final residual = 8.39299e-07, No Iterations 168
time step continuity errors : sum local = 5.9621e-08, global = 7.62388e-20, cumulative = 2.49751e-19
[OGL LOG] init_preconditioner : 0 ms
[OGL LOG] solve : 122 ms
noneompGKOBiCGStab:  Solving for p, Initial residual = 0.437519, Final residual = 9.94678e-07, No Iterations 167
time step continuity errors : sum local = 1.89881e-07, global = -2.35931e-20, cumulative = 2.26158e-19
ExecutionTime = 1.44 s  ClockTime = 1 s

Time = 0.012

Courant Number mean: 0.127403 max: 0.798793
[OGL LOG] init_host_sparsity_pattern : 4 ms
[OGL LOG] matrix not stored update host matrix
[OGL LOG] update_host_mtx : 1 ms
[OGL LOG] matrix is not yet sorted, sorting host matrix
[OGL LOG] sort_host_mtx_sparsity_pattern : 2 ms
[OGL LOG] sort_host_mtx : 1 ms
[OGL LOG] init_preconditioner : 0 ms
[OGL LOG] solve : 17 ms
noneompGKOBiCGStab:  Solving for Ux, Initial residual = 0.0920575, Final residual = 9.86885e-07, No Iterations 22
[OGL LOG] init_host_sparsity_pattern : 4 ms
[OGL LOG] matrix not stored update host matrix
[OGL LOG] update_host_mtx : 1 ms
[OGL LOG] matrix is not yet sorted, sorting host matrix
[OGL LOG] sort_host_mtx_sparsity_pattern : 2 ms
[OGL LOG] sort_host_mtx : 1 ms
[OGL LOG] init_preconditioner : 0 ms
[OGL LOG] solve : 16 ms
noneompGKOBiCGStab:  Solving for Uy, Initial residual = 0.145843, Final residual = 9.79941e-07, No Iterations 22
[OGL LOG] init_host_sparsity_pattern : 4 ms
[OGL LOG] matrix not stored update host matrix
[OGL LOG] update_host_mtx : 1 ms
[OGL LOG] matrix is not yet sorted, sorting host matrix
[OGL LOG] sort_host_mtx_sparsity_pattern : 2 ms
[OGL LOG] sort_host_mtx : 1 ms
[OGL LOG] init_preconditioner : 0 ms
[OGL LOG] solve : 18 ms
noneompGKOBiCGStab:  Solving for Uz, Initial residual = 0.339774, Final residual = 9.55006e-07, No Iterations 24
[OGL LOG] init_preconditioner : 0 ms
[OGL LOG] solve : 129 ms
noneompGKOBiCGStab:  Solving for p, Initial residual = 0.305737, Final residual = 9.48559e-07, No Iterations 177
time step continuity errors : sum local = 2.48367e-07, global = -1.51643e-21, cumulative = 2.24642e-19
[OGL LOG] init_preconditioner : 0 ms
[OGL LOG] solve : 125 ms
noneompGKOBiCGStab:  Solving for p, Initial residual = 0.265195, Final residual = 8.55503e-07, No Iterations 171
time step continuity errors : sum local = 4.0398e-08, global = 7.52919e-20, cumulative = 2.99934e-19
ExecutionTime = 2.12 s  ClockTime = 1 s

Time = 0.016

Courant Number mean: 0.145254 max: 0.82722
[OGL LOG] init_host_sparsity_pattern : 4 ms
[OGL LOG] matrix not stored update host matrix
[OGL LOG] update_host_mtx : 1 ms
[OGL LOG] matrix is not yet sorted, sorting host matrix
[OGL LOG] sort_host_mtx_sparsity_pattern : 2 ms
[OGL LOG] sort_host_mtx : 1 ms
[OGL LOG] init_preconditioner : 0 ms
[OGL LOG] solve : 14 ms
noneompGKOBiCGStab:  Solving for Ux, Initial residual = 0.0235107, Final residual = 9.60211e-07, No Iterations 19
[OGL LOG] init_host_sparsity_pattern : 4 ms
[OGL LOG] matrix not stored update host matrix
[OGL LOG] update_host_mtx : 1 ms
[OGL LOG] matrix is not yet sorted, sorting host matrix
[OGL LOG] sort_host_mtx_sparsity_pattern : 2 ms
[OGL LOG] sort_host_mtx : 1 ms
[OGL LOG] init_preconditioner : 0 ms
[OGL LOG] solve : 17 ms
noneompGKOBiCGStab:  Solving for Uy, Initial residual = 0.0608552, Final residual = 8.9331e-07, No Iterations 22
[OGL LOG] init_host_sparsity_pattern : 4 ms
[OGL LOG] matrix not stored update host matrix
[OGL LOG] update_host_mtx : 1 ms
[OGL LOG] matrix is not yet sorted, sorting host matrix
[OGL LOG] sort_host_mtx_sparsity_pattern : 2 ms
[OGL LOG] sort_host_mtx : 1 ms
[OGL LOG] init_preconditioner : 0 ms
[OGL LOG] solve : 18 ms
noneompGKOBiCGStab:  Solving for Uz, Initial residual = 0.184908, Final residual = 8.54966e-07, No Iterations 23
[OGL LOG] init_preconditioner : 0 ms
[OGL LOG] solve : 128 ms
noneompGKOBiCGStab:  Solving for p, Initial residual = 0.239468, Final residual = 8.97881e-07, No Iterations 168
time step continuity errors : sum local = 1.95924e-08, global = 4.88743e-20, cumulative = 3.48808e-19
[OGL LOG] init_preconditioner : 0 ms
[OGL LOG] solve : 123 ms
noneompGKOBiCGStab:  Solving for p, Initial residual = 0.222271, Final residual = 9.59248e-07, No Iterations 161
time step continuity errors : sum local = 9.13971e-09, global = 1.36471e-19, cumulative = 4.85279e-19
ExecutionTime = 2.79 s  ClockTime = 2 s

Time = 0.02

Courant Number mean: 0.157058 max: 0.845845
[OGL LOG] init_host_sparsity_pattern : 4 ms
[OGL LOG] matrix not stored update host matrix
[OGL LOG] update_host_mtx : 2 ms
[OGL LOG] matrix is not yet sorted, sorting host matrix
[OGL LOG] sort_host_mtx_sparsity_pattern : 3 ms
[OGL LOG] sort_host_mtx : 1 ms
[OGL LOG] init_preconditioner : 0 ms
[OGL LOG] solve : 14 ms
noneompGKOBiCGStab:  Solving for Ux, Initial residual = 0.015019, Final residual = 9.62093e-07, No Iterations 18
[OGL LOG] init_host_sparsity_pattern : 4 ms
[OGL LOG] matrix not stored update host matrix
[OGL LOG] update_host_mtx : 1 ms
[OGL LOG] matrix is not yet sorted, sorting host matrix
[OGL LOG] sort_host_mtx_sparsity_pattern : 2 ms
[OGL LOG] sort_host_mtx : 1 ms
[OGL LOG] init_preconditioner : 0 ms
[OGL LOG] solve : 15 ms
noneompGKOBiCGStab:  Solving for Uy, Initial residual = 0.0280979, Final residual = 9.93076e-07, No Iterations 20
[OGL LOG] init_host_sparsity_pattern : 4 ms
[OGL LOG] matrix not stored update host matrix
[OGL LOG] update_host_mtx : 1 ms
[OGL LOG] matrix is not yet sorted, sorting host matrix
[OGL LOG] sort_host_mtx_sparsity_pattern : 2 ms
[OGL LOG] sort_host_mtx : 1 ms
[OGL LOG] init_preconditioner : 0 ms
[OGL LOG] solve : 16 ms
noneompGKOBiCGStab:  Solving for Uz, Initial residual = 0.0758371, Final residual = 9.88502e-07, No Iterations 21
[OGL LOG] init_preconditioner : 0 ms
[OGL LOG] solve : 114 ms
noneompGKOBiCGStab:  Solving for p, Initial residual = 0.234831, Final residual = 8.81115e-07, No Iterations 155
time step continuity errors : sum local = 3.02409e-08, global = -3.60879e-20, cumulative = 4.49192e-19
[OGL LOG] init_preconditioner : 0 ms
[OGL LOG] solve : 115 ms
noneompGKOBiCGStab:  Solving for p, Initial residual = 0.233063, Final residual = 4.50845e-07, No Iterations 153
time step continuity errors : sum local = 1.09002e-07, global = 3.64393e-20, cumulative = 4.85631e-19
ExecutionTime = 3.41 s  ClockTime = 2 s

End

