/*---------------------------------------------------------------------------*\
  =========                 |
  \\      /  F ield         | OpenFOAM: The Open Source CFD Toolbox
   \\    /   O peration     | Website:  https://openfoam.org
    \\  /    A nd           | Version:  8
     \\/     M anipulation  |
\*---------------------------------------------------------------------------*/
Build  : 8-13d66902f78c
Exec   : icoFoam
Date   : Jul 14 2021
Time   : 02:14:23
Host   : "uc2n394.localdomain"
PID    : 3283400
I/O    : uncollated
Case   : /pfs/data5/home/kit/scc/nq7776/code/OGL_DATA/lidDrivenCavity3D/v0.1-136-g40fef35/f584ccac99/IntelXeonGold6230CPU@2.10GHz/Test_2021-07-14-00:31:10/75/p-BiCGStab-GKO-BJ-omp/lidDrivenCavity3D
nProcs : 1
sigFpe : Enabling floating point exception trapping (FOAM_SIGFPE).
fileModificationChecking : Monitoring run-time modified files using timeStampMaster (fileModificationSkew 10)
allowSystemOperations : Allowing user-supplied system call operations

// * * * * * * * * * * * * * * * * * * * * * * * * * * * * * * * * * * * * * //
Create time

Create mesh for time = 0

Reading transportProperties

Reading field p

Reading field U

Reading/calculating face flux field phi


Starting time loop

Time = 0.00133333

Courant Number mean: 0 max: 0
nonePBiCGStab:  Solving for Ux, Initial residual = 1, Final residual = 0.0730209, No Iterations 5
nonePBiCGStab:  Solving for Uy, Initial residual = 0, Final residual = 0, No Iterations 0
nonePBiCGStab:  Solving for Uz, Initial residual = 0, Final residual = 0, No Iterations 0
[OGL LOG] init_host_sparsity_pattern : 123 ms
[OGL LOG] matrix not stored update host matrix
[OGL LOG] update_host_mtx : 62 ms
[OGL LOG] matrix is not yet sorted, compute sorting idxs
[OGL LOG] compute_sort : 3328 ms
[OGL LOG] matrix is not yet sorted, sorting host matrix
[OGL LOG] sort_host_mtx_sparsity_pattern : 81 ms
[OGL LOG] sort_host_mtx : 53 ms
[OGL LOG] init_preconditioner : 10 ms
[OGL LOG] solve : 6342 ms
BJompGKOBiCGStab:  Solving for p, Initial residual = 1, Final residual = 9.97466e-07, No Iterations 484
time step continuity errors : sum local = 8.63907e-10, global = 1.26993e-20, cumulative = 1.26993e-20
[OGL LOG] init_preconditioner : 0 ms
[OGL LOG] solve : 5585 ms
BJompGKOBiCGStab:  Solving for p, Initial residual = 0.697097, Final residual = 8.49162e-07, No Iterations 478
time step continuity errors : sum local = 4.45211e-09, global = 2.77818e-21, cumulative = 1.54775e-20
ExecutionTime = 386.45 s  ClockTime = 18 s

Time = 0.00266667

Courant Number mean: 0.0508075 max: 0.767258
nonePBiCGStab:  Solving for Ux, Initial residual = 0.140587, Final residual = 0.0324501, No Iterations 5
nonePBiCGStab:  Solving for Uy, Initial residual = 0.41364, Final residual = 0.0923272, No Iterations 5
nonePBiCGStab:  Solving for Uz, Initial residual = 0.983118, Final residual = 0.24982, No Iterations 5
[OGL LOG] init_preconditioner : 0 ms
[OGL LOG] solve : 6075 ms
BJompGKOBiCGStab:  Solving for p, Initial residual = 0.746899, Final residual = 8.73564e-07, No Iterations 497
time step continuity errors : sum local = 9.94675e-09, global = 1.80278e-20, cumulative = 3.35053e-20
[OGL LOG] init_preconditioner : 0 ms
[OGL LOG] solve : 5783 ms
BJompGKOBiCGStab:  Solving for p, Initial residual = 0.668144, Final residual = 9.37311e-07, No Iterations 482
time step continuity errors : sum local = 1.80048e-08, global = 1.17287e-22, cumulative = 3.36226e-20
ExecutionTime = 765.41 s  ClockTime = 31 s

Time = 0.004

Courant Number mean: 0.0796135 max: 0.886044
nonePBiCGStab:  Solving for Ux, Initial residual = 0.058447, Final residual = 0.011148, No Iterations 5
nonePBiCGStab:  Solving for Uy, Initial residual = 0.171965, Final residual = 0.0398826, No Iterations 5
nonePBiCGStab:  Solving for Uz, Initial residual = 0.610734, Final residual = 0.142301, No Iterations 5
[OGL LOG] init_preconditioner : 0 ms
[OGL LOG] solve : 5968 ms
BJompGKOBiCGStab:  Solving for p, Initial residual = 0.73036, Final residual = 1.58473e-07, No Iterations 516
time step continuity errors : sum local = 6.50193e-09, global = 5.03369e-21, cumulative = 3.86563e-20
[OGL LOG] init_preconditioner : 0 ms
[OGL LOG] solve : 5722 ms
BJompGKOBiCGStab:  Solving for p, Initial residual = 0.660892, Final residual = 2.98778e-07, No Iterations 480
time step continuity errors : sum local = 1.79116e-08, global = -2.65787e-21, cumulative = 3.59984e-20
ExecutionTime = 1139.15 s  ClockTime = 43 s

Time = 0.00533333

Courant Number mean: 0.0948106 max: 0.902572
nonePBiCGStab:  Solving for Ux, Initial residual = 0.0345955, Final residual = 0.00682985, No Iterations 5
nonePBiCGStab:  Solving for Uy, Initial residual = 0.119546, Final residual = 0.0298195, No Iterations 5
nonePBiCGStab:  Solving for Uz, Initial residual = 0.385927, Final residual = 0.080668, No Iterations 5
[OGL LOG] init_preconditioner : 0 ms
[OGL LOG] solve : 5079 ms
BJompGKOBiCGStab:  Solving for p, Initial residual = 0.609795, Final residual = 8.15628e-07, No Iterations 440
time step continuity errors : sum local = 9.67062e-10, global = -2.80109e-20, cumulative = 7.98751e-21
[OGL LOG] init_preconditioner : 0 ms
[OGL LOG] solve : 6236 ms
BJompGKOBiCGStab:  Solving for p, Initial residual = 0.521118, Final residual = 6.65196e-07, No Iterations 514
time step continuity errors : sum local = 1.85763e-09, global = -1.8138e-20, cumulative = -1.01505e-20
ExecutionTime = 1500.98 s  ClockTime = 55 s

Time = 0.00666667

Courant Number mean: 0.107177 max: 0.916781
nonePBiCGStab:  Solving for Ux, Initial residual = 0.025732, Final residual = 0.00503127, No Iterations 5
nonePBiCGStab:  Solving for Uy, Initial residual = 0.0750482, Final residual = 0.0208233, No Iterations 5
nonePBiCGStab:  Solving for Uz, Initial residual = 0.212578, Final residual = 0.0494939, No Iterations 5
[OGL LOG] init_preconditioner : 0 ms
[OGL LOG] solve : 5467 ms
BJompGKOBiCGStab:  Solving for p, Initial residual = 0.629326, Final residual = 4.3557e-07, No Iterations 458
time step continuity errors : sum local = 3.81513e-08, global = -1.75204e-20, cumulative = -2.7671e-20
[OGL LOG] init_preconditioner : 0 ms
[OGL LOG] solve : 5078 ms
BJompGKOBiCGStab:  Solving for p, Initial residual = 0.552175, Final residual = 9.68796e-07, No Iterations 421
time step continuity errors : sum local = 1.08297e-08, global = 1.08812e-20, cumulative = -1.67898e-20
ExecutionTime = 1838.22 s  ClockTime = 66 s

End

