/*---------------------------------------------------------------------------*\
  =========                 |
  \\      /  F ield         | OpenFOAM: The Open Source CFD Toolbox
   \\    /   O peration     | Website:  https://openfoam.org
    \\  /    A nd           | Version:  8
     \\/     M anipulation  |
\*---------------------------------------------------------------------------*/
Build  : 8-13d66902f78c
Exec   : icoFoam
Date   : Jul 14 2021
Time   : 01:30:12
Host   : "uc2n399.localdomain"
PID    : 4096521
I/O    : uncollated
Case   : /pfs/data5/home/kit/scc/nq7776/code/OGL_DATA/lidDrivenCavity3D/v0.1-136-g40fef35/f584ccac99/IntelXeonGold6230CPU@2.10GHz/Test_2021-07-14-01:16:21/50/p-U-BiCGStab-GKO-none-omp/lidDrivenCavity3D
nProcs : 1
sigFpe : Enabling floating point exception trapping (FOAM_SIGFPE).
fileModificationChecking : Monitoring run-time modified files using timeStampMaster (fileModificationSkew 10)
allowSystemOperations : Allowing user-supplied system call operations

// * * * * * * * * * * * * * * * * * * * * * * * * * * * * * * * * * * * * * //
Create time

Create mesh for time = 0

Reading transportProperties

Reading field p

Reading field U

Reading/calculating face flux field phi


Starting time loop

Time = 0.002

Courant Number mean: 0 max: 0
[OGL LOG] init_host_sparsity_pattern : 35 ms
[OGL LOG] matrix not stored update host matrix
[OGL LOG] update_host_mtx : 18 ms
[OGL LOG] matrix is not yet sorted, compute sorting idxs
[OGL LOG] compute_sort : 910 ms
[OGL LOG] matrix is not yet sorted, sorting host matrix
[OGL LOG] sort_host_mtx_sparsity_pattern : 23 ms
[OGL LOG] sort_host_mtx : 15 ms
[OGL LOG] init_preconditioner : 0 ms
[OGL LOG] solve : 149 ms
noneompGKOBiCGStab:  Solving for Ux, Initial residual = 1, Final residual = 8.43389e-07, No Iterations 41
[OGL LOG] init_host_sparsity_pattern : 34 ms
[OGL LOG] matrix not stored update host matrix
[OGL LOG] update_host_mtx : 18 ms
[OGL LOG] matrix is not yet sorted, sorting host matrix
[OGL LOG] sort_host_mtx_sparsity_pattern : 23 ms
[OGL LOG] sort_host_mtx : 12 ms
[OGL LOG] init_preconditioner : 0 ms
[OGL LOG] solve : 4 ms
noneompGKOBiCGStab:  Solving for Uy, Initial residual = 0, Final residual = 0, No Iterations 0
[OGL LOG] init_host_sparsity_pattern : 33 ms
[OGL LOG] matrix not stored update host matrix
[OGL LOG] update_host_mtx : 15 ms
[OGL LOG] matrix is not yet sorted, sorting host matrix
[OGL LOG] sort_host_mtx_sparsity_pattern : 23 ms
[OGL LOG] sort_host_mtx : 12 ms
[OGL LOG] init_preconditioner : 0 ms
[OGL LOG] solve : 3 ms
noneompGKOBiCGStab:  Solving for Uz, Initial residual = 0, Final residual = 0, No Iterations 0
[OGL LOG] init_host_sparsity_pattern : 33 ms
[OGL LOG] matrix not stored update host matrix
[OGL LOG] update_host_mtx : 18 ms
[OGL LOG] matrix is not yet sorted, sorting host matrix
[OGL LOG] sort_host_mtx_sparsity_pattern : 22 ms
[OGL LOG] sort_host_mtx : 13 ms
[OGL LOG] init_preconditioner : 0 ms
[OGL LOG] solve : 1298 ms
noneompGKOBiCGStab:  Solving for p, Initial residual = 1, Final residual = 9.59251e-07, No Iterations 350
time step continuity errors : sum local = 5.8098e-09, global = -7.34919e-21, cumulative = -7.34919e-21
[OGL LOG] init_preconditioner : 0 ms
[OGL LOG] solve : 1198 ms
noneompGKOBiCGStab:  Solving for p, Initial residual = 0.721586, Final residual = 4.09646e-07, No Iterations 338
time step continuity errors : sum local = 1.57843e-06, global = 6.84947e-21, cumulative = -4.9972e-22
ExecutionTime = 12.6 s  ClockTime = 5 s

Time = 0.004

Courant Number mean: 0.0720728 max: 0.726639
[OGL LOG] init_host_sparsity_pattern : 33 ms
[OGL LOG] matrix not stored update host matrix
[OGL LOG] update_host_mtx : 16 ms
[OGL LOG] matrix is not yet sorted, sorting host matrix
[OGL LOG] sort_host_mtx_sparsity_pattern : 22 ms
[OGL LOG] sort_host_mtx : 12 ms
[OGL LOG] init_preconditioner : 0 ms
[OGL LOG] solve : 131 ms
noneompGKOBiCGStab:  Solving for Ux, Initial residual = 0.203507, Final residual = 8.69389e-07, No Iterations 36
[OGL LOG] init_host_sparsity_pattern : 33 ms
[OGL LOG] matrix not stored update host matrix
[OGL LOG] update_host_mtx : 15 ms
[OGL LOG] matrix is not yet sorted, sorting host matrix
[OGL LOG] sort_host_mtx_sparsity_pattern : 21 ms
[OGL LOG] sort_host_mtx : 12 ms
[OGL LOG] init_preconditioner : 0 ms
[OGL LOG] solve : 150 ms
noneompGKOBiCGStab:  Solving for Uy, Initial residual = 0.618388, Final residual = 6.24974e-07, No Iterations 41
[OGL LOG] init_host_sparsity_pattern : 33 ms
[OGL LOG] matrix not stored update host matrix
[OGL LOG] update_host_mtx : 15 ms
[OGL LOG] matrix is not yet sorted, sorting host matrix
[OGL LOG] sort_host_mtx_sparsity_pattern : 21 ms
[OGL LOG] sort_host_mtx : 12 ms
[OGL LOG] init_preconditioner : 0 ms
[OGL LOG] solve : 146 ms
noneompGKOBiCGStab:  Solving for Uz, Initial residual = 0.537591, Final residual = 8.29087e-07, No Iterations 37
[OGL LOG] init_preconditioner : 0 ms
[OGL LOG] solve : 1274 ms
noneompGKOBiCGStab:  Solving for p, Initial residual = 0.673352, Final residual = 8.708e-07, No Iterations 352
time step continuity errors : sum local = 8.30564e-07, global = -4.14571e-20, cumulative = -4.19568e-20
[OGL LOG] init_preconditioner : 0 ms
[OGL LOG] solve : 1257 ms
noneompGKOBiCGStab:  Solving for p, Initial residual = 0.598874, Final residual = 9.47114e-07, No Iterations 345
time step continuity errors : sum local = 6.35662e-09, global = -1.51321e-20, cumulative = -5.70889e-20
ExecutionTime = 24.86 s  ClockTime = 8 s

Time = 0.006

Courant Number mean: 0.10741 max: 0.881761
[OGL LOG] init_host_sparsity_pattern : 33 ms
[OGL LOG] matrix not stored update host matrix
[OGL LOG] update_host_mtx : 16 ms
[OGL LOG] matrix is not yet sorted, sorting host matrix
[OGL LOG] sort_host_mtx_sparsity_pattern : 23 ms
[OGL LOG] sort_host_mtx : 13 ms
[OGL LOG] init_preconditioner : 0 ms
[OGL LOG] solve : 130 ms
noneompGKOBiCGStab:  Solving for Ux, Initial residual = 0.0996034, Final residual = 9.68311e-07, No Iterations 35
[OGL LOG] init_host_sparsity_pattern : 33 ms
[OGL LOG] matrix not stored update host matrix
[OGL LOG] update_host_mtx : 15 ms
[OGL LOG] matrix is not yet sorted, sorting host matrix
[OGL LOG] sort_host_mtx_sparsity_pattern : 22 ms
[OGL LOG] sort_host_mtx : 12 ms
[OGL LOG] init_preconditioner : 0 ms
[OGL LOG] solve : 143 ms
noneompGKOBiCGStab:  Solving for Uy, Initial residual = 0.249951, Final residual = 9.10439e-07, No Iterations 38
[OGL LOG] init_host_sparsity_pattern : 33 ms
[OGL LOG] matrix not stored update host matrix
[OGL LOG] update_host_mtx : 15 ms
[OGL LOG] matrix is not yet sorted, sorting host matrix
[OGL LOG] sort_host_mtx_sparsity_pattern : 22 ms
[OGL LOG] sort_host_mtx : 12 ms
[OGL LOG] init_preconditioner : 0 ms
[OGL LOG] solve : 149 ms
noneompGKOBiCGStab:  Solving for Uz, Initial residual = 0.543582, Final residual = 8.10255e-07, No Iterations 40
[OGL LOG] init_preconditioner : 0 ms
[OGL LOG] solve : 1285 ms
noneompGKOBiCGStab:  Solving for p, Initial residual = 0.606857, Final residual = 9.58166e-07, No Iterations 354
time step continuity errors : sum local = 1.25844e-07, global = 3.80574e-20, cumulative = -1.90315e-20
[OGL LOG] init_preconditioner : 0 ms
[OGL LOG] solve : 1267 ms
noneompGKOBiCGStab:  Solving for p, Initial residual = 0.560917, Final residual = 8.46564e-07, No Iterations 350
time step continuity errors : sum local = 4.1661e-07, global = -4.24476e-20, cumulative = -6.14791e-20
ExecutionTime = 37.21 s  ClockTime = 11 s

Time = 0.008

Courant Number mean: 0.123245 max: 0.890107
[OGL LOG] init_host_sparsity_pattern : 32 ms
[OGL LOG] matrix not stored update host matrix
[OGL LOG] update_host_mtx : 16 ms
[OGL LOG] matrix is not yet sorted, sorting host matrix
[OGL LOG] sort_host_mtx_sparsity_pattern : 23 ms
[OGL LOG] sort_host_mtx : 12 ms
[OGL LOG] init_preconditioner : 0 ms
[OGL LOG] solve : 114 ms
noneompGKOBiCGStab:  Solving for Ux, Initial residual = 0.0341446, Final residual = 7.99777e-07, No Iterations 31
[OGL LOG] init_host_sparsity_pattern : 33 ms
[OGL LOG] matrix not stored update host matrix
[OGL LOG] update_host_mtx : 15 ms
[OGL LOG] matrix is not yet sorted, sorting host matrix
[OGL LOG] sort_host_mtx_sparsity_pattern : 21 ms
[OGL LOG] sort_host_mtx : 12 ms
[OGL LOG] init_preconditioner : 0 ms
[OGL LOG] solve : 127 ms
noneompGKOBiCGStab:  Solving for Uy, Initial residual = 0.132407, Final residual = 9.72705e-07, No Iterations 35
[OGL LOG] init_host_sparsity_pattern : 33 ms
[OGL LOG] matrix not stored update host matrix
[OGL LOG] update_host_mtx : 15 ms
[OGL LOG] matrix is not yet sorted, sorting host matrix
[OGL LOG] sort_host_mtx_sparsity_pattern : 21 ms
[OGL LOG] sort_host_mtx : 12 ms
[OGL LOG] init_preconditioner : 0 ms
[OGL LOG] solve : 146 ms
noneompGKOBiCGStab:  Solving for Uz, Initial residual = 0.472759, Final residual = 9.29358e-07, No Iterations 40
[OGL LOG] init_preconditioner : 0 ms
[OGL LOG] solve : 1313 ms
noneompGKOBiCGStab:  Solving for p, Initial residual = 0.423196, Final residual = 6.00051e-07, No Iterations 352
time step continuity errors : sum local = 1.88411e-08, global = 7.49112e-20, cumulative = 1.34321e-20
[OGL LOG] init_preconditioner : 0 ms
[OGL LOG] solve : 1302 ms
noneompGKOBiCGStab:  Solving for p, Initial residual = 0.368516, Final residual = 9.57109e-07, No Iterations 354
time step continuity errors : sum local = 4.88386e-09, global = 6.95336e-22, cumulative = 1.41275e-20
ExecutionTime = 49.66 s  ClockTime = 15 s

Time = 0.01

Courant Number mean: 0.136097 max: 0.906945
[OGL LOG] init_host_sparsity_pattern : 33 ms
[OGL LOG] matrix not stored update host matrix
[OGL LOG] update_host_mtx : 15 ms
[OGL LOG] matrix is not yet sorted, sorting host matrix
[OGL LOG] sort_host_mtx_sparsity_pattern : 21 ms
[OGL LOG] sort_host_mtx : 12 ms
[OGL LOG] init_preconditioner : 0 ms
[OGL LOG] solve : 111 ms
noneompGKOBiCGStab:  Solving for Ux, Initial residual = 0.0230672, Final residual = 9.59495e-07, No Iterations 30
[OGL LOG] init_host_sparsity_pattern : 33 ms
[OGL LOG] matrix not stored update host matrix
[OGL LOG] update_host_mtx : 15 ms
[OGL LOG] matrix is not yet sorted, sorting host matrix
[OGL LOG] sort_host_mtx_sparsity_pattern : 21 ms
[OGL LOG] sort_host_mtx : 12 ms
[OGL LOG] init_preconditioner : 0 ms
[OGL LOG] solve : 120 ms
noneompGKOBiCGStab:  Solving for Uy, Initial residual = 0.0484808, Final residual = 8.92145e-07, No Iterations 32
[OGL LOG] init_host_sparsity_pattern : 33 ms
[OGL LOG] matrix not stored update host matrix
[OGL LOG] update_host_mtx : 15 ms
[OGL LOG] matrix is not yet sorted, sorting host matrix
[OGL LOG] sort_host_mtx_sparsity_pattern : 21 ms
[OGL LOG] sort_host_mtx : 12 ms
[OGL LOG] init_preconditioner : 0 ms
[OGL LOG] solve : 124 ms
noneompGKOBiCGStab:  Solving for Uz, Initial residual = 0.160241, Final residual = 8.53122e-07, No Iterations 33
[OGL LOG] init_preconditioner : 0 ms
[OGL LOG] solve : 1160 ms
noneompGKOBiCGStab:  Solving for p, Initial residual = 0.361716, Final residual = 9.90263e-07, No Iterations 325
time step continuity errors : sum local = 1.00426e-08, global = -2.55285e-20, cumulative = -1.1401e-20
[OGL LOG] init_preconditioner : 0 ms
[OGL LOG] solve : 1186 ms
noneompGKOBiCGStab:  Solving for p, Initial residual = 0.333158, Final residual = 9.33291e-07, No Iterations 327
time step continuity errors : sum local = 9.9297e-09, global = 3.3291e-20, cumulative = 2.18899e-20
ExecutionTime = 60.88 s  ClockTime = 18 s

End

