/*---------------------------------------------------------------------------*\
  =========                 |
  \\      /  F ield         | OpenFOAM: The Open Source CFD Toolbox
   \\    /   O peration     | Website:  https://openfoam.org
    \\  /    A nd           | Version:  8
     \\/     M anipulation  |
\*---------------------------------------------------------------------------*/
Build  : 8-13d66902f78c
Exec   : icoFoam
Date   : Jul 12 2021
Time   : 13:36:31
Host   : "uc2n445.localdomain"
PID    : 3208303
I/O    : uncollated
Case   : /pfs/data5/home/kit/scc/nq7776/code/OGL_DATA/lidDrivenCavity3D/v0.1-136-g40fef35/f584ccac99/IntelXeonGold6230CPU@2.10GHz/Test_2021-07-12-13:12:59/50/p-U-BiCGStab-GKO-BJ-omp/lidDrivenCavity3D
nProcs : 1
sigFpe : Enabling floating point exception trapping (FOAM_SIGFPE).
fileModificationChecking : Monitoring run-time modified files using timeStampMaster (fileModificationSkew 10)
allowSystemOperations : Allowing user-supplied system call operations

// * * * * * * * * * * * * * * * * * * * * * * * * * * * * * * * * * * * * * //
Create time

Create mesh for time = 0

Reading transportProperties

Reading field p

Reading field U

Reading/calculating face flux field phi


Starting time loop

Time = 0.002

Courant Number mean: 0 max: 0
[OGL LOG] init_host_sparsity_pattern : 35 ms
[OGL LOG] matrix not stored update host matrix
[OGL LOG] update_host_mtx : 18 ms
[OGL LOG] matrix is not yet sorted, compute sorting idxs
[OGL LOG] compute_sort : 986 ms
[OGL LOG] matrix is not yet sorted, sorting host matrix
[OGL LOG] sort_host_mtx_sparsity_pattern : 23 ms
[OGL LOG] sort_host_mtx : 14 ms
[OGL LOG] init_preconditioner : 10 ms
[OGL LOG] solve : 146 ms
BJompGKOBiCGStab:  Solving for Ux, Initial residual = 1, Final residual = 8.40984e-07, No Iterations 31
[OGL LOG] init_host_sparsity_pattern : 35 ms
[OGL LOG] matrix not stored update host matrix
[OGL LOG] update_host_mtx : 18 ms
[OGL LOG] matrix is not yet sorted, sorting host matrix
[OGL LOG] sort_host_mtx_sparsity_pattern : 23 ms
[OGL LOG] sort_host_mtx : 12 ms
[OGL LOG] init_preconditioner : 3 ms
[OGL LOG] solve : 4 ms
BJompGKOBiCGStab:  Solving for Uy, Initial residual = 0, Final residual = 0, No Iterations 0
[OGL LOG] init_host_sparsity_pattern : 33 ms
[OGL LOG] matrix not stored update host matrix
[OGL LOG] update_host_mtx : 15 ms
[OGL LOG] matrix is not yet sorted, sorting host matrix
[OGL LOG] sort_host_mtx_sparsity_pattern : 23 ms
[OGL LOG] sort_host_mtx : 12 ms
[OGL LOG] init_preconditioner : 3 ms
[OGL LOG] solve : 4 ms
BJompGKOBiCGStab:  Solving for Uz, Initial residual = 0, Final residual = 0, No Iterations 0
[OGL LOG] init_host_sparsity_pattern : 32 ms
[OGL LOG] matrix not stored update host matrix
[OGL LOG] update_host_mtx : 18 ms
[OGL LOG] matrix is not yet sorted, sorting host matrix
[OGL LOG] sort_host_mtx_sparsity_pattern : 22 ms
[OGL LOG] sort_host_mtx : 14 ms
[OGL LOG] init_preconditioner : 3 ms
[OGL LOG] solve : 1233 ms
BJompGKOBiCGStab:  Solving for p, Initial residual = 1, Final residual = 6.61418e-07, No Iterations 290
time step continuity errors : sum local = 1.26782e-07, global = 8.51841e-21, cumulative = 8.51841e-21
[OGL LOG] init_preconditioner : 0 ms
[OGL LOG] solve : 1199 ms
BJompGKOBiCGStab:  Solving for p, Initial residual = 0.721585, Final residual = 9.79684e-07, No Iterations 277
time step continuity errors : sum local = 6.45261e-08, global = -2.60089e-20, cumulative = -1.74905e-20
ExecutionTime = 86.31 s  ClockTime = 4 s

Time = 0.004

Courant Number mean: 0.0720722 max: 0.726639
[OGL LOG] init_host_sparsity_pattern : 33 ms
[OGL LOG] matrix not stored update host matrix
[OGL LOG] update_host_mtx : 15 ms
[OGL LOG] matrix is not yet sorted, sorting host matrix
[OGL LOG] sort_host_mtx_sparsity_pattern : 25 ms
[OGL LOG] sort_host_mtx : 13 ms
[OGL LOG] init_preconditioner : 0 ms
[OGL LOG] solve : 114 ms
BJompGKOBiCGStab:  Solving for Ux, Initial residual = 0.203461, Final residual = 5.61944e-07, No Iterations 23
[OGL LOG] init_host_sparsity_pattern : 34 ms
[OGL LOG] matrix not stored update host matrix
[OGL LOG] update_host_mtx : 16 ms
[OGL LOG] matrix is not yet sorted, sorting host matrix
[OGL LOG] sort_host_mtx_sparsity_pattern : 22 ms
[OGL LOG] sort_host_mtx : 12 ms
[OGL LOG] init_preconditioner : 0 ms
[OGL LOG] solve : 156 ms
BJompGKOBiCGStab:  Solving for Uy, Initial residual = 0.618434, Final residual = 9.27147e-07, No Iterations 32
[OGL LOG] init_host_sparsity_pattern : 34 ms
[OGL LOG] matrix not stored update host matrix
[OGL LOG] update_host_mtx : 15 ms
[OGL LOG] matrix is not yet sorted, sorting host matrix
[OGL LOG] sort_host_mtx_sparsity_pattern : 22 ms
[OGL LOG] sort_host_mtx : 12 ms
[OGL LOG] init_preconditioner : 0 ms
[OGL LOG] solve : 141 ms
BJompGKOBiCGStab:  Solving for Uz, Initial residual = 0.536151, Final residual = 9.52813e-07, No Iterations 32
[OGL LOG] init_preconditioner : 0 ms
[OGL LOG] solve : 977 ms
BJompGKOBiCGStab:  Solving for p, Initial residual = 0.673315, Final residual = 3.94118e-07, No Iterations 272
time step continuity errors : sum local = 8.07736e-07, global = -1.62925e-20, cumulative = -3.37831e-20
[OGL LOG] init_preconditioner : 0 ms
[OGL LOG] solve : 915 ms
BJompGKOBiCGStab:  Solving for p, Initial residual = 0.598943, Final residual = 3.92491e-07, No Iterations 271
time step continuity errors : sum local = 1.34334e-06, global = 6.6357e-20, cumulative = 3.25739e-20
ExecutionTime = 161.33 s  ClockTime = 7 s

Time = 0.006

Courant Number mean: 0.107408 max: 0.881755
[OGL LOG] init_host_sparsity_pattern : 33 ms
[OGL LOG] matrix not stored update host matrix
[OGL LOG] update_host_mtx : 16 ms
[OGL LOG] matrix is not yet sorted, sorting host matrix
[OGL LOG] sort_host_mtx_sparsity_pattern : 24 ms
[OGL LOG] sort_host_mtx : 13 ms
[OGL LOG] init_preconditioner : 0 ms
[OGL LOG] solve : 116 ms
BJompGKOBiCGStab:  Solving for Ux, Initial residual = 0.0996095, Final residual = 7.23345e-07, No Iterations 28
[OGL LOG] init_host_sparsity_pattern : 34 ms
[OGL LOG] matrix not stored update host matrix
[OGL LOG] update_host_mtx : 15 ms
[OGL LOG] matrix is not yet sorted, sorting host matrix
[OGL LOG] sort_host_mtx_sparsity_pattern : 22 ms
[OGL LOG] sort_host_mtx : 12 ms
[OGL LOG] init_preconditioner : 0 ms
[OGL LOG] solve : 109 ms
BJompGKOBiCGStab:  Solving for Uy, Initial residual = 0.249856, Final residual = 9.32289e-07, No Iterations 30
[OGL LOG] init_host_sparsity_pattern : 34 ms
[OGL LOG] matrix not stored update host matrix
[OGL LOG] update_host_mtx : 15 ms
[OGL LOG] matrix is not yet sorted, sorting host matrix
[OGL LOG] sort_host_mtx_sparsity_pattern : 22 ms
[OGL LOG] sort_host_mtx : 12 ms
[OGL LOG] init_preconditioner : 0 ms
[OGL LOG] solve : 115 ms
BJompGKOBiCGStab:  Solving for Uz, Initial residual = 0.54246, Final residual = 8.99802e-07, No Iterations 32
[OGL LOG] init_preconditioner : 0 ms
[OGL LOG] solve : 918 ms
BJompGKOBiCGStab:  Solving for p, Initial residual = 0.606832, Final residual = 7.76457e-07, No Iterations 272
time step continuity errors : sum local = 1.51574e-08, global = -1.94163e-20, cumulative = 1.31576e-20
[OGL LOG] init_preconditioner : 0 ms
[OGL LOG] solve : 861 ms
BJompGKOBiCGStab:  Solving for p, Initial residual = 0.560689, Final residual = 9.20738e-07, No Iterations 260
time step continuity errors : sum local = 2.00427e-09, global = 2.24556e-20, cumulative = 3.56131e-20
ExecutionTime = 230.44 s  ClockTime = 10 s

Time = 0.008

Courant Number mean: 0.123244 max: 0.890103
[OGL LOG] init_host_sparsity_pattern : 33 ms
[OGL LOG] matrix not stored update host matrix
[OGL LOG] update_host_mtx : 17 ms
[OGL LOG] matrix is not yet sorted, sorting host matrix
[OGL LOG] sort_host_mtx_sparsity_pattern : 24 ms
[OGL LOG] sort_host_mtx : 13 ms
[OGL LOG] init_preconditioner : 0 ms
[OGL LOG] solve : 90 ms
BJompGKOBiCGStab:  Solving for Ux, Initial residual = 0.0341675, Final residual = 9.04166e-07, No Iterations 24
[OGL LOG] init_host_sparsity_pattern : 33 ms
[OGL LOG] matrix not stored update host matrix
[OGL LOG] update_host_mtx : 15 ms
[OGL LOG] matrix is not yet sorted, sorting host matrix
[OGL LOG] sort_host_mtx_sparsity_pattern : 22 ms
[OGL LOG] sort_host_mtx : 12 ms
[OGL LOG] init_preconditioner : 0 ms
[OGL LOG] solve : 102 ms
BJompGKOBiCGStab:  Solving for Uy, Initial residual = 0.132396, Final residual = 9.4392e-07, No Iterations 28
[OGL LOG] init_host_sparsity_pattern : 33 ms
[OGL LOG] matrix not stored update host matrix
[OGL LOG] update_host_mtx : 15 ms
[OGL LOG] matrix is not yet sorted, sorting host matrix
[OGL LOG] sort_host_mtx_sparsity_pattern : 22 ms
[OGL LOG] sort_host_mtx : 12 ms
[OGL LOG] init_preconditioner : 0 ms
[OGL LOG] solve : 118 ms
BJompGKOBiCGStab:  Solving for Uz, Initial residual = 0.476374, Final residual = 7.35824e-07, No Iterations 32
[OGL LOG] init_preconditioner : 0 ms
[OGL LOG] solve : 964 ms
BJompGKOBiCGStab:  Solving for p, Initial residual = 0.423123, Final residual = 4.18454e-07, No Iterations 282
time step continuity errors : sum local = 8.40282e-09, global = -4.27846e-20, cumulative = -7.17143e-21
[OGL LOG] init_preconditioner : 0 ms
[OGL LOG] solve : 904 ms
BJompGKOBiCGStab:  Solving for p, Initial residual = 0.368475, Final residual = 8.80259e-07, No Iterations 265
time step continuity errors : sum local = 2.94502e-09, global = 8.50217e-20, cumulative = 7.78503e-20
ExecutionTime = 301.42 s  ClockTime = 12 s

Time = 0.01

Courant Number mean: 0.136096 max: 0.906942
[OGL LOG] init_host_sparsity_pattern : 33 ms
[OGL LOG] matrix not stored update host matrix
[OGL LOG] update_host_mtx : 16 ms
[OGL LOG] matrix is not yet sorted, sorting host matrix
[OGL LOG] sort_host_mtx_sparsity_pattern : 24 ms
[OGL LOG] sort_host_mtx : 13 ms
[OGL LOG] init_preconditioner : 0 ms
[OGL LOG] solve : 96 ms
BJompGKOBiCGStab:  Solving for Ux, Initial residual = 0.0230667, Final residual = 9.87195e-07, No Iterations 24
[OGL LOG] init_host_sparsity_pattern : 33 ms
[OGL LOG] matrix not stored update host matrix
[OGL LOG] update_host_mtx : 15 ms
[OGL LOG] matrix is not yet sorted, sorting host matrix
[OGL LOG] sort_host_mtx_sparsity_pattern : 22 ms
[OGL LOG] sort_host_mtx : 12 ms
[OGL LOG] init_preconditioner : 0 ms
[OGL LOG] solve : 91 ms
BJompGKOBiCGStab:  Solving for Uy, Initial residual = 0.0484663, Final residual = 9.7639e-07, No Iterations 25
[OGL LOG] init_host_sparsity_pattern : 33 ms
[OGL LOG] matrix not stored update host matrix
[OGL LOG] update_host_mtx : 15 ms
[OGL LOG] matrix is not yet sorted, sorting host matrix
[OGL LOG] sort_host_mtx_sparsity_pattern : 22 ms
[OGL LOG] sort_host_mtx : 12 ms
[OGL LOG] init_preconditioner : 0 ms
[OGL LOG] solve : 101 ms
BJompGKOBiCGStab:  Solving for Uz, Initial residual = 0.160157, Final residual = 9.35037e-07, No Iterations 28
[OGL LOG] init_preconditioner : 0 ms
[OGL LOG] solve : 864 ms
BJompGKOBiCGStab:  Solving for p, Initial residual = 0.361672, Final residual = 7.78001e-07, No Iterations 256
time step continuity errors : sum local = 1.90818e-09, global = -1.03514e-20, cumulative = 6.74988e-20
[OGL LOG] init_preconditioner : 0 ms
[OGL LOG] solve : 937 ms
BJompGKOBiCGStab:  Solving for p, Initial residual = 0.333127, Final residual = 8.79589e-07, No Iterations 274
time step continuity errors : sum local = 1.19474e-09, global = -1.3548e-20, cumulative = 5.39509e-20
ExecutionTime = 369.59 s  ClockTime = 15 s

End

