/*---------------------------------------------------------------------------*\
  =========                 |
  \\      /  F ield         | OpenFOAM: The Open Source CFD Toolbox
   \\    /   O peration     | Website:  https://openfoam.org
    \\  /    A nd           | Version:  8
     \\/     M anipulation  |
\*---------------------------------------------------------------------------*/
Build  : 8-13d66902f78c
Exec   : icoFoam
Date   : Jul 13 2021
Time   : 22:17:14
Host   : "uc2n525.localdomain"
PID    : 3750196
I/O    : uncollated
Case   : /pfs/data5/home/kit/scc/nq7776/code/OGL_DATA/lidDrivenCavity3D/v0.1-136-g40fef35/f584ccac99/IntelXeonGold6230CPU@2.10GHz/Test_2021-07-13-22:16:26/25/p-BiCGStab-GKO-none-omp/lidDrivenCavity3D
nProcs : 1
sigFpe : Enabling floating point exception trapping (FOAM_SIGFPE).
fileModificationChecking : Monitoring run-time modified files using timeStampMaster (fileModificationSkew 10)
allowSystemOperations : Allowing user-supplied system call operations

// * * * * * * * * * * * * * * * * * * * * * * * * * * * * * * * * * * * * * //
Create time

Create mesh for time = 0

Reading transportProperties

Reading field p

Reading field U

Reading/calculating face flux field phi


Starting time loop

Time = 0.004

Courant Number mean: 0 max: 0
nonePBiCGStab:  Solving for Ux, Initial residual = 1, Final residual = 0.0337517, No Iterations 5
nonePBiCGStab:  Solving for Uy, Initial residual = 0, Final residual = 0, No Iterations 0
nonePBiCGStab:  Solving for Uz, Initial residual = 0, Final residual = 0, No Iterations 0
[OGL LOG] init_host_sparsity_pattern : 4 ms
[OGL LOG] matrix not stored update host matrix
[OGL LOG] update_host_mtx : 2 ms
[OGL LOG] matrix is not yet sorted, compute sorting idxs
[OGL LOG] compute_sort : 98 ms
[OGL LOG] matrix is not yet sorted, sorting host matrix
[OGL LOG] sort_host_mtx_sparsity_pattern : 2 ms
[OGL LOG] sort_host_mtx : 1 ms
[OGL LOG] init_preconditioner : 0 ms
[OGL LOG] solve : 177 ms
noneompGKOBiCGStab:  Solving for p, Initial residual = 1, Final residual = 8.85604e-07, No Iterations 176
time step continuity errors : sum local = 1.17245e-08, global = 2.50843e-21, cumulative = 2.50843e-21
[OGL LOG] init_preconditioner : 0 ms
[OGL LOG] solve : 170 ms
noneompGKOBiCGStab:  Solving for p, Initial residual = 0.622288, Final residual = 8.78454e-07, No Iterations 169
time step continuity errors : sum local = 1.12569e-07, global = 7.44789e-20, cumulative = 7.69874e-20
ExecutionTime = 0.58 s  ClockTime = 0 s

Time = 0.008

Courant Number mean: 0.084228 max: 0.621061
nonePBiCGStab:  Solving for Ux, Initial residual = 0.149591, Final residual = 0.00942704, No Iterations 5
nonePBiCGStab:  Solving for Uy, Initial residual = 0.281197, Final residual = 0.0142225, No Iterations 5
nonePBiCGStab:  Solving for Uz, Initial residual = 0.933153, Final residual = 0.0511251, No Iterations 5
[OGL LOG] init_preconditioner : 0 ms
[OGL LOG] solve : 165 ms
noneompGKOBiCGStab:  Solving for p, Initial residual = 0.518042, Final residual = 5.55677e-07, No Iterations 164
time step continuity errors : sum local = 5.41413e-08, global = -1.25514e-19, cumulative = -4.8527e-20
[OGL LOG] init_preconditioner : 0 ms
[OGL LOG] solve : 170 ms
noneompGKOBiCGStab:  Solving for p, Initial residual = 0.415899, Final residual = 6.92882e-07, No Iterations 169
time step continuity errors : sum local = 2.45343e-08, global = -7.79822e-20, cumulative = -1.26509e-19
ExecutionTime = 0.93 s  ClockTime = 1 s

Time = 0.012

Courant Number mean: 0.124051 max: 0.792235
nonePBiCGStab:  Solving for Ux, Initial residual = 0.0424951, Final residual = 0.00204596, No Iterations 5
nonePBiCGStab:  Solving for Uy, Initial residual = 0.0761595, Final residual = 0.00263693, No Iterations 5
nonePBiCGStab:  Solving for Uz, Initial residual = 0.142764, Final residual = 0.00668434, No Iterations 5
[OGL LOG] init_preconditioner : 0 ms
[OGL LOG] solve : 170 ms
noneompGKOBiCGStab:  Solving for p, Initial residual = 0.279216, Final residual = 8.76409e-07, No Iterations 169
time step continuity errors : sum local = 1.35106e-08, global = -5.5935e-20, cumulative = -1.82444e-19
[OGL LOG] init_preconditioner : 0 ms
[OGL LOG] solve : 172 ms
noneompGKOBiCGStab:  Solving for p, Initial residual = 0.224059, Final residual = 9.48669e-07, No Iterations 170
time step continuity errors : sum local = 1.25055e-08, global = 5.30638e-20, cumulative = -1.2938e-19
ExecutionTime = 1.28 s  ClockTime = 1 s

Time = 0.016

Courant Number mean: 0.142529 max: 0.824384
nonePBiCGStab:  Solving for Ux, Initial residual = 0.0219014, Final residual = 0.000752425, No Iterations 5
nonePBiCGStab:  Solving for Uy, Initial residual = 0.0474744, Final residual = 0.000975199, No Iterations 5
nonePBiCGStab:  Solving for Uz, Initial residual = 0.0927, Final residual = 0.00323701, No Iterations 5
[OGL LOG] init_preconditioner : 0 ms
[OGL LOG] solve : 160 ms
noneompGKOBiCGStab:  Solving for p, Initial residual = 0.13855, Final residual = 8.99736e-07, No Iterations 159
time step continuity errors : sum local = 2.14104e-08, global = 3.66245e-20, cumulative = -9.27559e-20
[OGL LOG] init_preconditioner : 0 ms
[OGL LOG] solve : 160 ms
noneompGKOBiCGStab:  Solving for p, Initial residual = 0.106561, Final residual = 9.7826e-07, No Iterations 158
time step continuity errors : sum local = 1.78261e-08, global = 1.01642e-19, cumulative = 8.88619e-21
ExecutionTime = 1.61 s  ClockTime = 1 s

Time = 0.02

Courant Number mean: 0.154857 max: 0.843613
nonePBiCGStab:  Solving for Ux, Initial residual = 0.013661, Final residual = 0.000405659, No Iterations 5
nonePBiCGStab:  Solving for Uy, Initial residual = 0.0288098, Final residual = 0.000728299, No Iterations 5
nonePBiCGStab:  Solving for Uz, Initial residual = 0.0552194, Final residual = 0.00172145, No Iterations 5
[OGL LOG] init_preconditioner : 0 ms
[OGL LOG] solve : 155 ms
noneompGKOBiCGStab:  Solving for p, Initial residual = 0.0654224, Final residual = 8.34987e-07, No Iterations 154
time step continuity errors : sum local = 1.46721e-08, global = -1.20831e-19, cumulative = -1.11945e-19
[OGL LOG] init_preconditioner : 0 ms
[OGL LOG] solve : 150 ms
noneompGKOBiCGStab:  Solving for p, Initial residual = 0.0510803, Final residual = 6.79735e-07, No Iterations 149
time step continuity errors : sum local = 6.91195e-08, global = -8.70864e-20, cumulative = -1.99032e-19
ExecutionTime = 1.93 s  ClockTime = 2 s

End

