/*---------------------------------------------------------------------------*\
  =========                 |
  \\      /  F ield         | OpenFOAM: The Open Source CFD Toolbox
   \\    /   O peration     | Website:  https://openfoam.org
    \\  /    A nd           | Version:  8
     \\/     M anipulation  |
\*---------------------------------------------------------------------------*/
Build  : 8-13d66902f78c
Exec   : icoFoam
Date   : Jul 14 2021
Time   : 02:16:12
Host   : "uc2n553.localdomain"
PID    : 759843
I/O    : uncollated
Case   : /pfs/data5/home/kit/scc/nq7776/code/OGL_DATA/lidDrivenCavity3D/v0.1-136-g40fef35/f584ccac99/IntelXeonGold6230CPU@2.10GHz/Test_2021-07-14-00:17:39/100/p-U-CG-GKO-none-omp/lidDrivenCavity3D
nProcs : 1
sigFpe : Enabling floating point exception trapping (FOAM_SIGFPE).
fileModificationChecking : Monitoring run-time modified files using timeStampMaster (fileModificationSkew 10)
allowSystemOperations : Allowing user-supplied system call operations

// * * * * * * * * * * * * * * * * * * * * * * * * * * * * * * * * * * * * * //
Create time

Create mesh for time = 0

Reading transportProperties

Reading field p

Reading field U

Reading/calculating face flux field phi


Starting time loop

Time = 0.001

Courant Number mean: 0 max: 0
[OGL LOG] init_host_sparsity_pattern : 288 ms
[OGL LOG] matrix not stored update host matrix
[OGL LOG] update_host_mtx : 145 ms
[OGL LOG] matrix is not yet sorted, compute sorting idxs
[OGL LOG] compute_sort : 8299 ms
[OGL LOG] matrix is not yet sorted, sorting host matrix
[OGL LOG] sort_host_mtx_sparsity_pattern : 185 ms
[OGL LOG] sort_host_mtx : 124 ms
[OGL LOG] init_preconditioner : 0 ms
[OGL LOG] solve : 1730 ms
noneompGKOBiCGStab:  Solving for Ux, Initial residual = 1, Final residual = 8.92714e-07, No Iterations 56
[OGL LOG] init_host_sparsity_pattern : 281 ms
[OGL LOG] matrix not stored update host matrix
[OGL LOG] update_host_mtx : 152 ms
[OGL LOG] matrix is not yet sorted, sorting host matrix
[OGL LOG] sort_host_mtx_sparsity_pattern : 194 ms
[OGL LOG] sort_host_mtx : 124 ms
[OGL LOG] init_preconditioner : 0 ms
[OGL LOG] solve : 45 ms
noneompGKOBiCGStab:  Solving for Uy, Initial residual = 0, Final residual = 0, No Iterations 0
[OGL LOG] init_host_sparsity_pattern : 266 ms
[OGL LOG] matrix not stored update host matrix
[OGL LOG] update_host_mtx : 145 ms
[OGL LOG] matrix is not yet sorted, sorting host matrix
[OGL LOG] sort_host_mtx_sparsity_pattern : 194 ms
[OGL LOG] sort_host_mtx : 125 ms
[OGL LOG] init_preconditioner : 0 ms
[OGL LOG] solve : 41 ms
noneompGKOBiCGStab:  Solving for Uz, Initial residual = 0, Final residual = 0, No Iterations 0
[OGL LOG] init_host_sparsity_pattern : 287 ms
[OGL LOG] matrix not stored update host matrix
[OGL LOG] update_host_mtx : 148 ms
[OGL LOG] matrix is not yet sorted, sorting host matrix
[OGL LOG] sort_host_mtx_sparsity_pattern : 192 ms
[OGL LOG] sort_host_mtx : 124 ms
[OGL LOG] init_preconditioner : 0 ms
[OGL LOG] solve : 13976 ms
noneompGKOCG:  Solving for p, Initial residual = 1, Final residual = 9.84208e-07, No Iterations 900
time step continuity errors : sum local = 5.90082e-10, global = -8.95303e-21, cumulative = -8.95303e-21
[OGL LOG] init_preconditioner : 0 ms
[OGL LOG] solve : 13518 ms
noneompGKOCG:  Solving for p, Initial residual = 0.783585, Final residual = 9.5502e-07, No Iterations 893
time step continuity errors : sum local = 7.1584e-10, global = 7.31783e-21, cumulative = -1.6352e-21
ExecutionTime = 133.28 s  ClockTime = 45 s

Time = 0.002

Courant Number mean: 0.0571435 max: 0.804774
[OGL LOG] init_host_sparsity_pattern : 266 ms
[OGL LOG] matrix not stored update host matrix
[OGL LOG] update_host_mtx : 130 ms
[OGL LOG] matrix is not yet sorted, sorting host matrix
[OGL LOG] sort_host_mtx_sparsity_pattern : 199 ms
[OGL LOG] sort_host_mtx : 125 ms
[OGL LOG] init_preconditioner : 0 ms
[OGL LOG] solve : 1613 ms
noneompGKOBiCGStab:  Solving for Ux, Initial residual = 0.169075, Final residual = 5.6465e-07, No Iterations 54
[OGL LOG] init_host_sparsity_pattern : 267 ms
[OGL LOG] matrix not stored update host matrix
[OGL LOG] update_host_mtx : 127 ms
[OGL LOG] matrix is not yet sorted, sorting host matrix
[OGL LOG] sort_host_mtx_sparsity_pattern : 193 ms
[OGL LOG] sort_host_mtx : 125 ms
[OGL LOG] init_preconditioner : 0 ms
[OGL LOG] solve : 1619 ms
noneompGKOBiCGStab:  Solving for Uy, Initial residual = 0.620181, Final residual = 9.74724e-07, No Iterations 54
[OGL LOG] init_host_sparsity_pattern : 267 ms
[OGL LOG] matrix not stored update host matrix
[OGL LOG] update_host_mtx : 131 ms
[OGL LOG] matrix is not yet sorted, sorting host matrix
[OGL LOG] sort_host_mtx_sparsity_pattern : 192 ms
[OGL LOG] sort_host_mtx : 124 ms
[OGL LOG] init_preconditioner : 0 ms
[OGL LOG] solve : 1772 ms
noneompGKOBiCGStab:  Solving for Uz, Initial residual = 0.646977, Final residual = 9.30435e-07, No Iterations 59
[OGL LOG] init_preconditioner : 0 ms
[OGL LOG] solve : 14024 ms
noneompGKOCG:  Solving for p, Initial residual = 0.798451, Final residual = 9.80397e-07, No Iterations 884
time step continuity errors : sum local = 9.96961e-10, global = -8.82547e-23, cumulative = -1.72345e-21
[OGL LOG] init_preconditioner : 0 ms
[OGL LOG] solve : 13583 ms
noneompGKOCG:  Solving for p, Initial residual = 0.738605, Final residual = 9.64809e-07, No Iterations 872
time step continuity errors : sum local = 1.00222e-09, global = 1.02029e-20, cumulative = 8.47942e-21
ExecutionTime = 266.88 s  ClockTime = 81 s

Time = 0.003

Courant Number mean: 0.0867391 max: 0.944826
[OGL LOG] init_host_sparsity_pattern : 267 ms
[OGL LOG] matrix not stored update host matrix
[OGL LOG] update_host_mtx : 135 ms
[OGL LOG] matrix is not yet sorted, sorting host matrix
[OGL LOG] sort_host_mtx_sparsity_pattern : 199 ms
[OGL LOG] sort_host_mtx : 125 ms
[OGL LOG] init_preconditioner : 0 ms
[OGL LOG] solve : 1355 ms
noneompGKOBiCGStab:  Solving for Ux, Initial residual = 0.102638, Final residual = 8.5047e-07, No Iterations 45
[OGL LOG] init_host_sparsity_pattern : 267 ms
[OGL LOG] matrix not stored update host matrix
[OGL LOG] update_host_mtx : 126 ms
[OGL LOG] matrix is not yet sorted, sorting host matrix
[OGL LOG] sort_host_mtx_sparsity_pattern : 192 ms
[OGL LOG] sort_host_mtx : 124 ms
[OGL LOG] init_preconditioner : 0 ms
[OGL LOG] solve : 1530 ms
noneompGKOBiCGStab:  Solving for Uy, Initial residual = 0.396946, Final residual = 6.08013e-07, No Iterations 51
[OGL LOG] init_host_sparsity_pattern : 266 ms
[OGL LOG] matrix not stored update host matrix
[OGL LOG] update_host_mtx : 126 ms
[OGL LOG] matrix is not yet sorted, sorting host matrix
[OGL LOG] sort_host_mtx_sparsity_pattern : 192 ms
[OGL LOG] sort_host_mtx : 124 ms
[OGL LOG] init_preconditioner : 0 ms
[OGL LOG] solve : 1542 ms
noneompGKOBiCGStab:  Solving for Uz, Initial residual = 1.00087, Final residual = 8.94214e-07, No Iterations 51
[OGL LOG] init_preconditioner : 0 ms
[OGL LOG] solve : 14019 ms
noneompGKOCG:  Solving for p, Initial residual = 0.832647, Final residual = 9.53375e-07, No Iterations 890
time step continuity errors : sum local = 9.18405e-10, global = -3.30325e-22, cumulative = 8.1491e-21
[OGL LOG] init_preconditioner : 0 ms
[OGL LOG] solve : 13906 ms
noneompGKOCG:  Solving for p, Initial residual = 0.802906, Final residual = 9.87882e-07, No Iterations 888
time step continuity errors : sum local = 9.27852e-10, global = 1.31163e-21, cumulative = 9.46073e-21
ExecutionTime = 399.51 s  ClockTime = 117 s

Time = 0.004

Courant Number mean: 0.0995267 max: 0.926351
[OGL LOG] init_host_sparsity_pattern : 267 ms
[OGL LOG] matrix not stored update host matrix
[OGL LOG] update_host_mtx : 134 ms
[OGL LOG] matrix is not yet sorted, sorting host matrix
[OGL LOG] sort_host_mtx_sparsity_pattern : 205 ms
[OGL LOG] sort_host_mtx : 125 ms
[OGL LOG] init_preconditioner : 0 ms
[OGL LOG] solve : 1323 ms
noneompGKOBiCGStab:  Solving for Ux, Initial residual = 0.0541604, Final residual = 8.28634e-07, No Iterations 44
[OGL LOG] init_host_sparsity_pattern : 266 ms
[OGL LOG] matrix not stored update host matrix
[OGL LOG] update_host_mtx : 127 ms
[OGL LOG] matrix is not yet sorted, sorting host matrix
[OGL LOG] sort_host_mtx_sparsity_pattern : 193 ms
[OGL LOG] sort_host_mtx : 125 ms
[OGL LOG] init_preconditioner : 0 ms
[OGL LOG] solve : 1532 ms
noneompGKOBiCGStab:  Solving for Uy, Initial residual = 0.255021, Final residual = 6.49086e-07, No Iterations 50
[OGL LOG] init_host_sparsity_pattern : 289 ms
[OGL LOG] matrix not stored update host matrix
[OGL LOG] update_host_mtx : 146 ms
[OGL LOG] matrix is not yet sorted, sorting host matrix
[OGL LOG] sort_host_mtx_sparsity_pattern : 198 ms
[OGL LOG] sort_host_mtx : 124 ms
[OGL LOG] init_preconditioner : 0 ms
[OGL LOG] solve : 1624 ms
noneompGKOBiCGStab:  Solving for Uz, Initial residual = 0.873009, Final residual = 9.41654e-07, No Iterations 52
[OGL LOG] init_preconditioner : 0 ms
[OGL LOG] solve : 13495 ms
noneompGKOCG:  Solving for p, Initial residual = 0.75017, Final residual = 9.60572e-07, No Iterations 889
time step continuity errors : sum local = 8.54775e-10, global = 1.706e-20, cumulative = 2.65208e-20
[OGL LOG] init_preconditioner : 0 ms
[OGL LOG] solve : 13325 ms
noneompGKOCG:  Solving for p, Initial residual = 0.685317, Final residual = 9.86321e-07, No Iterations 886
time step continuity errors : sum local = 8.94297e-10, global = -3.15313e-20, cumulative = -5.01049e-21
ExecutionTime = 528 s  ClockTime = 152 s

Time = 0.005

Courant Number mean: 0.112163 max: 0.946348
[OGL LOG] init_host_sparsity_pattern : 267 ms
[OGL LOG] matrix not stored update host matrix
[OGL LOG] update_host_mtx : 133 ms
[OGL LOG] matrix is not yet sorted, sorting host matrix
[OGL LOG] sort_host_mtx_sparsity_pattern : 200 ms
[OGL LOG] sort_host_mtx : 127 ms
[OGL LOG] init_preconditioner : 0 ms
[OGL LOG] solve : 1421 ms
noneompGKOBiCGStab:  Solving for Ux, Initial residual = 0.0411814, Final residual = 4.07489e-07, No Iterations 47
[OGL LOG] init_host_sparsity_pattern : 266 ms
[OGL LOG] matrix not stored update host matrix
[OGL LOG] update_host_mtx : 126 ms
[OGL LOG] matrix is not yet sorted, sorting host matrix
[OGL LOG] sort_host_mtx_sparsity_pattern : 195 ms
[OGL LOG] sort_host_mtx : 126 ms
[OGL LOG] init_preconditioner : 0 ms
[OGL LOG] solve : 1393 ms
noneompGKOBiCGStab:  Solving for Uy, Initial residual = 0.131859, Final residual = 7.16011e-07, No Iterations 46
[OGL LOG] init_host_sparsity_pattern : 267 ms
[OGL LOG] matrix not stored update host matrix
[OGL LOG] update_host_mtx : 127 ms
[OGL LOG] matrix is not yet sorted, sorting host matrix
[OGL LOG] sort_host_mtx_sparsity_pattern : 195 ms
[OGL LOG] sort_host_mtx : 127 ms
[OGL LOG] init_preconditioner : 0 ms
[OGL LOG] solve : 1575 ms
noneompGKOBiCGStab:  Solving for Uz, Initial residual = 0.871791, Final residual = 6.41086e-07, No Iterations 52
[OGL LOG] init_preconditioner : 0 ms
[OGL LOG] solve : 13841 ms
noneompGKOCG:  Solving for p, Initial residual = 0.760002, Final residual = 9.5043e-07, No Iterations 896
time step continuity errors : sum local = 7.18632e-10, global = -1.11675e-20, cumulative = -1.6178e-20
[OGL LOG] init_preconditioner : 0 ms
[OGL LOG] solve : 13227 ms
noneompGKOCG:  Solving for p, Initial residual = 0.713347, Final residual = 9.74405e-07, No Iterations 894
time step continuity errors : sum local = 7.25001e-10, global = 5.16269e-21, cumulative = -1.10153e-20
ExecutionTime = 657.01 s  ClockTime = 187 s

End

