/*---------------------------------------------------------------------------*\
  =========                 |
  \\      /  F ield         | OpenFOAM: The Open Source CFD Toolbox
   \\    /   O peration     | Website:  https://openfoam.org
    \\  /    A nd           | Version:  8
     \\/     M anipulation  |
\*---------------------------------------------------------------------------*/
Build  : 8-13d66902f78c
Exec   : icoFoam
Date   : Jul 14 2021
Time   : 01:50:44
Host   : "uc2n477.localdomain"
PID    : 2919530
I/O    : uncollated
Case   : /pfs/data5/home/kit/scc/nq7776/code/OGL_DATA/lidDrivenCavity3D/v0.1-136-g40fef35/f584ccac99/IntelXeonGold6230CPU@2.10GHz/Test_2021-07-14-00:33:42/75/p-U-CG-GKO-BJ-omp/lidDrivenCavity3D
nProcs : 1
sigFpe : Enabling floating point exception trapping (FOAM_SIGFPE).
fileModificationChecking : Monitoring run-time modified files using timeStampMaster (fileModificationSkew 10)
allowSystemOperations : Allowing user-supplied system call operations

// * * * * * * * * * * * * * * * * * * * * * * * * * * * * * * * * * * * * * //
Create time

Create mesh for time = 0

Reading transportProperties

Reading field p

Reading field U

Reading/calculating face flux field phi


Starting time loop

Time = 0.00133333

Courant Number mean: 0 max: 0
[OGL LOG] init_host_sparsity_pattern : 120 ms
[OGL LOG] matrix not stored update host matrix
[OGL LOG] update_host_mtx : 61 ms
[OGL LOG] matrix is not yet sorted, compute sorting idxs
[OGL LOG] compute_sort : 3341 ms
[OGL LOG] matrix is not yet sorted, sorting host matrix
[OGL LOG] sort_host_mtx_sparsity_pattern : 78 ms
[OGL LOG] sort_host_mtx : 53 ms
[OGL LOG] init_preconditioner : 18 ms
[OGL LOG] solve : 720 ms
BJompGKOBiCGStab:  Solving for Ux, Initial residual = 1, Final residual = 8.05502e-07, No Iterations 44
[OGL LOG] init_host_sparsity_pattern : 116 ms
[OGL LOG] matrix not stored update host matrix
[OGL LOG] update_host_mtx : 61 ms
[OGL LOG] matrix is not yet sorted, sorting host matrix
[OGL LOG] sort_host_mtx_sparsity_pattern : 80 ms
[OGL LOG] sort_host_mtx : 43 ms
[OGL LOG] init_preconditioner : 21 ms
[OGL LOG] solve : 16 ms
BJompGKOBiCGStab:  Solving for Uy, Initial residual = 0, Final residual = 0, No Iterations 0
[OGL LOG] init_host_sparsity_pattern : 112 ms
[OGL LOG] matrix not stored update host matrix
[OGL LOG] update_host_mtx : 53 ms
[OGL LOG] matrix is not yet sorted, sorting host matrix
[OGL LOG] sort_host_mtx_sparsity_pattern : 76 ms
[OGL LOG] sort_host_mtx : 47 ms
[OGL LOG] init_preconditioner : 19 ms
[OGL LOG] solve : 16 ms
BJompGKOBiCGStab:  Solving for Uz, Initial residual = 0, Final residual = 0, No Iterations 0
[OGL LOG] init_host_sparsity_pattern : 117 ms
[OGL LOG] matrix not stored update host matrix
[OGL LOG] update_host_mtx : 68 ms
[OGL LOG] matrix is not yet sorted, sorting host matrix
[OGL LOG] sort_host_mtx_sparsity_pattern : 82 ms
[OGL LOG] sort_host_mtx : 43 ms
[OGL LOG] init_preconditioner : 19 ms
 CG create  precond 
[OGL LOG] solve : 5569 ms
BJompGKOCG:  Solving for p, Initial residual = 1, Final residual = 9.70497e-07, No Iterations 661
time step continuity errors : sum local = 8.86458e-10, global = 2.60401e-21, cumulative = 2.60401e-21
[OGL LOG] init_preconditioner : 0 ms
 CG create  precond 
[OGL LOG] solve : 5453 ms
BJompGKOCG:  Solving for p, Initial residual = 0.759326, Final residual = 9.84959e-07, No Iterations 656
time step continuity errors : sum local = 1.1517e-09, global = -1.77714e-21, cumulative = 8.26868e-22
ExecutionTime = 101.39 s  ClockTime = 19 s

Time = 0.00266667

Courant Number mean: 0.0631769 max: 0.775391
[OGL LOG] init_host_sparsity_pattern : 112 ms
[OGL LOG] matrix not stored update host matrix
[OGL LOG] update_host_mtx : 63 ms
[OGL LOG] matrix is not yet sorted, sorting host matrix
[OGL LOG] sort_host_mtx_sparsity_pattern : 94 ms
[OGL LOG] sort_host_mtx : 43 ms
[OGL LOG] init_preconditioner : 0 ms
[OGL LOG] solve : 825 ms
BJompGKOBiCGStab:  Solving for Ux, Initial residual = 0.18303, Final residual = 8.2487e-07, No Iterations 47
[OGL LOG] init_host_sparsity_pattern : 115 ms
[OGL LOG] matrix not stored update host matrix
[OGL LOG] update_host_mtx : 54 ms
[OGL LOG] matrix is not yet sorted, sorting host matrix
[OGL LOG] sort_host_mtx_sparsity_pattern : 73 ms
[OGL LOG] sort_host_mtx : 43 ms
[OGL LOG] init_preconditioner : 0 ms
[OGL LOG] solve : 751 ms
BJompGKOBiCGStab:  Solving for Uy, Initial residual = 0.619628, Final residual = 8.72479e-07, No Iterations 43
[OGL LOG] init_host_sparsity_pattern : 112 ms
[OGL LOG] matrix not stored update host matrix
[OGL LOG] update_host_mtx : 53 ms
[OGL LOG] matrix is not yet sorted, sorting host matrix
[OGL LOG] sort_host_mtx_sparsity_pattern : 72 ms
[OGL LOG] sort_host_mtx : 43 ms
[OGL LOG] init_preconditioner : 0 ms
[OGL LOG] solve : 826 ms
BJompGKOBiCGStab:  Solving for Uz, Initial residual = 0.604713, Final residual = 9.44771e-07, No Iterations 45
[OGL LOG] init_preconditioner : 0 ms
 CG create  precond 
[OGL LOG] solve : 5553 ms
BJompGKOCG:  Solving for p, Initial residual = 0.749121, Final residual = 9.66845e-07, No Iterations 641
time step continuity errors : sum local = 1.85884e-09, global = -4.71998e-21, cumulative = -3.89311e-21
[OGL LOG] init_preconditioner : 0 ms
 CG create  precond 
[OGL LOG] solve : 5434 ms
BJompGKOCG:  Solving for p, Initial residual = 0.683903, Final residual = 9.85237e-07, No Iterations 637
time step continuity errors : sum local = 1.4467e-09, global = 9.10745e-21, cumulative = 5.21434e-21
ExecutionTime = 209.58 s  ClockTime = 33 s

Time = 0.004

Courant Number mean: 0.095146 max: 0.917122
[OGL LOG] init_host_sparsity_pattern : 112 ms
[OGL LOG] matrix not stored update host matrix
[OGL LOG] update_host_mtx : 62 ms
[OGL LOG] matrix is not yet sorted, sorting host matrix
[OGL LOG] sort_host_mtx_sparsity_pattern : 75 ms
[OGL LOG] sort_host_mtx : 43 ms
[OGL LOG] init_preconditioner : 0 ms
[OGL LOG] solve : 724 ms
BJompGKOBiCGStab:  Solving for Ux, Initial residual = 0.101942, Final residual = 5.48004e-07, No Iterations 43
[OGL LOG] init_host_sparsity_pattern : 112 ms
[OGL LOG] matrix not stored update host matrix
[OGL LOG] update_host_mtx : 53 ms
[OGL LOG] matrix is not yet sorted, sorting host matrix
[OGL LOG] sort_host_mtx_sparsity_pattern : 72 ms
[OGL LOG] sort_host_mtx : 43 ms
[OGL LOG] init_preconditioner : 0 ms
[OGL LOG] solve : 749 ms
BJompGKOBiCGStab:  Solving for Uy, Initial residual = 0.335433, Final residual = 8.72685e-07, No Iterations 44
[OGL LOG] init_host_sparsity_pattern : 114 ms
[OGL LOG] matrix not stored update host matrix
[OGL LOG] update_host_mtx : 57 ms
[OGL LOG] matrix is not yet sorted, sorting host matrix
[OGL LOG] sort_host_mtx_sparsity_pattern : 72 ms
[OGL LOG] sort_host_mtx : 43 ms
[OGL LOG] init_preconditioner : 0 ms
[OGL LOG] solve : 741 ms
BJompGKOBiCGStab:  Solving for Uz, Initial residual = 0.920737, Final residual = 7.2819e-07, No Iterations 43
[OGL LOG] init_preconditioner : 0 ms
 CG create  precond 
[OGL LOG] solve : 5591 ms
BJompGKOCG:  Solving for p, Initial residual = 0.754748, Final residual = 9.93853e-07, No Iterations 655
time step continuity errors : sum local = 1.48304e-09, global = -8.88587e-21, cumulative = -3.67153e-21
[OGL LOG] init_preconditioner : 0 ms
 CG create  precond 
[OGL LOG] solve : 5539 ms
BJompGKOCG:  Solving for p, Initial residual = 0.717012, Final residual = 9.82016e-07, No Iterations 654
time step continuity errors : sum local = 1.14481e-09, global = 2.71868e-20, cumulative = 2.35153e-20
ExecutionTime = 317.58 s  ClockTime = 48 s

Time = 0.00533333

Courant Number mean: 0.109256 max: 0.91346
[OGL LOG] init_host_sparsity_pattern : 112 ms
[OGL LOG] matrix not stored update host matrix
[OGL LOG] update_host_mtx : 55 ms
[OGL LOG] matrix is not yet sorted, sorting host matrix
[OGL LOG] sort_host_mtx_sparsity_pattern : 77 ms
[OGL LOG] sort_host_mtx : 43 ms
[OGL LOG] init_preconditioner : 0 ms
[OGL LOG] solve : 678 ms
BJompGKOBiCGStab:  Solving for Ux, Initial residual = 0.0446959, Final residual = 7.67742e-07, No Iterations 41
[OGL LOG] init_host_sparsity_pattern : 115 ms
[OGL LOG] matrix not stored update host matrix
[OGL LOG] update_host_mtx : 53 ms
[OGL LOG] matrix is not yet sorted, sorting host matrix
[OGL LOG] sort_host_mtx_sparsity_pattern : 72 ms
[OGL LOG] sort_host_mtx : 43 ms
[OGL LOG] init_preconditioner : 0 ms
[OGL LOG] solve : 719 ms
BJompGKOBiCGStab:  Solving for Uy, Initial residual = 0.197564, Final residual = 7.37147e-07, No Iterations 43
[OGL LOG] init_host_sparsity_pattern : 112 ms
[OGL LOG] matrix not stored update host matrix
[OGL LOG] update_host_mtx : 53 ms
[OGL LOG] matrix is not yet sorted, sorting host matrix
[OGL LOG] sort_host_mtx_sparsity_pattern : 72 ms
[OGL LOG] sort_host_mtx : 43 ms
[OGL LOG] init_preconditioner : 0 ms
[OGL LOG] solve : 664 ms
BJompGKOBiCGStab:  Solving for Uz, Initial residual = 0.732497, Final residual = 4.30545e-07, No Iterations 40
[OGL LOG] init_preconditioner : 0 ms
 CG create  precond 
[OGL LOG] solve : 5551 ms
BJompGKOCG:  Solving for p, Initial residual = 0.617349, Final residual = 9.48776e-07, No Iterations 655
time step continuity errors : sum local = 1.13838e-09, global = -1.99007e-21, cumulative = 2.15252e-20
[OGL LOG] init_preconditioner : 0 ms
 CG create  precond 
[OGL LOG] solve : 5525 ms
BJompGKOCG:  Solving for p, Initial residual = 0.554743, Final residual = 9.70517e-07, No Iterations 653
time step continuity errors : sum local = 1.04448e-09, global = -1.07242e-20, cumulative = 1.0801e-20
ExecutionTime = 423.91 s  ClockTime = 62 s

Time = 0.00666667

Courant Number mean: 0.122084 max: 0.929107
[OGL LOG] init_host_sparsity_pattern : 112 ms
[OGL LOG] matrix not stored update host matrix
[OGL LOG] update_host_mtx : 55 ms
[OGL LOG] matrix is not yet sorted, sorting host matrix
[OGL LOG] sort_host_mtx_sparsity_pattern : 79 ms
[OGL LOG] sort_host_mtx : 43 ms
[OGL LOG] init_preconditioner : 0 ms
[OGL LOG] solve : 589 ms
BJompGKOBiCGStab:  Solving for Ux, Initial residual = 0.0319067, Final residual = 9.19399e-07, No Iterations 35
[OGL LOG] init_host_sparsity_pattern : 112 ms
[OGL LOG] matrix not stored update host matrix
[OGL LOG] update_host_mtx : 53 ms
[OGL LOG] matrix is not yet sorted, sorting host matrix
[OGL LOG] sort_host_mtx_sparsity_pattern : 72 ms
[OGL LOG] sort_host_mtx : 43 ms
[OGL LOG] init_preconditioner : 0 ms
[OGL LOG] solve : 548 ms
BJompGKOBiCGStab:  Solving for Uy, Initial residual = 0.0804624, Final residual = 9.95316e-07, No Iterations 33
[OGL LOG] init_host_sparsity_pattern : 112 ms
[OGL LOG] matrix not stored update host matrix
[OGL LOG] update_host_mtx : 53 ms
[OGL LOG] matrix is not yet sorted, sorting host matrix
[OGL LOG] sort_host_mtx_sparsity_pattern : 72 ms
[OGL LOG] sort_host_mtx : 43 ms
[OGL LOG] init_preconditioner : 0 ms
[OGL LOG] solve : 766 ms
BJompGKOBiCGStab:  Solving for Uz, Initial residual = 0.513475, Final residual = 8.75886e-07, No Iterations 46
[OGL LOG] init_preconditioner : 0 ms
 CG create  precond 
[OGL LOG] solve : 5559 ms
BJompGKOCG:  Solving for p, Initial residual = 0.591987, Final residual = 9.77561e-07, No Iterations 657
time step continuity errors : sum local = 9.20786e-10, global = 2.39135e-20, cumulative = 3.47145e-20
[OGL LOG] init_preconditioner : 0 ms
 CG create  precond 
[OGL LOG] solve : 5560 ms
BJompGKOCG:  Solving for p, Initial residual = 0.54311, Final residual = 9.61021e-07, No Iterations 656
time step continuity errors : sum local = 8.19396e-10, global = -7.90167e-21, cumulative = 2.68128e-20
ExecutionTime = 529.32 s  ClockTime = 77 s

End

