/*---------------------------------------------------------------------------*\
  =========                 |
  \\      /  F ield         | OpenFOAM: The Open Source CFD Toolbox
   \\    /   O peration     | Website:  https://openfoam.org
    \\  /    A nd           | Version:  8
     \\/     M anipulation  |
\*---------------------------------------------------------------------------*/
Build  : 8-13d66902f78c
Exec   : icoFoam
Date   : Jul 13 2021
Time   : 23:06:21
Host   : "uc2n525.localdomain"
PID    : 3759226
I/O    : uncollated
Case   : /pfs/data5/home/kit/scc/nq7776/code/OGL_DATA/lidDrivenCavity3D/v0.1-136-g40fef35/f584ccac99/IntelXeonGold6230CPU@2.10GHz/Test_2021-07-13-22:16:26/75/p-BiCGStab-GKO-none-omp/lidDrivenCavity3D
nProcs : 1
sigFpe : Enabling floating point exception trapping (FOAM_SIGFPE).
fileModificationChecking : Monitoring run-time modified files using timeStampMaster (fileModificationSkew 10)
allowSystemOperations : Allowing user-supplied system call operations

// * * * * * * * * * * * * * * * * * * * * * * * * * * * * * * * * * * * * * //
Create time

Create mesh for time = 0

Reading transportProperties

Reading field p

Reading field U

Reading/calculating face flux field phi


Starting time loop

Time = 0.00133333

Courant Number mean: 0 max: 0
nonePBiCGStab:  Solving for Ux, Initial residual = 1, Final residual = 0.0730209, No Iterations 5
nonePBiCGStab:  Solving for Uy, Initial residual = 0, Final residual = 0, No Iterations 0
nonePBiCGStab:  Solving for Uz, Initial residual = 0, Final residual = 0, No Iterations 0
[OGL LOG] init_host_sparsity_pattern : 125 ms
[OGL LOG] matrix not stored update host matrix
[OGL LOG] update_host_mtx : 63 ms
[OGL LOG] matrix is not yet sorted, compute sorting idxs
[OGL LOG] compute_sort : 3335 ms
[OGL LOG] matrix is not yet sorted, sorting host matrix
[OGL LOG] sort_host_mtx_sparsity_pattern : 80 ms
[OGL LOG] sort_host_mtx : 51 ms
[OGL LOG] init_preconditioner : 0 ms
[OGL LOG] solve : 5359 ms
noneompGKOBiCGStab:  Solving for p, Initial residual = 1, Final residual = 8.1714e-07, No Iterations 521
time step continuity errors : sum local = 7.73612e-09, global = 7.57635e-21, cumulative = 7.57635e-21
[OGL LOG] init_preconditioner : 0 ms
[OGL LOG] solve : 5447 ms
noneompGKOBiCGStab:  Solving for p, Initial residual = 0.697113, Final residual = 5.13948e-07, No Iterations 536
time step continuity errors : sum local = 4.621e-07, global = 8.22901e-21, cumulative = 1.58054e-20
ExecutionTime = 91.9 s  ClockTime = 17 s

Time = 0.00266667

Courant Number mean: 0.0508076 max: 0.767258
nonePBiCGStab:  Solving for Ux, Initial residual = 0.140583, Final residual = 0.0324479, No Iterations 5
nonePBiCGStab:  Solving for Uy, Initial residual = 0.413632, Final residual = 0.0925762, No Iterations 5
nonePBiCGStab:  Solving for Uz, Initial residual = 0.981158, Final residual = 0.251264, No Iterations 5
[OGL LOG] init_preconditioner : 0 ms
[OGL LOG] solve : 5717 ms
noneompGKOBiCGStab:  Solving for p, Initial residual = 0.746737, Final residual = 9.91355e-07, No Iterations 551
time step continuity errors : sum local = 5.23885e-09, global = -2.25182e-20, cumulative = -6.71285e-21
[OGL LOG] init_preconditioner : 0 ms
[OGL LOG] solve : 5624 ms
noneompGKOBiCGStab:  Solving for p, Initial residual = 0.667956, Final residual = 5.25785e-07, No Iterations 546
time step continuity errors : sum local = 4.36939e-08, global = 1.94977e-20, cumulative = 1.27848e-20
ExecutionTime = 183.08 s  ClockTime = 29 s

Time = 0.004

Courant Number mean: 0.0796062 max: 0.886032
nonePBiCGStab:  Solving for Ux, Initial residual = 0.0584436, Final residual = 0.0111532, No Iterations 5
nonePBiCGStab:  Solving for Uy, Initial residual = 0.172096, Final residual = 0.0400033, No Iterations 5
nonePBiCGStab:  Solving for Uz, Initial residual = 0.610596, Final residual = 0.143057, No Iterations 5
[OGL LOG] init_preconditioner : 0 ms
[OGL LOG] solve : 5661 ms
noneompGKOBiCGStab:  Solving for p, Initial residual = 0.730234, Final residual = 5.86222e-07, No Iterations 550
time step continuity errors : sum local = 4.61732e-07, global = 5.07451e-21, cumulative = 1.78593e-20
[OGL LOG] init_preconditioner : 0 ms
[OGL LOG] solve : 5591 ms
noneompGKOBiCGStab:  Solving for p, Initial residual = 0.660903, Final residual = 6.06176e-07, No Iterations 545
time step continuity errors : sum local = 4.67928e-08, global = -8.14952e-21, cumulative = 9.70981e-21
ExecutionTime = 273.43 s  ClockTime = 41 s

Time = 0.00533333

Courant Number mean: 0.0948032 max: 0.902566
nonePBiCGStab:  Solving for Ux, Initial residual = 0.0345893, Final residual = 0.00683929, No Iterations 5
nonePBiCGStab:  Solving for Uy, Initial residual = 0.119624, Final residual = 0.0300311, No Iterations 5
nonePBiCGStab:  Solving for Uz, Initial residual = 0.388601, Final residual = 0.0861793, No Iterations 5
[OGL LOG] init_preconditioner : 0 ms
[OGL LOG] solve : 5636 ms
noneompGKOBiCGStab:  Solving for p, Initial residual = 0.609676, Final residual = 5.59915e-07, No Iterations 552
time step continuity errors : sum local = 1.40591e-07, global = 1.05349e-20, cumulative = 2.02447e-20
[OGL LOG] init_preconditioner : 0 ms
[OGL LOG] solve : 5142 ms
noneompGKOBiCGStab:  Solving for p, Initial residual = 0.520997, Final residual = 4.87968e-07, No Iterations 506
time step continuity errors : sum local = 8.502e-08, global = -5.14759e-21, cumulative = 1.50971e-20
ExecutionTime = 360.03 s  ClockTime = 52 s

Time = 0.00666667

Courant Number mean: 0.107162 max: 0.91677
nonePBiCGStab:  Solving for Ux, Initial residual = 0.0257449, Final residual = 0.00503243, No Iterations 5
nonePBiCGStab:  Solving for Uy, Initial residual = 0.0750751, Final residual = 0.0209493, No Iterations 5
nonePBiCGStab:  Solving for Uz, Initial residual = 0.215734, Final residual = 0.0503442, No Iterations 5
[OGL LOG] init_preconditioner : 0 ms
[OGL LOG] solve : 4947 ms
noneompGKOBiCGStab:  Solving for p, Initial residual = 0.629422, Final residual = 6.8073e-07, No Iterations 484
time step continuity errors : sum local = 7.9409e-10, global = 2.68276e-20, cumulative = 4.19247e-20
[OGL LOG] init_preconditioner : 0 ms
[OGL LOG] solve : 4738 ms
noneompGKOBiCGStab:  Solving for p, Initial residual = 0.552212, Final residual = 2.22522e-07, No Iterations 466
time step continuity errors : sum local = 8.16972e-08, global = -3.35406e-21, cumulative = 3.85707e-20
ExecutionTime = 437.86 s  ClockTime = 62 s

End

