/*---------------------------------------------------------------------------*\
  =========                 |
  \\      /  F ield         | OpenFOAM: The Open Source CFD Toolbox
   \\    /   O peration     | Website:  https://openfoam.org
    \\  /    A nd           | Version:  8
     \\/     M anipulation  |
\*---------------------------------------------------------------------------*/
Build  : 8-13d66902f78c
Exec   : icoFoam
Date   : Jul 14 2021
Time   : 02:08:45
Host   : "uc2n525.localdomain"
PID    : 3777895
I/O    : uncollated
Case   : /pfs/data5/home/kit/scc/nq7776/code/OGL_DATA/lidDrivenCavity3D/v0.1-136-g40fef35/f584ccac99/IntelXeonGold6230CPU@2.10GHz/Test_2021-07-14-02:08:08/25/p-U-BiCGStab-OF-none-reference/lidDrivenCavity3D
nProcs : 1
sigFpe : Enabling floating point exception trapping (FOAM_SIGFPE).
fileModificationChecking : Monitoring run-time modified files using timeStampMaster (fileModificationSkew 10)
allowSystemOperations : Allowing user-supplied system call operations

// * * * * * * * * * * * * * * * * * * * * * * * * * * * * * * * * * * * * * //
Create time

Create mesh for time = 0

Reading transportProperties

Reading field p

Reading field U

Reading/calculating face flux field phi


Starting time loop

Time = 0.004

Courant Number mean: 0 max: 0
nonePBiCGStab:  Solving for Ux, Initial residual = 1, Final residual = 7.65405e-07, No Iterations 29
nonePBiCGStab:  Solving for Uy, Initial residual = 0, Final residual = 0, No Iterations 0
nonePBiCGStab:  Solving for Uz, Initial residual = 0, Final residual = 0, No Iterations 0
nonePBiCGStab:  Solving for p, Initial residual = 1, Final residual = 7.9271e-07, No Iterations 177
time step continuity errors : sum local = 7.03366e-09, global = 6.13644e-20, cumulative = 6.13644e-20
nonePBiCGStab:  Solving for p, Initial residual = 0.644083, Final residual = 8.68134e-07, No Iterations 182
time step continuity errors : sum local = 1.08912e-08, global = 1.00458e-19, cumulative = 1.61823e-19
ExecutionTime = 0.23 s  ClockTime = 0 s

Time = 0.008

Courant Number mean: 0.0870973 max: 0.619854
nonePBiCGStab:  Solving for Ux, Initial residual = 0.155596, Final residual = 8.35631e-07, No Iterations 24
nonePBiCGStab:  Solving for Uy, Initial residual = 0.278825, Final residual = 9.735e-07, No Iterations 25
nonePBiCGStab:  Solving for Uz, Initial residual = 0.935421, Final residual = 8.30595e-07, No Iterations 27
nonePBiCGStab:  Solving for p, Initial residual = 0.528614, Final residual = 8.43394e-07, No Iterations 169
time step continuity errors : sum local = 1.01279e-08, global = -5.76022e-20, cumulative = 1.0422e-19
nonePBiCGStab:  Solving for p, Initial residual = 0.436139, Final residual = 9.28558e-07, No Iterations 167
time step continuity errors : sum local = 1.1631e-08, global = -5.33647e-20, cumulative = 5.08557e-20
ExecutionTime = 0.35 s  ClockTime = 0 s

Time = 0.012

Courant Number mean: 0.127408 max: 0.79886
nonePBiCGStab:  Solving for Ux, Initial residual = 0.0410171, Final residual = 6.91086e-07, No Iterations 21
nonePBiCGStab:  Solving for Uy, Initial residual = 0.0707777, Final residual = 8.72705e-07, No Iterations 22
nonePBiCGStab:  Solving for Uz, Initial residual = 0.155411, Final residual = 7.32931e-07, No Iterations 23
nonePBiCGStab:  Solving for p, Initial residual = 0.273218, Final residual = 6.07593e-07, No Iterations 163
time step continuity errors : sum local = 3.4908e-09, global = -5.27741e-20, cumulative = -1.91839e-21
nonePBiCGStab:  Solving for p, Initial residual = 0.222006, Final residual = 9.29534e-07, No Iterations 168
time step continuity errors : sum local = 7.79185e-09, global = -1.13715e-19, cumulative = -1.15634e-19
ExecutionTime = 0.47 s  ClockTime = 0 s

Time = 0.016

Courant Number mean: 0.145283 max: 0.827356
nonePBiCGStab:  Solving for Ux, Initial residual = 0.0207035, Final residual = 7.73256e-07, No Iterations 17
nonePBiCGStab:  Solving for Uy, Initial residual = 0.0443359, Final residual = 8.58358e-07, No Iterations 20
nonePBiCGStab:  Solving for Uz, Initial residual = 0.081826, Final residual = 9.24397e-07, No Iterations 22
nonePBiCGStab:  Solving for p, Initial residual = 0.129447, Final residual = 9.72667e-07, No Iterations 161
time step continuity errors : sum local = 8.20995e-09, global = -9.45695e-21, cumulative = -1.25091e-19
nonePBiCGStab:  Solving for p, Initial residual = 0.100657, Final residual = 8.95794e-07, No Iterations 159
time step continuity errors : sum local = 7.66439e-09, global = 9.16926e-20, cumulative = -3.3398e-20
ExecutionTime = 0.58 s  ClockTime = 0 s

Time = 0.02

Courant Number mean: 0.157111 max: 0.84597
nonePBiCGStab:  Solving for Ux, Initial residual = 0.012749, Final residual = 7.31874e-07, No Iterations 18
nonePBiCGStab:  Solving for Uy, Initial residual = 0.0265844, Final residual = 9.64883e-07, No Iterations 19
nonePBiCGStab:  Solving for Uz, Initial residual = 0.0476586, Final residual = 8.95828e-07, No Iterations 21
nonePBiCGStab:  Solving for p, Initial residual = 0.0611482, Final residual = 8.413e-07, No Iterations 155
time step continuity errors : sum local = 6.87518e-09, global = 1.47676e-19, cumulative = 1.14278e-19
nonePBiCGStab:  Solving for p, Initial residual = 0.0485994, Final residual = 5.38788e-07, No Iterations 152
time step continuity errors : sum local = 4.39763e-09, global = 6.2087e-20, cumulative = 1.76365e-19
ExecutionTime = 0.7 s  ClockTime = 0 s

End

