/*---------------------------------------------------------------------------*\
  =========                 |
  \\      /  F ield         | OpenFOAM: The Open Source CFD Toolbox
   \\    /   O peration     | Website:  https://openfoam.org
    \\  /    A nd           | Version:  8
     \\/     M anipulation  |
\*---------------------------------------------------------------------------*/
Build  : 8-13d66902f78c
Exec   : icoFoam
Date   : Jul 14 2021
Time   : 01:04:48
Host   : "uc2n553.localdomain"
PID    : 754762
I/O    : uncollated
Case   : /pfs/data5/home/kit/scc/nq7776/code/OGL_DATA/lidDrivenCavity3D/v0.1-136-g40fef35/f584ccac99/IntelXeonGold6230CPU@2.10GHz/Test_2021-07-14-00:17:39/75/p-U-CG-GKO-none-omp/lidDrivenCavity3D
nProcs : 1
sigFpe : Enabling floating point exception trapping (FOAM_SIGFPE).
fileModificationChecking : Monitoring run-time modified files using timeStampMaster (fileModificationSkew 10)
allowSystemOperations : Allowing user-supplied system call operations

// * * * * * * * * * * * * * * * * * * * * * * * * * * * * * * * * * * * * * //
Create time

Create mesh for time = 0

Reading transportProperties

Reading field p

Reading field U

Reading/calculating face flux field phi


Starting time loop

Time = 0.00133333

Courant Number mean: 0 max: 0
[OGL LOG] init_host_sparsity_pattern : 120 ms
[OGL LOG] matrix not stored update host matrix
[OGL LOG] update_host_mtx : 60 ms
[OGL LOG] matrix is not yet sorted, compute sorting idxs
[OGL LOG] compute_sort : 3340 ms
[OGL LOG] matrix is not yet sorted, sorting host matrix
[OGL LOG] sort_host_mtx_sparsity_pattern : 76 ms
[OGL LOG] sort_host_mtx : 51 ms
[OGL LOG] init_preconditioner : 0 ms
[OGL LOG] solve : 546 ms
noneompGKOBiCGStab:  Solving for Ux, Initial residual = 1, Final residual = 8.84363e-07, No Iterations 51
[OGL LOG] init_host_sparsity_pattern : 117 ms
[OGL LOG] matrix not stored update host matrix
[OGL LOG] update_host_mtx : 61 ms
[OGL LOG] matrix is not yet sorted, sorting host matrix
[OGL LOG] sort_host_mtx_sparsity_pattern : 80 ms
[OGL LOG] sort_host_mtx : 43 ms
[OGL LOG] init_preconditioner : 0 ms
[OGL LOG] solve : 14 ms
noneompGKOBiCGStab:  Solving for Uy, Initial residual = 0, Final residual = 0, No Iterations 0
[OGL LOG] init_host_sparsity_pattern : 112 ms
[OGL LOG] matrix not stored update host matrix
[OGL LOG] update_host_mtx : 53 ms
[OGL LOG] matrix is not yet sorted, sorting host matrix
[OGL LOG] sort_host_mtx_sparsity_pattern : 80 ms
[OGL LOG] sort_host_mtx : 43 ms
[OGL LOG] init_preconditioner : 0 ms
[OGL LOG] solve : 12 ms
noneompGKOBiCGStab:  Solving for Uz, Initial residual = 0, Final residual = 0, No Iterations 0
[OGL LOG] init_host_sparsity_pattern : 115 ms
[OGL LOG] matrix not stored update host matrix
[OGL LOG] update_host_mtx : 64 ms
[OGL LOG] matrix is not yet sorted, sorting host matrix
[OGL LOG] sort_host_mtx_sparsity_pattern : 80 ms
[OGL LOG] sort_host_mtx : 43 ms
[OGL LOG] init_preconditioner : 0 ms
[OGL LOG] solve : 3298 ms
noneompGKOCG:  Solving for p, Initial residual = 1, Final residual = 9.33866e-07, No Iterations 671
time step continuity errors : sum local = 8.52975e-10, global = 3.77104e-21, cumulative = 3.77104e-21
[OGL LOG] init_preconditioner : 0 ms
[OGL LOG] solve : 3000 ms
noneompGKOCG:  Solving for p, Initial residual = 0.75933, Final residual = 8.89953e-07, No Iterations 667
time step continuity errors : sum local = 1.0406e-09, global = 6.39112e-21, cumulative = 1.01622e-20
ExecutionTime = 116.74 s  ClockTime = 14 s

Time = 0.00266667

Courant Number mean: 0.0631768 max: 0.775391
[OGL LOG] init_host_sparsity_pattern : 111 ms
[OGL LOG] matrix not stored update host matrix
[OGL LOG] update_host_mtx : 64 ms
[OGL LOG] matrix is not yet sorted, sorting host matrix
[OGL LOG] sort_host_mtx_sparsity_pattern : 87 ms
[OGL LOG] sort_host_mtx : 43 ms
[OGL LOG] init_preconditioner : 0 ms
[OGL LOG] solve : 512 ms
noneompGKOBiCGStab:  Solving for Ux, Initial residual = 0.18303, Final residual = 4.42479e-07, No Iterations 48
[OGL LOG] init_host_sparsity_pattern : 111 ms
[OGL LOG] matrix not stored update host matrix
[OGL LOG] update_host_mtx : 53 ms
[OGL LOG] matrix is not yet sorted, sorting host matrix
[OGL LOG] sort_host_mtx_sparsity_pattern : 72 ms
[OGL LOG] sort_host_mtx : 43 ms
[OGL LOG] init_preconditioner : 0 ms
[OGL LOG] solve : 504 ms
noneompGKOBiCGStab:  Solving for Uy, Initial residual = 0.619628, Final residual = 6.28684e-07, No Iterations 48
[OGL LOG] init_host_sparsity_pattern : 112 ms
[OGL LOG] matrix not stored update host matrix
[OGL LOG] update_host_mtx : 54 ms
[OGL LOG] matrix is not yet sorted, sorting host matrix
[OGL LOG] sort_host_mtx_sparsity_pattern : 74 ms
[OGL LOG] sort_host_mtx : 44 ms
[OGL LOG] init_preconditioner : 0 ms
[OGL LOG] solve : 430 ms
noneompGKOBiCGStab:  Solving for Uz, Initial residual = 0.604725, Final residual = 7.45802e-07, No Iterations 44
[OGL LOG] init_preconditioner : 0 ms
[OGL LOG] solve : 3066 ms
noneompGKOCG:  Solving for p, Initial residual = 0.749121, Final residual = 9.99823e-07, No Iterations 644
time step continuity errors : sum local = 1.8961e-09, global = 1.22183e-20, cumulative = 2.23804e-20
[OGL LOG] init_preconditioner : 0 ms
[OGL LOG] solve : 3076 ms
noneompGKOCG:  Solving for p, Initial residual = 0.683903, Final residual = 9.65401e-07, No Iterations 643
time step continuity errors : sum local = 1.41482e-09, global = -7.20328e-21, cumulative = 1.51772e-20
ExecutionTime = 239.61 s  ClockTime = 23 s

Time = 0.004

Courant Number mean: 0.0951461 max: 0.917122
[OGL LOG] init_host_sparsity_pattern : 111 ms
[OGL LOG] matrix not stored update host matrix
[OGL LOG] update_host_mtx : 57 ms
[OGL LOG] matrix is not yet sorted, sorting host matrix
[OGL LOG] sort_host_mtx_sparsity_pattern : 85 ms
[OGL LOG] sort_host_mtx : 43 ms
[OGL LOG] init_preconditioner : 0 ms
[OGL LOG] solve : 463 ms
noneompGKOBiCGStab:  Solving for Ux, Initial residual = 0.101942, Final residual = 8.76256e-07, No Iterations 43
[OGL LOG] init_host_sparsity_pattern : 112 ms
[OGL LOG] matrix not stored update host matrix
[OGL LOG] update_host_mtx : 53 ms
[OGL LOG] matrix is not yet sorted, sorting host matrix
[OGL LOG] sort_host_mtx_sparsity_pattern : 72 ms
[OGL LOG] sort_host_mtx : 43 ms
[OGL LOG] init_preconditioner : 0 ms
[OGL LOG] solve : 450 ms
noneompGKOBiCGStab:  Solving for Uy, Initial residual = 0.335432, Final residual = 4.83386e-07, No Iterations 43
[OGL LOG] init_host_sparsity_pattern : 112 ms
[OGL LOG] matrix not stored update host matrix
[OGL LOG] update_host_mtx : 54 ms
[OGL LOG] matrix is not yet sorted, sorting host matrix
[OGL LOG] sort_host_mtx_sparsity_pattern : 74 ms
[OGL LOG] sort_host_mtx : 44 ms
[OGL LOG] init_preconditioner : 0 ms
[OGL LOG] solve : 453 ms
noneompGKOBiCGStab:  Solving for Uz, Initial residual = 0.92071, Final residual = 8.12971e-07, No Iterations 46
[OGL LOG] init_preconditioner : 0 ms
[OGL LOG] solve : 3122 ms
noneompGKOCG:  Solving for p, Initial residual = 0.754749, Final residual = 9.7335e-07, No Iterations 663
time step continuity errors : sum local = 1.45208e-09, global = 1.68557e-20, cumulative = 3.20329e-20
[OGL LOG] init_preconditioner : 0 ms
[OGL LOG] solve : 3187 ms
noneompGKOCG:  Solving for p, Initial residual = 0.717013, Final residual = 9.89107e-07, No Iterations 661
time step continuity errors : sum local = 1.14735e-09, global = -1.3586e-20, cumulative = 1.84469e-20
ExecutionTime = 363.95 s  ClockTime = 32 s

Time = 0.00533333

Courant Number mean: 0.109256 max: 0.91346
[OGL LOG] init_host_sparsity_pattern : 111 ms
[OGL LOG] matrix not stored update host matrix
[OGL LOG] update_host_mtx : 57 ms
[OGL LOG] matrix is not yet sorted, sorting host matrix
[OGL LOG] sort_host_mtx_sparsity_pattern : 80 ms
[OGL LOG] sort_host_mtx : 43 ms
[OGL LOG] init_preconditioner : 0 ms
[OGL LOG] solve : 384 ms
noneompGKOBiCGStab:  Solving for Ux, Initial residual = 0.0446957, Final residual = 8.57605e-07, No Iterations 39
[OGL LOG] init_host_sparsity_pattern : 117 ms
[OGL LOG] matrix not stored update host matrix
[OGL LOG] update_host_mtx : 60 ms
[OGL LOG] matrix is not yet sorted, sorting host matrix
[OGL LOG] sort_host_mtx_sparsity_pattern : 76 ms
[OGL LOG] sort_host_mtx : 43 ms
[OGL LOG] init_preconditioner : 0 ms
[OGL LOG] solve : 399 ms
noneompGKOBiCGStab:  Solving for Uy, Initial residual = 0.197564, Final residual = 6.15997e-07, No Iterations 41
[OGL LOG] init_host_sparsity_pattern : 113 ms
[OGL LOG] matrix not stored update host matrix
[OGL LOG] update_host_mtx : 53 ms
[OGL LOG] matrix is not yet sorted, sorting host matrix
[OGL LOG] sort_host_mtx_sparsity_pattern : 72 ms
[OGL LOG] sort_host_mtx : 43 ms
[OGL LOG] init_preconditioner : 0 ms
[OGL LOG] solve : 421 ms
noneompGKOBiCGStab:  Solving for Uz, Initial residual = 0.732452, Final residual = 6.02224e-07, No Iterations 44
[OGL LOG] init_preconditioner : 0 ms
[OGL LOG] solve : 3165 ms
noneompGKOCG:  Solving for p, Initial residual = 0.61735, Final residual = 9.8327e-07, No Iterations 661
time step continuity errors : sum local = 1.17028e-09, global = -1.39733e-20, cumulative = 4.47362e-21
[OGL LOG] init_preconditioner : 0 ms
[OGL LOG] solve : 3168 ms
noneompGKOCG:  Solving for p, Initial residual = 0.554745, Final residual = 9.82037e-07, No Iterations 659
time step continuity errors : sum local = 1.05395e-09, global = 5.23033e-21, cumulative = 9.70395e-21
ExecutionTime = 486.03 s  ClockTime = 41 s

Time = 0.00666667

Courant Number mean: 0.122085 max: 0.929107
[OGL LOG] init_host_sparsity_pattern : 111 ms
[OGL LOG] matrix not stored update host matrix
[OGL LOG] update_host_mtx : 56 ms
[OGL LOG] matrix is not yet sorted, sorting host matrix
[OGL LOG] sort_host_mtx_sparsity_pattern : 79 ms
[OGL LOG] sort_host_mtx : 43 ms
[OGL LOG] init_preconditioner : 0 ms
[OGL LOG] solve : 366 ms
noneompGKOBiCGStab:  Solving for Ux, Initial residual = 0.0319066, Final residual = 9.82279e-07, No Iterations 38
[OGL LOG] init_host_sparsity_pattern : 111 ms
[OGL LOG] matrix not stored update host matrix
[OGL LOG] update_host_mtx : 53 ms
[OGL LOG] matrix is not yet sorted, sorting host matrix
[OGL LOG] sort_host_mtx_sparsity_pattern : 72 ms
[OGL LOG] sort_host_mtx : 43 ms
[OGL LOG] init_preconditioner : 0 ms
[OGL LOG] solve : 380 ms
noneompGKOBiCGStab:  Solving for Uy, Initial residual = 0.0804626, Final residual = 3.64656e-07, No Iterations 40
[OGL LOG] init_host_sparsity_pattern : 112 ms
[OGL LOG] matrix not stored update host matrix
[OGL LOG] update_host_mtx : 53 ms
[OGL LOG] matrix is not yet sorted, sorting host matrix
[OGL LOG] sort_host_mtx_sparsity_pattern : 72 ms
[OGL LOG] sort_host_mtx : 43 ms
[OGL LOG] init_preconditioner : 0 ms
[OGL LOG] solve : 412 ms
noneompGKOBiCGStab:  Solving for Uz, Initial residual = 0.51345, Final residual = 7.91517e-07, No Iterations 42
[OGL LOG] init_preconditioner : 0 ms
[OGL LOG] solve : 3275 ms
noneompGKOCG:  Solving for p, Initial residual = 0.591988, Final residual = 9.74459e-07, No Iterations 666
time step continuity errors : sum local = 9.15142e-10, global = -7.12555e-21, cumulative = 2.5784e-21
[OGL LOG] init_preconditioner : 0 ms
[OGL LOG] solve : 3099 ms
noneompGKOCG:  Solving for p, Initial residual = 0.543111, Final residual = 8.98921e-07, No Iterations 666
time step continuity errors : sum local = 7.66536e-10, global = -1.89589e-20, cumulative = -1.63805e-20
ExecutionTime = 608.02 s  ClockTime = 50 s

End

