/*---------------------------------------------------------------------------*\
  =========                 |
  \\      /  F ield         | OpenFOAM: The Open Source CFD Toolbox
   \\    /   O peration     | Website:  https://openfoam.org
    \\  /    A nd           | Version:  8
     \\/     M anipulation  |
\*---------------------------------------------------------------------------*/
Build  : 8-13d66902f78c
Exec   : icoFoam
Date   : Jul 13 2021
Time   : 23:22:42
Host   : "uc2n525.localdomain"
PID    : 3760697
I/O    : uncollated
Case   : /pfs/data5/home/kit/scc/nq7776/code/OGL_DATA/lidDrivenCavity3D/v0.1-136-g40fef35/f584ccac99/IntelXeonGold6230CPU@2.10GHz/Test_2021-07-13-22:16:26/75/p-BiCGStab-GKO-none-omp/lidDrivenCavity3D
nProcs : 1
sigFpe : Enabling floating point exception trapping (FOAM_SIGFPE).
fileModificationChecking : Monitoring run-time modified files using timeStampMaster (fileModificationSkew 10)
allowSystemOperations : Allowing user-supplied system call operations

// * * * * * * * * * * * * * * * * * * * * * * * * * * * * * * * * * * * * * //
Create time

Create mesh for time = 0

Reading transportProperties

Reading field p

Reading field U

Reading/calculating face flux field phi


Starting time loop

Time = 0.00133333

Courant Number mean: 0 max: 0
nonePBiCGStab:  Solving for Ux, Initial residual = 1, Final residual = 0.0730209, No Iterations 5
nonePBiCGStab:  Solving for Uy, Initial residual = 0, Final residual = 0, No Iterations 0
nonePBiCGStab:  Solving for Uz, Initial residual = 0, Final residual = 0, No Iterations 0
[OGL LOG] init_host_sparsity_pattern : 124 ms
[OGL LOG] matrix not stored update host matrix
[OGL LOG] update_host_mtx : 62 ms
[OGL LOG] matrix is not yet sorted, compute sorting idxs
[OGL LOG] compute_sort : 3335 ms
[OGL LOG] matrix is not yet sorted, sorting host matrix
[OGL LOG] sort_host_mtx_sparsity_pattern : 80 ms
[OGL LOG] sort_host_mtx : 52 ms
[OGL LOG] init_preconditioner : 0 ms
[OGL LOG] solve : 5825 ms
noneompGKOBiCGStab:  Solving for p, Initial residual = 1, Final residual = 8.1714e-07, No Iterations 521
time step continuity errors : sum local = 2.96482e-08, global = 7.57918e-21, cumulative = 7.57918e-21
[OGL LOG] init_preconditioner : 0 ms
[OGL LOG] solve : 5935 ms
noneompGKOBiCGStab:  Solving for p, Initial residual = 0.697111, Final residual = 8.81305e-07, No Iterations 532
time step continuity errors : sum local = 6.68775e-08, global = 2.02711e-21, cumulative = 9.60629e-21
ExecutionTime = 756.48 s  ClockTime = 17 s

Time = 0.00266667

Courant Number mean: 0.0508075 max: 0.767258
nonePBiCGStab:  Solving for Ux, Initial residual = 0.140593, Final residual = 0.0324544, No Iterations 5
nonePBiCGStab:  Solving for Uy, Initial residual = 0.413639, Final residual = 0.0923548, No Iterations 5
nonePBiCGStab:  Solving for Uz, Initial residual = 0.982957, Final residual = 0.250018, No Iterations 5
[OGL LOG] init_preconditioner : 0 ms
[OGL LOG] solve : 6676 ms
noneompGKOBiCGStab:  Solving for p, Initial residual = 0.746866, Final residual = 7.64891e-07, No Iterations 570
time step continuity errors : sum local = 2.63781e-08, global = -4.57855e-21, cumulative = 5.02774e-21
[OGL LOG] init_preconditioner : 0 ms
[OGL LOG] solve : 5288 ms
noneompGKOBiCGStab:  Solving for p, Initial residual = 0.668119, Final residual = 8.0366e-07, No Iterations 540
time step continuity errors : sum local = 2.14316e-07, global = 1.20434e-20, cumulative = 1.70712e-20
ExecutionTime = 1520.24 s  ClockTime = 30 s

Time = 0.004

Courant Number mean: 0.0796132 max: 0.890072
nonePBiCGStab:  Solving for Ux, Initial residual = 0.0584345, Final residual = 0.0111433, No Iterations 5
nonePBiCGStab:  Solving for Uy, Initial residual = 0.172033, Final residual = 0.0399273, No Iterations 5
nonePBiCGStab:  Solving for Uz, Initial residual = 0.60883, Final residual = 0.142008, No Iterations 5
[OGL LOG] init_preconditioner : 0 ms
[OGL LOG] solve : 5635 ms
noneompGKOBiCGStab:  Solving for p, Initial residual = 0.730385, Final residual = 5.78913e-07, No Iterations 527
time step continuity errors : sum local = 1.04268e-07, global = -9.87435e-21, cumulative = 7.19684e-21
[OGL LOG] init_preconditioner : 0 ms
[OGL LOG] solve : 6072 ms
noneompGKOBiCGStab:  Solving for p, Initial residual = 0.660976, Final residual = 3.2773e-07, No Iterations 530
time step continuity errors : sum local = 6.49705e-08, global = 7.79714e-21, cumulative = 1.4994e-20
ExecutionTime = 2267.84 s  ClockTime = 42 s

Time = 0.00533333

Courant Number mean: 0.0948097 max: 0.90257
nonePBiCGStab:  Solving for Ux, Initial residual = 0.0345861, Final residual = 0.0068309, No Iterations 5
nonePBiCGStab:  Solving for Uy, Initial residual = 0.119568, Final residual = 0.0298668, No Iterations 5
nonePBiCGStab:  Solving for Uz, Initial residual = 0.38635, Final residual = 0.0821961, No Iterations 5
[OGL LOG] init_preconditioner : 0 ms
[OGL LOG] solve : 6245 ms
noneompGKOBiCGStab:  Solving for p, Initial residual = 0.609816, Final residual = 6.3581e-07, No Iterations 540
time step continuity errors : sum local = 2.55728e-07, global = -1.81474e-20, cumulative = -3.15342e-21
[OGL LOG] init_preconditioner : 0 ms
[OGL LOG] solve : 3890 ms
noneompGKOBiCGStab:  Solving for p, Initial residual = 0.521185, Final residual = 9.64959e-07, No Iterations 350
time step continuity errors : sum local = 1.37065e-09, global = 1.54191e-20, cumulative = 1.22656e-20
ExecutionTime = 2915.42 s  ClockTime = 53 s

Time = 0.00666667

Courant Number mean: 0.107174 max: 0.916779
nonePBiCGStab:  Solving for Ux, Initial residual = 0.0257292, Final residual = 0.00503265, No Iterations 5
nonePBiCGStab:  Solving for Uy, Initial residual = 0.0750728, Final residual = 0.0208641, No Iterations 5
nonePBiCGStab:  Solving for Uz, Initial residual = 0.213051, Final residual = 0.0502878, No Iterations 5
[OGL LOG] init_preconditioner : 0 ms
[OGL LOG] solve : 5468 ms
noneompGKOBiCGStab:  Solving for p, Initial residual = 0.629292, Final residual = 5.22191e-07, No Iterations 471
time step continuity errors : sum local = 1.28595e-07, global = 1.34835e-20, cumulative = 2.57491e-20
[OGL LOG] init_preconditioner : 0 ms
[OGL LOG] solve : 5614 ms
noneompGKOBiCGStab:  Solving for p, Initial residual = 0.552159, Final residual = 6.2865e-07, No Iterations 483
time step continuity errors : sum local = 2.65328e-07, global = 3.11328e-22, cumulative = 2.60605e-20
ExecutionTime = 3623.36 s  ClockTime = 65 s

End

