/*---------------------------------------------------------------------------*\
  =========                 |
  \\      /  F ield         | OpenFOAM: The Open Source CFD Toolbox
   \\    /   O peration     | Website:  https://openfoam.org
    \\  /    A nd           | Version:  8
     \\/     M anipulation  |
\*---------------------------------------------------------------------------*/
Build  : 8-13d66902f78c
Exec   : icoFoam
Date   : Jul 14 2021
Time   : 00:27:46
Host   : "uc2n553.localdomain"
PID    : 751380
I/O    : uncollated
Case   : /pfs/data5/home/kit/scc/nq7776/code/OGL_DATA/lidDrivenCavity3D/v0.1-136-g40fef35/f584ccac99/IntelXeonGold6230CPU@2.10GHz/Test_2021-07-14-00:17:39/50/p-U-CG-GKO-none-omp/lidDrivenCavity3D
nProcs : 1
sigFpe : Enabling floating point exception trapping (FOAM_SIGFPE).
fileModificationChecking : Monitoring run-time modified files using timeStampMaster (fileModificationSkew 10)
allowSystemOperations : Allowing user-supplied system call operations

// * * * * * * * * * * * * * * * * * * * * * * * * * * * * * * * * * * * * * //
Create time

Create mesh for time = 0

Reading transportProperties

Reading field p

Reading field U

Reading/calculating face flux field phi


Starting time loop

Time = 0.002

Courant Number mean: 0 max: 0
[OGL LOG] init_host_sparsity_pattern : 35 ms
[OGL LOG] matrix not stored update host matrix
[OGL LOG] update_host_mtx : 18 ms
[OGL LOG] matrix is not yet sorted, compute sorting idxs
[OGL LOG] compute_sort : 909 ms
[OGL LOG] matrix is not yet sorted, sorting host matrix
[OGL LOG] sort_host_mtx_sparsity_pattern : 23 ms
[OGL LOG] sort_host_mtx : 14 ms
[OGL LOG] init_preconditioner : 0 ms
[OGL LOG] solve : 211 ms
noneompGKOBiCGStab:  Solving for Ux, Initial residual = 1, Final residual = 8.43389e-07, No Iterations 41
[OGL LOG] init_host_sparsity_pattern : 34 ms
[OGL LOG] matrix not stored update host matrix
[OGL LOG] update_host_mtx : 17 ms
[OGL LOG] matrix is not yet sorted, sorting host matrix
[OGL LOG] sort_host_mtx_sparsity_pattern : 23 ms
[OGL LOG] sort_host_mtx : 12 ms
[OGL LOG] init_preconditioner : 0 ms
[OGL LOG] solve : 6 ms
noneompGKOBiCGStab:  Solving for Uy, Initial residual = 0, Final residual = 0, No Iterations 0
[OGL LOG] init_host_sparsity_pattern : 33 ms
[OGL LOG] matrix not stored update host matrix
[OGL LOG] update_host_mtx : 15 ms
[OGL LOG] matrix is not yet sorted, sorting host matrix
[OGL LOG] sort_host_mtx_sparsity_pattern : 23 ms
[OGL LOG] sort_host_mtx : 12 ms
[OGL LOG] init_preconditioner : 0 ms
[OGL LOG] solve : 5 ms
noneompGKOBiCGStab:  Solving for Uz, Initial residual = 0, Final residual = 0, No Iterations 0
[OGL LOG] init_host_sparsity_pattern : 32 ms
[OGL LOG] matrix not stored update host matrix
[OGL LOG] update_host_mtx : 18 ms
[OGL LOG] matrix is not yet sorted, sorting host matrix
[OGL LOG] sort_host_mtx_sparsity_pattern : 22 ms
[OGL LOG] sort_host_mtx : 14 ms
[OGL LOG] init_preconditioner : 0 ms
[OGL LOG] solve : 1087 ms
noneompGKOCG:  Solving for p, Initial residual = 1, Final residual = 9.02143e-07, No Iterations 444
time step continuity errors : sum local = 1.48545e-09, global = 2.32509e-21, cumulative = 2.32509e-21
[OGL LOG] init_preconditioner : 0 ms
[OGL LOG] solve : 1047 ms
noneompGKOCG:  Solving for p, Initial residual = 0.721583, Final residual = 9.39974e-07, No Iterations 440
time step continuity errors : sum local = 2.0521e-09, global = 1.79942e-20, cumulative = 2.03192e-20
ExecutionTime = 6.63 s  ClockTime = 4 s

Time = 0.004

Courant Number mean: 0.0720722 max: 0.726639
[OGL LOG] init_host_sparsity_pattern : 33 ms
[OGL LOG] matrix not stored update host matrix
[OGL LOG] update_host_mtx : 16 ms
[OGL LOG] matrix is not yet sorted, sorting host matrix
[OGL LOG] sort_host_mtx_sparsity_pattern : 23 ms
[OGL LOG] sort_host_mtx : 13 ms
[OGL LOG] init_preconditioner : 0 ms
[OGL LOG] solve : 175 ms
noneompGKOBiCGStab:  Solving for Ux, Initial residual = 0.203465, Final residual = 7.60924e-07, No Iterations 35
[OGL LOG] init_host_sparsity_pattern : 33 ms
[OGL LOG] matrix not stored update host matrix
[OGL LOG] update_host_mtx : 15 ms
[OGL LOG] matrix is not yet sorted, sorting host matrix
[OGL LOG] sort_host_mtx_sparsity_pattern : 22 ms
[OGL LOG] sort_host_mtx : 12 ms
[OGL LOG] init_preconditioner : 0 ms
[OGL LOG] solve : 194 ms
noneompGKOBiCGStab:  Solving for Uy, Initial residual = 0.618431, Final residual = 7.81818e-07, No Iterations 39
[OGL LOG] init_host_sparsity_pattern : 33 ms
[OGL LOG] matrix not stored update host matrix
[OGL LOG] update_host_mtx : 15 ms
[OGL LOG] matrix is not yet sorted, sorting host matrix
[OGL LOG] sort_host_mtx_sparsity_pattern : 22 ms
[OGL LOG] sort_host_mtx : 12 ms
[OGL LOG] init_preconditioner : 0 ms
[OGL LOG] solve : 181 ms
noneompGKOBiCGStab:  Solving for Uz, Initial residual = 0.536266, Final residual = 9.5065e-07, No Iterations 37
[OGL LOG] init_preconditioner : 0 ms
[OGL LOG] solve : 1035 ms
noneompGKOCG:  Solving for p, Initial residual = 0.673326, Final residual = 9.97492e-07, No Iterations 433
time step continuity errors : sum local = 2.36597e-09, global = -6.86232e-21, cumulative = 1.34569e-20
[OGL LOG] init_preconditioner : 0 ms
[OGL LOG] solve : 1029 ms
noneompGKOCG:  Solving for p, Initial residual = 0.598897, Final residual = 9.78151e-07, No Iterations 433
time step continuity errors : sum local = 2.38124e-09, global = -3.29761e-20, cumulative = -1.95192e-20
ExecutionTime = 12.27 s  ClockTime = 7 s

Time = 0.006

Courant Number mean: 0.107408 max: 0.881754
[OGL LOG] init_host_sparsity_pattern : 33 ms
[OGL LOG] matrix not stored update host matrix
[OGL LOG] update_host_mtx : 17 ms
[OGL LOG] matrix is not yet sorted, sorting host matrix
[OGL LOG] sort_host_mtx_sparsity_pattern : 23 ms
[OGL LOG] sort_host_mtx : 13 ms
[OGL LOG] init_preconditioner : 0 ms
[OGL LOG] solve : 171 ms
noneompGKOBiCGStab:  Solving for Ux, Initial residual = 0.0995685, Final residual = 9.90382e-07, No Iterations 35
[OGL LOG] init_host_sparsity_pattern : 33 ms
[OGL LOG] matrix not stored update host matrix
[OGL LOG] update_host_mtx : 16 ms
[OGL LOG] matrix is not yet sorted, sorting host matrix
[OGL LOG] sort_host_mtx_sparsity_pattern : 22 ms
[OGL LOG] sort_host_mtx : 12 ms
[OGL LOG] init_preconditioner : 0 ms
[OGL LOG] solve : 180 ms
noneompGKOBiCGStab:  Solving for Uy, Initial residual = 0.24997, Final residual = 5.65352e-07, No Iterations 37
[OGL LOG] init_host_sparsity_pattern : 33 ms
[OGL LOG] matrix not stored update host matrix
[OGL LOG] update_host_mtx : 16 ms
[OGL LOG] matrix is not yet sorted, sorting host matrix
[OGL LOG] sort_host_mtx_sparsity_pattern : 22 ms
[OGL LOG] sort_host_mtx : 12 ms
[OGL LOG] init_preconditioner : 0 ms
[OGL LOG] solve : 188 ms
noneompGKOBiCGStab:  Solving for Uz, Initial residual = 0.540976, Final residual = 9.00624e-07, No Iterations 38
[OGL LOG] init_preconditioner : 0 ms
[OGL LOG] solve : 1036 ms
noneompGKOCG:  Solving for p, Initial residual = 0.606888, Final residual = 9.92332e-07, No Iterations 436
time step continuity errors : sum local = 1.68978e-09, global = 7.7361e-21, cumulative = -1.17831e-20
[OGL LOG] init_preconditioner : 0 ms
[OGL LOG] solve : 1045 ms
noneompGKOCG:  Solving for p, Initial residual = 0.560844, Final residual = 9.52149e-07, No Iterations 436
time step continuity errors : sum local = 1.56726e-09, global = -3.7823e-20, cumulative = -4.96061e-20
ExecutionTime = 17.9 s  ClockTime = 10 s

Time = 0.008

Courant Number mean: 0.123244 max: 0.890102
[OGL LOG] init_host_sparsity_pattern : 33 ms
[OGL LOG] matrix not stored update host matrix
[OGL LOG] update_host_mtx : 18 ms
[OGL LOG] matrix is not yet sorted, sorting host matrix
[OGL LOG] sort_host_mtx_sparsity_pattern : 23 ms
[OGL LOG] sort_host_mtx : 13 ms
[OGL LOG] init_preconditioner : 0 ms
[OGL LOG] solve : 155 ms
noneompGKOBiCGStab:  Solving for Ux, Initial residual = 0.0341423, Final residual = 9.05261e-07, No Iterations 31
[OGL LOG] init_host_sparsity_pattern : 33 ms
[OGL LOG] matrix not stored update host matrix
[OGL LOG] update_host_mtx : 15 ms
[OGL LOG] matrix is not yet sorted, sorting host matrix
[OGL LOG] sort_host_mtx_sparsity_pattern : 22 ms
[OGL LOG] sort_host_mtx : 12 ms
[OGL LOG] init_preconditioner : 0 ms
[OGL LOG] solve : 179 ms
noneompGKOBiCGStab:  Solving for Uy, Initial residual = 0.132381, Final residual = 9.37436e-07, No Iterations 36
[OGL LOG] init_host_sparsity_pattern : 33 ms
[OGL LOG] matrix not stored update host matrix
[OGL LOG] update_host_mtx : 15 ms
[OGL LOG] matrix is not yet sorted, sorting host matrix
[OGL LOG] sort_host_mtx_sparsity_pattern : 22 ms
[OGL LOG] sort_host_mtx : 12 ms
[OGL LOG] init_preconditioner : 0 ms
[OGL LOG] solve : 176 ms
noneompGKOBiCGStab:  Solving for Uz, Initial residual = 0.471959, Final residual = 8.60446e-07, No Iterations 36
[OGL LOG] init_preconditioner : 0 ms
[OGL LOG] solve : 1032 ms
noneompGKOCG:  Solving for p, Initial residual = 0.423038, Final residual = 9.2026e-07, No Iterations 435
time step continuity errors : sum local = 1.453e-09, global = 2.6839e-20, cumulative = -2.27671e-20
[OGL LOG] init_preconditioner : 0 ms
[OGL LOG] solve : 1032 ms
noneompGKOCG:  Solving for p, Initial residual = 0.368377, Final residual = 9.79585e-07, No Iterations 433
time step continuity errors : sum local = 1.56902e-09, global = -4.45863e-20, cumulative = -6.73534e-20
ExecutionTime = 23.45 s  ClockTime = 13 s

Time = 0.01

Courant Number mean: 0.136096 max: 0.906942
[OGL LOG] init_host_sparsity_pattern : 32 ms
[OGL LOG] matrix not stored update host matrix
[OGL LOG] update_host_mtx : 15 ms
[OGL LOG] matrix is not yet sorted, sorting host matrix
[OGL LOG] sort_host_mtx_sparsity_pattern : 22 ms
[OGL LOG] sort_host_mtx : 12 ms
[OGL LOG] init_preconditioner : 0 ms
[OGL LOG] solve : 145 ms
noneompGKOBiCGStab:  Solving for Ux, Initial residual = 0.0230738, Final residual = 9.86567e-07, No Iterations 29
[OGL LOG] init_host_sparsity_pattern : 33 ms
[OGL LOG] matrix not stored update host matrix
[OGL LOG] update_host_mtx : 15 ms
[OGL LOG] matrix is not yet sorted, sorting host matrix
[OGL LOG] sort_host_mtx_sparsity_pattern : 22 ms
[OGL LOG] sort_host_mtx : 12 ms
[OGL LOG] init_preconditioner : 0 ms
[OGL LOG] solve : 161 ms
noneompGKOBiCGStab:  Solving for Uy, Initial residual = 0.0484119, Final residual = 8.13548e-07, No Iterations 32
[OGL LOG] init_host_sparsity_pattern : 33 ms
[OGL LOG] matrix not stored update host matrix
[OGL LOG] update_host_mtx : 15 ms
[OGL LOG] matrix is not yet sorted, sorting host matrix
[OGL LOG] sort_host_mtx_sparsity_pattern : 22 ms
[OGL LOG] sort_host_mtx : 12 ms
[OGL LOG] init_preconditioner : 0 ms
[OGL LOG] solve : 178 ms
noneompGKOBiCGStab:  Solving for Uz, Initial residual = 0.159037, Final residual = 8.69108e-07, No Iterations 36
[OGL LOG] init_preconditioner : 0 ms
[OGL LOG] solve : 1034 ms
noneompGKOCG:  Solving for p, Initial residual = 0.361667, Final residual = 9.28399e-07, No Iterations 434
time step continuity errors : sum local = 1.26851e-09, global = -1.64511e-20, cumulative = -8.38045e-20
[OGL LOG] init_preconditioner : 0 ms
[OGL LOG] solve : 1030 ms
noneompGKOCG:  Solving for p, Initial residual = 0.333161, Final residual = 9.46372e-07, No Iterations 433
time step continuity errors : sum local = 1.28149e-09, global = -3.06375e-20, cumulative = -1.14442e-19
ExecutionTime = 28.94 s  ClockTime = 16 s

End

