/*---------------------------------------------------------------------------*\
  =========                 |
  \\      /  F ield         | OpenFOAM: The Open Source CFD Toolbox
   \\    /   O peration     | Website:  https://openfoam.org
    \\  /    A nd           | Version:  8
     \\/     M anipulation  |
\*---------------------------------------------------------------------------*/
Build  : 8-13d66902f78c
Exec   : icoFoam
Date   : Jul 14 2021
Time   : 02:25:18
Host   : "uc2n399.localdomain"
PID    : 4100990
I/O    : uncollated
Case   : /pfs/data5/home/kit/scc/nq7776/code/OGL_DATA/lidDrivenCavity3D/v0.1-136-g40fef35/f584ccac99/IntelXeonGold6230CPU@2.10GHz/Test_2021-07-14-01:16:21/75/p-U-BiCGStab-GKO-none-omp/lidDrivenCavity3D
nProcs : 1
sigFpe : Enabling floating point exception trapping (FOAM_SIGFPE).
fileModificationChecking : Monitoring run-time modified files using timeStampMaster (fileModificationSkew 10)
allowSystemOperations : Allowing user-supplied system call operations

// * * * * * * * * * * * * * * * * * * * * * * * * * * * * * * * * * * * * * //
Create time

Create mesh for time = 0

Reading transportProperties

Reading field p

Reading field U

Reading/calculating face flux field phi


Starting time loop

Time = 0.00133333

Courant Number mean: 0 max: 0
[OGL LOG] init_host_sparsity_pattern : 120 ms
[OGL LOG] matrix not stored update host matrix
[OGL LOG] update_host_mtx : 61 ms
[OGL LOG] matrix is not yet sorted, compute sorting idxs
[OGL LOG] compute_sort : 3337 ms
[OGL LOG] matrix is not yet sorted, sorting host matrix
[OGL LOG] sort_host_mtx_sparsity_pattern : 77 ms
[OGL LOG] sort_host_mtx : 51 ms
[OGL LOG] init_preconditioner : 0 ms
[OGL LOG] solve : 562 ms
noneompGKOBiCGStab:  Solving for Ux, Initial residual = 1, Final residual = 8.84363e-07, No Iterations 51
[OGL LOG] init_host_sparsity_pattern : 117 ms
[OGL LOG] matrix not stored update host matrix
[OGL LOG] update_host_mtx : 61 ms
[OGL LOG] matrix is not yet sorted, sorting host matrix
[OGL LOG] sort_host_mtx_sparsity_pattern : 80 ms
[OGL LOG] sort_host_mtx : 43 ms
[OGL LOG] init_preconditioner : 0 ms
[OGL LOG] solve : 14 ms
noneompGKOBiCGStab:  Solving for Uy, Initial residual = 0, Final residual = 0, No Iterations 0
[OGL LOG] init_host_sparsity_pattern : 112 ms
[OGL LOG] matrix not stored update host matrix
[OGL LOG] update_host_mtx : 53 ms
[OGL LOG] matrix is not yet sorted, sorting host matrix
[OGL LOG] sort_host_mtx_sparsity_pattern : 80 ms
[OGL LOG] sort_host_mtx : 43 ms
[OGL LOG] init_preconditioner : 0 ms
[OGL LOG] solve : 12 ms
noneompGKOBiCGStab:  Solving for Uz, Initial residual = 0, Final residual = 0, No Iterations 0
[OGL LOG] init_host_sparsity_pattern : 112 ms
[OGL LOG] matrix not stored update host matrix
[OGL LOG] update_host_mtx : 61 ms
[OGL LOG] matrix is not yet sorted, sorting host matrix
[OGL LOG] sort_host_mtx_sparsity_pattern : 86 ms
[OGL LOG] sort_host_mtx : 43 ms
[OGL LOG] init_preconditioner : 0 ms
[OGL LOG] solve : 5345 ms
noneompGKOBiCGStab:  Solving for p, Initial residual = 1, Final residual = 7.74339e-07, No Iterations 539
time step continuity errors : sum local = 7.28888e-09, global = 1.09743e-20, cumulative = 1.09743e-20
[OGL LOG] init_preconditioner : 0 ms
[OGL LOG] solve : 4675 ms
noneompGKOBiCGStab:  Solving for p, Initial residual = 0.759334, Final residual = 6.81381e-07, No Iterations 526
time step continuity errors : sum local = 1.01343e-07, global = 1.40594e-20, cumulative = 2.50337e-20
ExecutionTime = 346.35 s  ClockTime = 18 s

Time = 0.00266667

Courant Number mean: 0.0631769 max: 0.775392
[OGL LOG] init_host_sparsity_pattern : 112 ms
[OGL LOG] matrix not stored update host matrix
[OGL LOG] update_host_mtx : 55 ms
[OGL LOG] matrix is not yet sorted, sorting host matrix
[OGL LOG] sort_host_mtx_sparsity_pattern : 80 ms
[OGL LOG] sort_host_mtx : 44 ms
[OGL LOG] init_preconditioner : 0 ms
[OGL LOG] solve : 440 ms
noneompGKOBiCGStab:  Solving for Ux, Initial residual = 0.183022, Final residual = 3.85127e-07, No Iterations 46
[OGL LOG] init_host_sparsity_pattern : 112 ms
[OGL LOG] matrix not stored update host matrix
[OGL LOG] update_host_mtx : 53 ms
[OGL LOG] matrix is not yet sorted, sorting host matrix
[OGL LOG] sort_host_mtx_sparsity_pattern : 73 ms
[OGL LOG] sort_host_mtx : 43 ms
[OGL LOG] init_preconditioner : 0 ms
[OGL LOG] solve : 446 ms
noneompGKOBiCGStab:  Solving for Uy, Initial residual = 0.619637, Final residual = 5.38898e-07, No Iterations 47
[OGL LOG] init_host_sparsity_pattern : 112 ms
[OGL LOG] matrix not stored update host matrix
[OGL LOG] update_host_mtx : 53 ms
[OGL LOG] matrix is not yet sorted, sorting host matrix
[OGL LOG] sort_host_mtx_sparsity_pattern : 72 ms
[OGL LOG] sort_host_mtx : 43 ms
[OGL LOG] init_preconditioner : 0 ms
[OGL LOG] solve : 432 ms
noneompGKOBiCGStab:  Solving for Uz, Initial residual = 0.604541, Final residual = 8.80766e-07, No Iterations 46
[OGL LOG] init_preconditioner : 0 ms
[OGL LOG] solve : 4962 ms
noneompGKOBiCGStab:  Solving for p, Initial residual = 0.749134, Final residual = 4.59609e-07, No Iterations 526
time step continuity errors : sum local = 1.66261e-07, global = 1.12355e-20, cumulative = 3.62692e-20
[OGL LOG] init_preconditioner : 0 ms
[OGL LOG] solve : 5081 ms
noneompGKOBiCGStab:  Solving for p, Initial residual = 0.68396, Final residual = 3.03495e-07, No Iterations 520
time step continuity errors : sum local = 6.61549e-08, global = -3.00692e-20, cumulative = 6.20001e-21
ExecutionTime = 711.19 s  ClockTime = 30 s

Time = 0.004

Courant Number mean: 0.0951458 max: 0.917122
[OGL LOG] init_host_sparsity_pattern : 112 ms
[OGL LOG] matrix not stored update host matrix
[OGL LOG] update_host_mtx : 55 ms
[OGL LOG] matrix is not yet sorted, sorting host matrix
[OGL LOG] sort_host_mtx_sparsity_pattern : 88 ms
[OGL LOG] sort_host_mtx : 43 ms
[OGL LOG] init_preconditioner : 0 ms
[OGL LOG] solve : 471 ms
noneompGKOBiCGStab:  Solving for Ux, Initial residual = 0.101949, Final residual = 9.22636e-07, No Iterations 41
[OGL LOG] init_host_sparsity_pattern : 112 ms
[OGL LOG] matrix not stored update host matrix
[OGL LOG] update_host_mtx : 53 ms
[OGL LOG] matrix is not yet sorted, sorting host matrix
[OGL LOG] sort_host_mtx_sparsity_pattern : 72 ms
[OGL LOG] sort_host_mtx : 43 ms
[OGL LOG] init_preconditioner : 0 ms
[OGL LOG] solve : 436 ms
noneompGKOBiCGStab:  Solving for Uy, Initial residual = 0.3354, Final residual = 9.15217e-07, No Iterations 42
[OGL LOG] init_host_sparsity_pattern : 112 ms
[OGL LOG] matrix not stored update host matrix
[OGL LOG] update_host_mtx : 53 ms
[OGL LOG] matrix is not yet sorted, sorting host matrix
[OGL LOG] sort_host_mtx_sparsity_pattern : 73 ms
[OGL LOG] sort_host_mtx : 43 ms
[OGL LOG] init_preconditioner : 0 ms
[OGL LOG] solve : 487 ms
noneompGKOBiCGStab:  Solving for Uz, Initial residual = 0.920112, Final residual = 7.04613e-07, No Iterations 47
[OGL LOG] init_preconditioner : 0 ms
[OGL LOG] solve : 5623 ms
noneompGKOBiCGStab:  Solving for p, Initial residual = 0.754756, Final residual = 7.93808e-07, No Iterations 579
time step continuity errors : sum local = 4.00492e-08, global = 1.5253e-20, cumulative = 2.1453e-20
[OGL LOG] init_preconditioner : 0 ms
[OGL LOG] solve : 5358 ms
noneompGKOBiCGStab:  Solving for p, Initial residual = 0.716973, Final residual = 8.50636e-07, No Iterations 551
time step continuity errors : sum local = 1.02152e-08, global = -6.27172e-21, cumulative = 1.51813e-20
ExecutionTime = 1108.59 s  ClockTime = 44 s

Time = 0.00533333

Courant Number mean: 0.109256 max: 0.91346
[OGL LOG] init_host_sparsity_pattern : 112 ms
[OGL LOG] matrix not stored update host matrix
[OGL LOG] update_host_mtx : 53 ms
[OGL LOG] matrix is not yet sorted, sorting host matrix
[OGL LOG] sort_host_mtx_sparsity_pattern : 72 ms
[OGL LOG] sort_host_mtx : 43 ms
[OGL LOG] init_preconditioner : 0 ms
[OGL LOG] solve : 410 ms
noneompGKOBiCGStab:  Solving for Ux, Initial residual = 0.0447066, Final residual = 7.86501e-07, No Iterations 39
[OGL LOG] init_host_sparsity_pattern : 112 ms
[OGL LOG] matrix not stored update host matrix
[OGL LOG] update_host_mtx : 53 ms
[OGL LOG] matrix is not yet sorted, sorting host matrix
[OGL LOG] sort_host_mtx_sparsity_pattern : 72 ms
[OGL LOG] sort_host_mtx : 43 ms
[OGL LOG] init_preconditioner : 0 ms
[OGL LOG] solve : 434 ms
noneompGKOBiCGStab:  Solving for Uy, Initial residual = 0.197565, Final residual = 4.69432e-07, No Iterations 42
[OGL LOG] init_host_sparsity_pattern : 112 ms
[OGL LOG] matrix not stored update host matrix
[OGL LOG] update_host_mtx : 53 ms
[OGL LOG] matrix is not yet sorted, sorting host matrix
[OGL LOG] sort_host_mtx_sparsity_pattern : 72 ms
[OGL LOG] sort_host_mtx : 44 ms
[OGL LOG] init_preconditioner : 0 ms
[OGL LOG] solve : 465 ms
noneompGKOBiCGStab:  Solving for Uz, Initial residual = 0.733271, Final residual = 9.49384e-07, No Iterations 45
[OGL LOG] init_preconditioner : 0 ms
[OGL LOG] solve : 5154 ms
noneompGKOBiCGStab:  Solving for p, Initial residual = 0.617385, Final residual = 6.05511e-07, No Iterations 538
time step continuity errors : sum local = 5.25664e-07, global = 1.62134e-20, cumulative = 3.13947e-20
[OGL LOG] init_preconditioner : 0 ms
[OGL LOG] solve : 5306 ms
noneompGKOBiCGStab:  Solving for p, Initial residual = 0.554869, Final residual = 9.8751e-07, No Iterations 546
time step continuity errors : sum local = 1.28325e-07, global = -1.67177e-20, cumulative = 1.4677e-20
ExecutionTime = 1486.52 s  ClockTime = 57 s

Time = 0.00666667

Courant Number mean: 0.122085 max: 0.929108
[OGL LOG] init_host_sparsity_pattern : 112 ms
[OGL LOG] matrix not stored update host matrix
[OGL LOG] update_host_mtx : 53 ms
[OGL LOG] matrix is not yet sorted, sorting host matrix
[OGL LOG] sort_host_mtx_sparsity_pattern : 72 ms
[OGL LOG] sort_host_mtx : 43 ms
[OGL LOG] init_preconditioner : 0 ms
[OGL LOG] solve : 426 ms
noneompGKOBiCGStab:  Solving for Ux, Initial residual = 0.0318883, Final residual = 7.05805e-07, No Iterations 41
[OGL LOG] init_host_sparsity_pattern : 112 ms
[OGL LOG] matrix not stored update host matrix
[OGL LOG] update_host_mtx : 53 ms
[OGL LOG] matrix is not yet sorted, sorting host matrix
[OGL LOG] sort_host_mtx_sparsity_pattern : 72 ms
[OGL LOG] sort_host_mtx : 43 ms
[OGL LOG] init_preconditioner : 0 ms
[OGL LOG] solve : 424 ms
noneompGKOBiCGStab:  Solving for Uy, Initial residual = 0.0805733, Final residual = 7.08051e-07, No Iterations 41
[OGL LOG] init_host_sparsity_pattern : 111 ms
[OGL LOG] matrix not stored update host matrix
[OGL LOG] update_host_mtx : 53 ms
[OGL LOG] matrix is not yet sorted, sorting host matrix
[OGL LOG] sort_host_mtx_sparsity_pattern : 73 ms
[OGL LOG] sort_host_mtx : 44 ms
[OGL LOG] init_preconditioner : 0 ms
[OGL LOG] solve : 476 ms
noneompGKOBiCGStab:  Solving for Uz, Initial residual = 0.514252, Final residual = 6.98068e-07, No Iterations 46
[OGL LOG] init_preconditioner : 0 ms
[OGL LOG] solve : 4869 ms
noneompGKOBiCGStab:  Solving for p, Initial residual = 0.592068, Final residual = 7.97306e-07, No Iterations 508
time step continuity errors : sum local = 1.82877e-08, global = 7.26514e-21, cumulative = 2.19422e-20
[OGL LOG] init_preconditioner : 0 ms
[OGL LOG] solve : 4729 ms
noneompGKOBiCGStab:  Solving for p, Initial residual = 0.543036, Final residual = 9.67183e-07, No Iterations 486
time step continuity errors : sum local = 3.87189e-07, global = 2.33284e-20, cumulative = 4.52705e-20
ExecutionTime = 1837.5 s  ClockTime = 69 s

End

