/*---------------------------------------------------------------------------*\
  =========                 |
  \\      /  F ield         | OpenFOAM: The Open Source CFD Toolbox
   \\    /   O peration     | Website:  https://openfoam.org
    \\  /    A nd           | Version:  8
     \\/     M anipulation  |
\*---------------------------------------------------------------------------*/
Build  : 8-13d66902f78c
Exec   : icoFoam
Date   : Jul 12 2021
Time   : 15:02:20
Host   : "uc2n445.localdomain"
PID    : 3214741
I/O    : uncollated
Case   : /pfs/data5/home/kit/scc/nq7776/code/OGL_DATA/lidDrivenCavity3D/v0.1-136-g40fef35/f584ccac99/IntelXeonGold6230CPU@2.10GHz/Test_2021-07-12-13:12:59/75/p-U-BiCGStab-GKO-BJ-omp/lidDrivenCavity3D
nProcs : 1
sigFpe : Enabling floating point exception trapping (FOAM_SIGFPE).
fileModificationChecking : Monitoring run-time modified files using timeStampMaster (fileModificationSkew 10)
allowSystemOperations : Allowing user-supplied system call operations

// * * * * * * * * * * * * * * * * * * * * * * * * * * * * * * * * * * * * * //
Create time

Create mesh for time = 0

Reading transportProperties

Reading field p

Reading field U

Reading/calculating face flux field phi


Starting time loop

Time = 0.00133333

Courant Number mean: 0 max: 0
[OGL LOG] init_host_sparsity_pattern : 121 ms
[OGL LOG] matrix not stored update host matrix
[OGL LOG] update_host_mtx : 61 ms
[OGL LOG] matrix is not yet sorted, compute sorting idxs
[OGL LOG] compute_sort : 3626 ms
[OGL LOG] matrix is not yet sorted, sorting host matrix
[OGL LOG] sort_host_mtx_sparsity_pattern : 77 ms
[OGL LOG] sort_host_mtx : 52 ms
[OGL LOG] init_preconditioner : 13 ms
[OGL LOG] solve : 649 ms
BJompGKOBiCGStab:  Solving for Ux, Initial residual = 1, Final residual = 8.57454e-07, No Iterations 40
[OGL LOG] init_host_sparsity_pattern : 116 ms
[OGL LOG] matrix not stored update host matrix
[OGL LOG] update_host_mtx : 61 ms
[OGL LOG] matrix is not yet sorted, sorting host matrix
[OGL LOG] sort_host_mtx_sparsity_pattern : 80 ms
[OGL LOG] sort_host_mtx : 44 ms
[OGL LOG] init_preconditioner : 8 ms
[OGL LOG] solve : 19 ms
BJompGKOBiCGStab:  Solving for Uy, Initial residual = 0, Final residual = 0, No Iterations 0
[OGL LOG] init_host_sparsity_pattern : 112 ms
[OGL LOG] matrix not stored update host matrix
[OGL LOG] update_host_mtx : 53 ms
[OGL LOG] matrix is not yet sorted, sorting host matrix
[OGL LOG] sort_host_mtx_sparsity_pattern : 76 ms
[OGL LOG] sort_host_mtx : 48 ms
[OGL LOG] init_preconditioner : 8 ms
[OGL LOG] solve : 19 ms
BJompGKOBiCGStab:  Solving for Uz, Initial residual = 0, Final residual = 0, No Iterations 0
[OGL LOG] init_host_sparsity_pattern : 118 ms
[OGL LOG] matrix not stored update host matrix
[OGL LOG] update_host_mtx : 62 ms
[OGL LOG] matrix is not yet sorted, sorting host matrix
[OGL LOG] sort_host_mtx_sparsity_pattern : 80 ms
[OGL LOG] sort_host_mtx : 43 ms
[OGL LOG] init_preconditioner : 8 ms
[OGL LOG] solve : 6912 ms
BJompGKOBiCGStab:  Solving for p, Initial residual = 1, Final residual = 9.22838e-07, No Iterations 433
time step continuity errors : sum local = 6.86496e-09, global = -1.37471e-21, cumulative = -1.37471e-21
[OGL LOG] init_preconditioner : 0 ms
[OGL LOG] solve : 5881 ms
BJompGKOBiCGStab:  Solving for p, Initial residual = 0.759333, Final residual = 9.99369e-07, No Iterations 417
time step continuity errors : sum local = 9.65849e-09, global = 8.54028e-21, cumulative = 7.16557e-21
ExecutionTime = 870.48 s  ClockTime = 20 s

Time = 0.00266667

Courant Number mean: 0.0631768 max: 0.775367
[OGL LOG] init_host_sparsity_pattern : 115 ms
[OGL LOG] matrix not stored update host matrix
[OGL LOG] update_host_mtx : 56 ms
[OGL LOG] matrix is not yet sorted, sorting host matrix
[OGL LOG] sort_host_mtx_sparsity_pattern : 81 ms
[OGL LOG] sort_host_mtx : 43 ms
[OGL LOG] init_preconditioner : 0 ms
[OGL LOG] solve : 450 ms
BJompGKOBiCGStab:  Solving for Ux, Initial residual = 0.183039, Final residual = 8.19468e-07, No Iterations 28
[OGL LOG] init_host_sparsity_pattern : 114 ms
[OGL LOG] matrix not stored update host matrix
[OGL LOG] update_host_mtx : 53 ms
[OGL LOG] matrix is not yet sorted, sorting host matrix
[OGL LOG] sort_host_mtx_sparsity_pattern : 75 ms
[OGL LOG] sort_host_mtx : 44 ms
[OGL LOG] init_preconditioner : 0 ms
[OGL LOG] solve : 636 ms
BJompGKOBiCGStab:  Solving for Uy, Initial residual = 0.619624, Final residual = 9.41859e-07, No Iterations 39
[OGL LOG] init_host_sparsity_pattern : 115 ms
[OGL LOG] matrix not stored update host matrix
[OGL LOG] update_host_mtx : 53 ms
[OGL LOG] matrix is not yet sorted, sorting host matrix
[OGL LOG] sort_host_mtx_sparsity_pattern : 73 ms
[OGL LOG] sort_host_mtx : 43 ms
[OGL LOG] init_preconditioner : 0 ms
[OGL LOG] solve : 655 ms
BJompGKOBiCGStab:  Solving for Uz, Initial residual = 0.604924, Final residual = 3.62812e-07, No Iterations 41
[OGL LOG] init_preconditioner : 0 ms
[OGL LOG] solve : 5649 ms
BJompGKOBiCGStab:  Solving for p, Initial residual = 0.749127, Final residual = 7.68713e-07, No Iterations 397
time step continuity errors : sum local = 1.53487e-07, global = -3.20982e-21, cumulative = 3.95576e-21
[OGL LOG] init_preconditioner : 0 ms
[OGL LOG] solve : 5786 ms
BJompGKOBiCGStab:  Solving for p, Initial residual = 0.683904, Final residual = 6.12823e-07, No Iterations 398
time step continuity errors : sum local = 8.66458e-08, global = -4.84236e-21, cumulative = -8.86607e-22
ExecutionTime = 1714.23 s  ClockTime = 35 s

Time = 0.004

Courant Number mean: 0.0951462 max: 0.917097
[OGL LOG] init_host_sparsity_pattern : 112 ms
[OGL LOG] matrix not stored update host matrix
[OGL LOG] update_host_mtx : 56 ms
[OGL LOG] matrix is not yet sorted, sorting host matrix
[OGL LOG] sort_host_mtx_sparsity_pattern : 79 ms
[OGL LOG] sort_host_mtx : 43 ms
[OGL LOG] init_preconditioner : 0 ms
[OGL LOG] solve : 406 ms
BJompGKOBiCGStab:  Solving for Ux, Initial residual = 0.101941, Final residual = 9.65193e-07, No Iterations 26
[OGL LOG] init_host_sparsity_pattern : 112 ms
[OGL LOG] matrix not stored update host matrix
[OGL LOG] update_host_mtx : 53 ms
[OGL LOG] matrix is not yet sorted, sorting host matrix
[OGL LOG] sort_host_mtx_sparsity_pattern : 72 ms
[OGL LOG] sort_host_mtx : 43 ms
[OGL LOG] init_preconditioner : 0 ms
[OGL LOG] solve : 604 ms
BJompGKOBiCGStab:  Solving for Uy, Initial residual = 0.335455, Final residual = 8.86391e-07, No Iterations 38
[OGL LOG] init_host_sparsity_pattern : 112 ms
[OGL LOG] matrix not stored update host matrix
[OGL LOG] update_host_mtx : 53 ms
[OGL LOG] matrix is not yet sorted, sorting host matrix
[OGL LOG] sort_host_mtx_sparsity_pattern : 72 ms
[OGL LOG] sort_host_mtx : 43 ms
[OGL LOG] init_preconditioner : 0 ms
[OGL LOG] solve : 627 ms
BJompGKOBiCGStab:  Solving for Uz, Initial residual = 0.919606, Final residual = 3.99123e-07, No Iterations 40
[OGL LOG] init_preconditioner : 0 ms
[OGL LOG] solve : 5640 ms
BJompGKOBiCGStab:  Solving for p, Initial residual = 0.754756, Final residual = 9.17926e-07, No Iterations 399
time step continuity errors : sum local = 1.23684e-08, global = -7.12345e-21, cumulative = -8.01006e-21
[OGL LOG] init_preconditioner : 0 ms
[OGL LOG] solve : 6074 ms
BJompGKOBiCGStab:  Solving for p, Initial residual = 0.717068, Final residual = 2.90047e-07, No Iterations 417
time step continuity errors : sum local = 8.41425e-09, global = -3.57649e-20, cumulative = -4.37749e-20
ExecutionTime = 2569.53 s  ClockTime = 49 s

Time = 0.00533333

Courant Number mean: 0.109256 max: 0.913438
[OGL LOG] init_host_sparsity_pattern : 112 ms
[OGL LOG] matrix not stored update host matrix
[OGL LOG] update_host_mtx : 54 ms
[OGL LOG] matrix is not yet sorted, sorting host matrix
[OGL LOG] sort_host_mtx_sparsity_pattern : 78 ms
[OGL LOG] sort_host_mtx : 44 ms
[OGL LOG] init_preconditioner : 0 ms
[OGL LOG] solve : 414 ms
BJompGKOBiCGStab:  Solving for Ux, Initial residual = 0.0446943, Final residual = 7.71187e-07, No Iterations 26
[OGL LOG] init_host_sparsity_pattern : 114 ms
[OGL LOG] matrix not stored update host matrix
[OGL LOG] update_host_mtx : 53 ms
[OGL LOG] matrix is not yet sorted, sorting host matrix
[OGL LOG] sort_host_mtx_sparsity_pattern : 72 ms
[OGL LOG] sort_host_mtx : 44 ms
[OGL LOG] init_preconditioner : 0 ms
[OGL LOG] solve : 579 ms
BJompGKOBiCGStab:  Solving for Uy, Initial residual = 0.197569, Final residual = 4.75282e-07, No Iterations 36
[OGL LOG] init_host_sparsity_pattern : 112 ms
[OGL LOG] matrix not stored update host matrix
[OGL LOG] update_host_mtx : 54 ms
[OGL LOG] matrix is not yet sorted, sorting host matrix
[OGL LOG] sort_host_mtx_sparsity_pattern : 72 ms
[OGL LOG] sort_host_mtx : 44 ms
[OGL LOG] init_preconditioner : 0 ms
[OGL LOG] solve : 628 ms
BJompGKOBiCGStab:  Solving for Uz, Initial residual = 0.732764, Final residual = 6.13897e-07, No Iterations 40
[OGL LOG] init_preconditioner : 0 ms
[OGL LOG] solve : 6279 ms
BJompGKOBiCGStab:  Solving for p, Initial residual = 0.617342, Final residual = 9.92951e-07, No Iterations 420
time step continuity errors : sum local = 3.43655e-09, global = -2.44963e-20, cumulative = -6.82712e-20
[OGL LOG] init_preconditioner : 0 ms
[OGL LOG] solve : 5851 ms
BJompGKOBiCGStab:  Solving for p, Initial residual = 0.554743, Final residual = 6.83152e-07, No Iterations 411
time step continuity errors : sum local = 3.64137e-09, global = 2.38079e-20, cumulative = -4.44633e-20
ExecutionTime = 3450.39 s  ClockTime = 64 s

Time = 0.00666667

Courant Number mean: 0.122085 max: 0.929083
[OGL LOG] init_host_sparsity_pattern : 112 ms
[OGL LOG] matrix not stored update host matrix
[OGL LOG] update_host_mtx : 53 ms
[OGL LOG] matrix is not yet sorted, sorting host matrix
[OGL LOG] sort_host_mtx_sparsity_pattern : 72 ms
[OGL LOG] sort_host_mtx : 43 ms
[OGL LOG] init_preconditioner : 0 ms
[OGL LOG] solve : 391 ms
BJompGKOBiCGStab:  Solving for Ux, Initial residual = 0.0319066, Final residual = 8.31096e-07, No Iterations 25
[OGL LOG] init_host_sparsity_pattern : 113 ms
[OGL LOG] matrix not stored update host matrix
[OGL LOG] update_host_mtx : 53 ms
[OGL LOG] matrix is not yet sorted, sorting host matrix
[OGL LOG] sort_host_mtx_sparsity_pattern : 73 ms
[OGL LOG] sort_host_mtx : 44 ms
[OGL LOG] init_preconditioner : 0 ms
[OGL LOG] solve : 555 ms
BJompGKOBiCGStab:  Solving for Uy, Initial residual = 0.0804587, Final residual = 5.79538e-07, No Iterations 35
[OGL LOG] init_host_sparsity_pattern : 113 ms
[OGL LOG] matrix not stored update host matrix
[OGL LOG] update_host_mtx : 53 ms
[OGL LOG] matrix is not yet sorted, sorting host matrix
[OGL LOG] sort_host_mtx_sparsity_pattern : 72 ms
[OGL LOG] sort_host_mtx : 43 ms
[OGL LOG] init_preconditioner : 0 ms
[OGL LOG] solve : 506 ms
BJompGKOBiCGStab:  Solving for Uz, Initial residual = 0.513663, Final residual = 8.9182e-07, No Iterations 35
[OGL LOG] init_preconditioner : 0 ms
[OGL LOG] solve : 6130 ms
BJompGKOBiCGStab:  Solving for p, Initial residual = 0.591999, Final residual = 4.88103e-07, No Iterations 432
time step continuity errors : sum local = 4.12364e-10, global = -2.54461e-22, cumulative = -4.47178e-20
[OGL LOG] init_preconditioner : 0 ms
[OGL LOG] solve : 7022 ms
BJompGKOBiCGStab:  Solving for p, Initial residual = 0.543127, Final residual = 7.78728e-07, No Iterations 491
time step continuity errors : sum local = 5.73108e-09, global = 8.81991e-21, cumulative = -3.58979e-20
ExecutionTime = 4385.47 s  ClockTime = 80 s

End

