/*---------------------------------------------------------------------------*\
  =========                 |
  \\      /  F ield         | OpenFOAM: The Open Source CFD Toolbox
   \\    /   O peration     | Website:  https://openfoam.org
    \\  /    A nd           | Version:  8
     \\/     M anipulation  |
\*---------------------------------------------------------------------------*/
Build  : 8-13d66902f78c
Exec   : icoFoam
Date   : Jul 14 2021
Time   : 02:20:38
Host   : "uc2n394.localdomain"
PID    : 3284072
I/O    : uncollated
Case   : /pfs/data5/home/kit/scc/nq7776/code/OGL_DATA/lidDrivenCavity3D/v0.1-136-g40fef35/f584ccac99/IntelXeonGold6230CPU@2.10GHz/Test_2021-07-14-00:31:10/75/p-BiCGStab-GKO-BJ-omp/lidDrivenCavity3D
nProcs : 1
sigFpe : Enabling floating point exception trapping (FOAM_SIGFPE).
fileModificationChecking : Monitoring run-time modified files using timeStampMaster (fileModificationSkew 10)
allowSystemOperations : Allowing user-supplied system call operations

// * * * * * * * * * * * * * * * * * * * * * * * * * * * * * * * * * * * * * //
Create time

Create mesh for time = 0

Reading transportProperties

Reading field p

Reading field U

Reading/calculating face flux field phi


Starting time loop

Time = 0.00133333

Courant Number mean: 0 max: 0
nonePBiCGStab:  Solving for Ux, Initial residual = 1, Final residual = 0.0730209, No Iterations 5
nonePBiCGStab:  Solving for Uy, Initial residual = 0, Final residual = 0, No Iterations 0
nonePBiCGStab:  Solving for Uz, Initial residual = 0, Final residual = 0, No Iterations 0
[OGL LOG] init_host_sparsity_pattern : 123 ms
[OGL LOG] matrix not stored update host matrix
[OGL LOG] update_host_mtx : 62 ms
[OGL LOG] matrix is not yet sorted, compute sorting idxs
[OGL LOG] compute_sort : 3335 ms
[OGL LOG] matrix is not yet sorted, sorting host matrix
[OGL LOG] sort_host_mtx_sparsity_pattern : 81 ms
[OGL LOG] sort_host_mtx : 52 ms
[OGL LOG] init_preconditioner : 19 ms
[OGL LOG] solve : 6253 ms
BJompGKOBiCGStab:  Solving for p, Initial residual = 1, Final residual = 9.97466e-07, No Iterations 484
time step continuity errors : sum local = 8.63907e-10, global = 1.26993e-20, cumulative = 1.26993e-20
[OGL LOG] init_preconditioner : 0 ms
[OGL LOG] solve : 5898 ms
BJompGKOBiCGStab:  Solving for p, Initial residual = 0.697097, Final residual = 8.49162e-07, No Iterations 478
time step continuity errors : sum local = 4.35011e-08, global = 2.81696e-21, cumulative = 1.55163e-20
ExecutionTime = 781.14 s  ClockTime = 18 s

Time = 0.00266667

Courant Number mean: 0.0508075 max: 0.767258
nonePBiCGStab:  Solving for Ux, Initial residual = 0.140587, Final residual = 0.03245, No Iterations 5
nonePBiCGStab:  Solving for Uy, Initial residual = 0.41364, Final residual = 0.0923331, No Iterations 5
nonePBiCGStab:  Solving for Uz, Initial residual = 0.983006, Final residual = 0.249868, No Iterations 5
[OGL LOG] init_preconditioner : 0 ms
[OGL LOG] solve : 6813 ms
BJompGKOBiCGStab:  Solving for p, Initial residual = 0.746893, Final residual = 9.74222e-07, No Iterations 497
time step continuity errors : sum local = 9.05829e-09, global = -1.25081e-20, cumulative = 3.00819e-21
[OGL LOG] init_preconditioner : 0 ms
[OGL LOG] solve : 6025 ms
BJompGKOBiCGStab:  Solving for p, Initial residual = 0.668138, Final residual = 5.92354e-07, No Iterations 464
time step continuity errors : sum local = 1.15026e-06, global = -7.96187e-22, cumulative = 2.21201e-21
ExecutionTime = 1600.47 s  ClockTime = 31 s

Time = 0.004

Courant Number mean: 0.0796136 max: 0.886044
nonePBiCGStab:  Solving for Ux, Initial residual = 0.0584457, Final residual = 0.0111535, No Iterations 5
nonePBiCGStab:  Solving for Uy, Initial residual = 0.171988, Final residual = 0.0399385, No Iterations 5
nonePBiCGStab:  Solving for Uz, Initial residual = 0.608351, Final residual = 0.143693, No Iterations 5
[OGL LOG] init_preconditioner : 0 ms
[OGL LOG] solve : 6506 ms
BJompGKOBiCGStab:  Solving for p, Initial residual = 0.730379, Final residual = 7.67912e-07, No Iterations 515
time step continuity errors : sum local = 6.12558e-07, global = 1.63849e-20, cumulative = 1.85969e-20
[OGL LOG] init_preconditioner : 0 ms
[OGL LOG] solve : 6954 ms
BJompGKOBiCGStab:  Solving for p, Initial residual = 0.661069, Final residual = 6.08667e-07, No Iterations 540
time step continuity errors : sum local = 6.51559e-10, global = -9.36982e-21, cumulative = 9.22705e-21
ExecutionTime = 2459.64 s  ClockTime = 45 s

Time = 0.00533333

Courant Number mean: 0.0948099 max: 0.90257
nonePBiCGStab:  Solving for Ux, Initial residual = 0.0345764, Final residual = 0.00683767, No Iterations 5
nonePBiCGStab:  Solving for Uy, Initial residual = 0.119658, Final residual = 0.0303788, No Iterations 5
nonePBiCGStab:  Solving for Uz, Initial residual = 0.390286, Final residual = 0.0841318, No Iterations 5
[OGL LOG] init_preconditioner : 0 ms
[OGL LOG] solve : 6303 ms
BJompGKOBiCGStab:  Solving for p, Initial residual = 0.610093, Final residual = 8.65273e-07, No Iterations 502
time step continuity errors : sum local = 1.25789e-09, global = 9.59066e-21, cumulative = 1.88177e-20
[OGL LOG] init_preconditioner : 0 ms
[OGL LOG] solve : 6279 ms
BJompGKOBiCGStab:  Solving for p, Initial residual = 0.521267, Final residual = 7.9834e-07, No Iterations 491
time step continuity errors : sum local = 1.55274e-08, global = -3.04057e-21, cumulative = 1.57771e-20
ExecutionTime = 3263.1 s  ClockTime = 58 s

Time = 0.00666667

Courant Number mean: 0.107156 max: 0.916752
nonePBiCGStab:  Solving for Ux, Initial residual = 0.0257403, Final residual = 0.00503432, No Iterations 5
nonePBiCGStab:  Solving for Uy, Initial residual = 0.0751518, Final residual = 0.0212324, No Iterations 5
nonePBiCGStab:  Solving for Uz, Initial residual = 0.21477, Final residual = 0.0499708, No Iterations 5
[OGL LOG] init_preconditioner : 0 ms
[OGL LOG] solve : 6586 ms
BJompGKOBiCGStab:  Solving for p, Initial residual = 0.630138, Final residual = 4.45153e-07, No Iterations 523
time step continuity errors : sum local = 9.57233e-09, global = -1.51643e-20, cumulative = 6.12883e-22
[OGL LOG] init_preconditioner : 0 ms
[OGL LOG] solve : 7642 ms
BJompGKOBiCGStab:  Solving for p, Initial residual = 0.552767, Final residual = 3.01744e-07, No Iterations 503
time step continuity errors : sum local = 7.36483e-09, global = 1.82806e-20, cumulative = 1.88935e-20
ExecutionTime = 4171.5 s  ClockTime = 73 s

End

