/*---------------------------------------------------------------------------*\
  =========                 |
  \\      /  F ield         | OpenFOAM: The Open Source CFD Toolbox
   \\    /   O peration     | Website:  https://openfoam.org
    \\  /    A nd           | Version:  8
     \\/     M anipulation  |
\*---------------------------------------------------------------------------*/
Build  : 8-13d66902f78c
Exec   : icoFoam
Date   : Jul 13 2021
Time   : 23:35:34
Host   : "uc2n398.localdomain"
PID    : 523386
I/O    : uncollated
Case   : /pfs/data5/home/kit/scc/nq7776/code/OGL_DATA/lidDrivenCavity3D/v0.1-136-g40fef35/f584ccac99/IntelXeonGold6230CPU@2.10GHz/Test_2021-07-13-22:43:44/75/p-IR-GKO-none-omp/lidDrivenCavity3D
nProcs : 1
sigFpe : Enabling floating point exception trapping (FOAM_SIGFPE).
fileModificationChecking : Monitoring run-time modified files using timeStampMaster (fileModificationSkew 10)
allowSystemOperations : Allowing user-supplied system call operations

// * * * * * * * * * * * * * * * * * * * * * * * * * * * * * * * * * * * * * //
Create time

Create mesh for time = 0

Reading transportProperties

Reading field p

Reading field U

Reading/calculating face flux field phi


Starting time loop

Time = 0.00133333

Courant Number mean: 0 max: 0
nonePBiCGStab:  Solving for Ux, Initial residual = 1, Final residual = 0.0730209, No Iterations 5
nonePBiCGStab:  Solving for Uy, Initial residual = 0, Final residual = 0, No Iterations 0
nonePBiCGStab:  Solving for Uz, Initial residual = 0, Final residual = 0, No Iterations 0
[OGL LOG] init_host_sparsity_pattern : 124 ms
[OGL LOG] matrix not stored update host matrix
[OGL LOG] update_host_mtx : 62 ms
[OGL LOG] matrix is not yet sorted, compute sorting idxs
[OGL LOG] compute_sort : 3339 ms
[OGL LOG] matrix is not yet sorted, sorting host matrix
[OGL LOG] sort_host_mtx_sparsity_pattern : 80 ms
[OGL LOG] sort_host_mtx : 52 ms
[OGL LOG] init_preconditioner : 0 ms
[OGL LOG] solve : 3676 ms
noneompGKOIR:  Solving for p, Initial residual = 1, Final residual = 1.30573e-07, No Iterations 4
time step continuity errors : sum local = 8.29753e-11, global = 1.27429e-20, cumulative = 1.27429e-20
[OGL LOG] init_preconditioner : 0 ms
[OGL LOG] solve : 3391 ms
noneompGKOIR:  Solving for p, Initial residual = 0.697098, Final residual = 7.02293e-08, No Iterations 4
time step continuity errors : sum local = 6.22527e-11, global = 8.64134e-23, cumulative = 1.28294e-20
ExecutionTime = 231.44 s  ClockTime = 13 s

Time = 0.00266667

Courant Number mean: 0.0508075 max: 0.767258
nonePBiCGStab:  Solving for Ux, Initial residual = 0.140589, Final residual = 0.0324514, No Iterations 5
nonePBiCGStab:  Solving for Uy, Initial residual = 0.413641, Final residual = 0.092326, No Iterations 5
nonePBiCGStab:  Solving for Uz, Initial residual = 0.983212, Final residual = 0.249881, No Iterations 5
[OGL LOG] init_preconditioner : 0 ms
[OGL LOG] solve : 3024 ms
noneompGKOIR:  Solving for p, Initial residual = 0.746892, Final residual = 3.63369e-08, No Iterations 4
time step continuity errors : sum local = 3.9641e-10, global = 2.63517e-21, cumulative = 1.54645e-20
[OGL LOG] init_preconditioner : 0 ms
[OGL LOG] solve : 2966 ms
noneompGKOIR:  Solving for p, Initial residual = 0.668132, Final residual = 2.98446e-08, No Iterations 4
time step continuity errors : sum local = 6.46083e-11, global = 1.38327e-20, cumulative = 2.92972e-20
ExecutionTime = 423.4 s  ClockTime = 20 s

Time = 0.004

Courant Number mean: 0.0796134 max: 0.886044
nonePBiCGStab:  Solving for Ux, Initial residual = 0.0584495, Final residual = 0.0111487, No Iterations 5
nonePBiCGStab:  Solving for Uy, Initial residual = 0.171954, Final residual = 0.0398777, No Iterations 5
nonePBiCGStab:  Solving for Uz, Initial residual = 0.610941, Final residual = 0.142313, No Iterations 5
[OGL LOG] init_preconditioner : 0 ms
[OGL LOG] solve : 3139 ms
noneompGKOIR:  Solving for p, Initial residual = 0.730359, Final residual = 2.86218e-08, No Iterations 4
time step continuity errors : sum local = 2.65246e-10, global = 2.46977e-21, cumulative = 3.1767e-20
[OGL LOG] init_preconditioner : 0 ms
[OGL LOG] solve : 3163 ms
noneompGKOIR:  Solving for p, Initial residual = 0.660892, Final residual = 2.40984e-08, No Iterations 4
time step continuity errors : sum local = 7.00928e-11, global = -7.29743e-21, cumulative = 2.44696e-20
ExecutionTime = 625.28 s  ClockTime = 26 s

Time = 0.00533333

Courant Number mean: 0.0948106 max: 0.902572
nonePBiCGStab:  Solving for Ux, Initial residual = 0.034594, Final residual = 0.00682892, No Iterations 5
nonePBiCGStab:  Solving for Uy, Initial residual = 0.11955, Final residual = 0.0298198, No Iterations 5
nonePBiCGStab:  Solving for Uz, Initial residual = 0.386283, Final residual = 0.0806801, No Iterations 5
[OGL LOG] init_preconditioner : 0 ms
[OGL LOG] solve : 3105 ms
noneompGKOIR:  Solving for p, Initial residual = 0.609797, Final residual = 2.15549e-08, No Iterations 4
time step continuity errors : sum local = 1.32034e-10, global = -2.31123e-20, cumulative = 1.35726e-21
[OGL LOG] init_preconditioner : 0 ms
[OGL LOG] solve : 3105 ms
noneompGKOIR:  Solving for p, Initial residual = 0.521107, Final residual = 1.97315e-08, No Iterations 4
time step continuity errors : sum local = 6.04325e-11, global = -2.17496e-20, cumulative = -2.03923e-20
ExecutionTime = 824.23 s  ClockTime = 33 s

Time = 0.00666667

Courant Number mean: 0.107177 max: 0.916781
nonePBiCGStab:  Solving for Ux, Initial residual = 0.0257325, Final residual = 0.00503143, No Iterations 5
nonePBiCGStab:  Solving for Uy, Initial residual = 0.0750463, Final residual = 0.0208208, No Iterations 5
nonePBiCGStab:  Solving for Uz, Initial residual = 0.212731, Final residual = 0.0495455, No Iterations 5
[OGL LOG] init_preconditioner : 0 ms
[OGL LOG] solve : 2842 ms
noneompGKOIR:  Solving for p, Initial residual = 0.629324, Final residual = 2.13849e-08, No Iterations 4
time step continuity errors : sum local = 1.3892e-10, global = -1.86582e-21, cumulative = -2.22581e-20
[OGL LOG] init_preconditioner : 0 ms
[OGL LOG] solve : 2780 ms
noneompGKOIR:  Solving for p, Initial residual = 0.552156, Final residual = 1.729e-08, No Iterations 4
time step continuity errors : sum local = 6.23236e-11, global = 3.06152e-21, cumulative = -1.91966e-20
ExecutionTime = 1004.39 s  ClockTime = 39 s

End

