/*---------------------------------------------------------------------------*\
  =========                 |
  \\      /  F ield         | OpenFOAM: The Open Source CFD Toolbox
   \\    /   O peration     | Website:  https://openfoam.org
    \\  /    A nd           | Version:  8
     \\/     M anipulation  |
\*---------------------------------------------------------------------------*/
Build  : 8-13d66902f78c
Exec   : icoFoam
Date   : Jul 14 2021
Time   : 00:52:00
Host   : "uc2n394.localdomain"
PID    : 3277296
I/O    : uncollated
Case   : /pfs/data5/home/kit/scc/nq7776/code/OGL_DATA/lidDrivenCavity3D/v0.1-136-g40fef35/f584ccac99/IntelXeonGold6230CPU@2.10GHz/Test_2021-07-14-00:31:10/50/p-BiCGStab-GKO-BJ-omp/lidDrivenCavity3D
nProcs : 1
sigFpe : Enabling floating point exception trapping (FOAM_SIGFPE).
fileModificationChecking : Monitoring run-time modified files using timeStampMaster (fileModificationSkew 10)
allowSystemOperations : Allowing user-supplied system call operations

// * * * * * * * * * * * * * * * * * * * * * * * * * * * * * * * * * * * * * //
Create time

Create mesh for time = 0

Reading transportProperties

Reading field p

Reading field U

Reading/calculating face flux field phi


Starting time loop

Time = 0.002

Courant Number mean: 0 max: 0
nonePBiCGStab:  Solving for Ux, Initial residual = 1, Final residual = 0.0592055, No Iterations 5
nonePBiCGStab:  Solving for Uy, Initial residual = 0, Final residual = 0, No Iterations 0
nonePBiCGStab:  Solving for Uz, Initial residual = 0, Final residual = 0, No Iterations 0
[OGL LOG] init_host_sparsity_pattern : 36 ms
[OGL LOG] matrix not stored update host matrix
[OGL LOG] update_host_mtx : 18 ms
[OGL LOG] matrix is not yet sorted, compute sorting idxs
[OGL LOG] compute_sort : 910 ms
[OGL LOG] matrix is not yet sorted, sorting host matrix
[OGL LOG] sort_host_mtx_sparsity_pattern : 24 ms
[OGL LOG] sort_host_mtx : 15 ms
[OGL LOG] init_preconditioner : 6 ms
[OGL LOG] solve : 1609 ms
BJompGKOBiCGStab:  Solving for p, Initial residual = 1, Final residual = 4.48358e-07, No Iterations 330
time step continuity errors : sum local = 1.65367e-08, global = 4.03106e-21, cumulative = 4.03106e-21
[OGL LOG] init_preconditioner : 0 ms
[OGL LOG] solve : 1547 ms
BJompGKOBiCGStab:  Solving for p, Initial residual = 0.67672, Final residual = 6.35782e-07, No Iterations 317
time step continuity errors : sum local = 1.5559e-07, global = 1.75658e-21, cumulative = 5.78764e-21
ExecutionTime = 26.97 s  ClockTime = 5 s

Time = 0.004

Courant Number mean: 0.0636234 max: 0.723792
nonePBiCGStab:  Solving for Ux, Initial residual = 0.144133, Final residual = 0.0219193, No Iterations 5
nonePBiCGStab:  Solving for Uy, Initial residual = 0.363931, Final residual = 0.0522912, No Iterations 5
nonePBiCGStab:  Solving for Uz, Initial residual = 0.973275, Final residual = 0.158934, No Iterations 5
[OGL LOG] init_preconditioner : 0 ms
[OGL LOG] solve : 1600 ms
BJompGKOBiCGStab:  Solving for p, Initial residual = 0.668501, Final residual = 8.68091e-07, No Iterations 328
time step continuity errors : sum local = 3.56215e-09, global = 2.81823e-20, cumulative = 3.39699e-20
[OGL LOG] init_preconditioner : 0 ms
[OGL LOG] solve : 1560 ms
BJompGKOBiCGStab:  Solving for p, Initial residual = 0.584667, Final residual = 9.5663e-07, No Iterations 317
time step continuity errors : sum local = 9.50073e-09, global = 8.07778e-21, cumulative = 4.20477e-20
ExecutionTime = 52.39 s  ClockTime = 9 s

Time = 0.006

Courant Number mean: 0.0972275 max: 0.862515
nonePBiCGStab:  Solving for Ux, Initial residual = 0.0524175, Final residual = 0.00685548, No Iterations 5
nonePBiCGStab:  Solving for Uy, Initial residual = 0.127052, Final residual = 0.0201224, No Iterations 5
nonePBiCGStab:  Solving for Uz, Initial residual = 0.366862, Final residual = 0.0532235, No Iterations 5
[OGL LOG] init_preconditioner : 0 ms
[OGL LOG] solve : 1508 ms
BJompGKOBiCGStab:  Solving for p, Initial residual = 0.594533, Final residual = 8.91e-07, No Iterations 312
time step continuity errors : sum local = 9.36117e-08, global = 3.08456e-20, cumulative = 7.28933e-20
[OGL LOG] init_preconditioner : 0 ms
[OGL LOG] solve : 1532 ms
BJompGKOBiCGStab:  Solving for p, Initial residual = 0.528705, Final residual = 6.86191e-07, No Iterations 314
time step continuity errors : sum local = 1.13538e-07, global = 3.04238e-20, cumulative = 1.03317e-19
ExecutionTime = 76.85 s  ClockTime = 12 s

Time = 0.008

Courant Number mean: 0.113794 max: 0.88248
nonePBiCGStab:  Solving for Ux, Initial residual = 0.0289625, Final residual = 0.0034458, No Iterations 5
nonePBiCGStab:  Solving for Uy, Initial residual = 0.0844173, Final residual = 0.0109268, No Iterations 5
nonePBiCGStab:  Solving for Uz, Initial residual = 0.229333, Final residual = 0.0307399, No Iterations 5
[OGL LOG] init_preconditioner : 0 ms
[OGL LOG] solve : 1662 ms
BJompGKOBiCGStab:  Solving for p, Initial residual = 0.411461, Final residual = 9.47171e-07, No Iterations 339
time step continuity errors : sum local = 1.76155e-09, global = -5.35938e-20, cumulative = 4.97233e-20
[OGL LOG] init_preconditioner : 0 ms
[OGL LOG] solve : 1520 ms
BJompGKOBiCGStab:  Solving for p, Initial residual = 0.342719, Final residual = 9.74609e-07, No Iterations 312
time step continuity errors : sum local = 1.66511e-09, global = -1.99333e-20, cumulative = 2.979e-20
ExecutionTime = 102.44 s  ClockTime = 15 s

Time = 0.01

Courant Number mean: 0.127339 max: 0.898878
nonePBiCGStab:  Solving for Ux, Initial residual = 0.0202776, Final residual = 0.00208482, No Iterations 5
nonePBiCGStab:  Solving for Uy, Initial residual = 0.0505618, Final residual = 0.00624336, No Iterations 5
nonePBiCGStab:  Solving for Uz, Initial residual = 0.113183, Final residual = 0.0183809, No Iterations 5
[OGL LOG] init_preconditioner : 0 ms
[OGL LOG] solve : 1490 ms
BJompGKOBiCGStab:  Solving for p, Initial residual = 0.354083, Final residual = 6.6539e-07, No Iterations 303
time step continuity errors : sum local = 2.172e-09, global = -4.62824e-21, cumulative = 2.51618e-20
[OGL LOG] init_preconditioner : 0 ms
[OGL LOG] solve : 1552 ms
BJompGKOBiCGStab:  Solving for p, Initial residual = 0.302242, Final residual = 3.75995e-07, No Iterations 316
time step continuity errors : sum local = 5.61097e-09, global = 3.0204e-20, cumulative = 5.53657e-20
ExecutionTime = 126.9 s  ClockTime = 18 s

End

