/*---------------------------------------------------------------------------*\
  =========                 |
  \\      /  F ield         | OpenFOAM: The Open Source CFD Toolbox
   \\    /   O peration     | Website:  https://openfoam.org
    \\  /    A nd           | Version:  8
     \\/     M anipulation  |
\*---------------------------------------------------------------------------*/
Build  : 8-13d66902f78c
Exec   : icoFoam
Date   : Jul 14 2021
Time   : 02:36:44
Host   : "uc2n480.localdomain"
PID    : 627295
I/O    : uncollated
Case   : /pfs/data5/home/kit/scc/nq7776/code/OGL_DATA/lidDrivenCavity3D/v0.1-136-g40fef35/f584ccac99/IntelXeonGold6230CPU@2.10GHz/Test_2021-07-14-02:36:35/25/p-BiCGStab-OF-none-reference/lidDrivenCavity3D
nProcs : 1
sigFpe : Enabling floating point exception trapping (FOAM_SIGFPE).
fileModificationChecking : Monitoring run-time modified files using timeStampMaster (fileModificationSkew 10)
allowSystemOperations : Allowing user-supplied system call operations

// * * * * * * * * * * * * * * * * * * * * * * * * * * * * * * * * * * * * * //
Create time

Create mesh for time = 0

Reading transportProperties

Reading field p

Reading field U

Reading/calculating face flux field phi


Starting time loop

Time = 0.004

Courant Number mean: 0 max: 0
nonePBiCGStab:  Solving for Ux, Initial residual = 1, Final residual = 0.0337517, No Iterations 5
nonePBiCGStab:  Solving for Uy, Initial residual = 0, Final residual = 0, No Iterations 0
nonePBiCGStab:  Solving for Uz, Initial residual = 0, Final residual = 0, No Iterations 0
nonePBiCGStab:  Solving for p, Initial residual = 1, Final residual = 4.71751e-07, No Iterations 179
time step continuity errors : sum local = 3.74458e-09, global = 1.07931e-20, cumulative = 1.07931e-20
nonePBiCGStab:  Solving for p, Initial residual = 0.622286, Final residual = 5.98962e-07, No Iterations 170
time step continuity errors : sum local = 6.954e-09, global = 4.91305e-20, cumulative = 5.99235e-20
ExecutionTime = 0.21 s  ClockTime = 1 s

Time = 0.008

Courant Number mean: 0.084228 max: 0.621061
nonePBiCGStab:  Solving for Ux, Initial residual = 0.149589, Final residual = 0.00942687, No Iterations 5
nonePBiCGStab:  Solving for Uy, Initial residual = 0.281195, Final residual = 0.0142201, No Iterations 5
nonePBiCGStab:  Solving for Uz, Initial residual = 0.933289, Final residual = 0.0511099, No Iterations 5
nonePBiCGStab:  Solving for p, Initial residual = 0.518044, Final residual = 6.86834e-07, No Iterations 173
time step continuity errors : sum local = 8.05002e-09, global = -4.40147e-20, cumulative = 1.59089e-20
nonePBiCGStab:  Solving for p, Initial residual = 0.415898, Final residual = 9.28452e-07, No Iterations 171
time step continuity errors : sum local = 1.13346e-08, global = 1.40042e-20, cumulative = 2.9913e-20
ExecutionTime = 0.33 s  ClockTime = 1 s

Time = 0.012

Courant Number mean: 0.124051 max: 0.792234
nonePBiCGStab:  Solving for Ux, Initial residual = 0.042498, Final residual = 0.00204622, No Iterations 5
nonePBiCGStab:  Solving for Uy, Initial residual = 0.0761508, Final residual = 0.00263679, No Iterations 5
nonePBiCGStab:  Solving for Uz, Initial residual = 0.142723, Final residual = 0.00668384, No Iterations 5
nonePBiCGStab:  Solving for p, Initial residual = 0.279198, Final residual = 9.35906e-07, No Iterations 170
time step continuity errors : sum local = 8.02498e-09, global = 1.10254e-20, cumulative = 4.09384e-20
nonePBiCGStab:  Solving for p, Initial residual = 0.224054, Final residual = 8.85966e-07, No Iterations 168
time step continuity errors : sum local = 7.44511e-09, global = -1.96952e-19, cumulative = -1.56014e-19
ExecutionTime = 0.44 s  ClockTime = 1 s

Time = 0.016

Courant Number mean: 0.142529 max: 0.824384
nonePBiCGStab:  Solving for Ux, Initial residual = 0.0219019, Final residual = 0.000752423, No Iterations 5
nonePBiCGStab:  Solving for Uy, Initial residual = 0.0474733, Final residual = 0.000975071, No Iterations 5
nonePBiCGStab:  Solving for Uz, Initial residual = 0.0926507, Final residual = 0.00323203, No Iterations 5
nonePBiCGStab:  Solving for p, Initial residual = 0.138549, Final residual = 9.69141e-07, No Iterations 164
time step continuity errors : sum local = 8.23307e-09, global = 1.24676e-19, cumulative = -3.13377e-20
nonePBiCGStab:  Solving for p, Initial residual = 0.106559, Final residual = 8.21648e-07, No Iterations 162
time step continuity errors : sum local = 7.07472e-09, global = 1.6761e-20, cumulative = -1.45768e-20
ExecutionTime = 0.54 s  ClockTime = 1 s

Time = 0.02

Courant Number mean: 0.154857 max: 0.843613
nonePBiCGStab:  Solving for Ux, Initial residual = 0.0136622, Final residual = 0.000405606, No Iterations 5
nonePBiCGStab:  Solving for Uy, Initial residual = 0.0288067, Final residual = 0.000728138, No Iterations 5
nonePBiCGStab:  Solving for Uz, Initial residual = 0.0552084, Final residual = 0.00171581, No Iterations 5
nonePBiCGStab:  Solving for p, Initial residual = 0.0654163, Final residual = 7.87545e-07, No Iterations 153
time step continuity errors : sum local = 6.43878e-09, global = 5.81223e-20, cumulative = 4.35455e-20
nonePBiCGStab:  Solving for p, Initial residual = 0.0510752, Final residual = 5.01273e-07, No Iterations 156
time step continuity errors : sum local = 4.09751e-09, global = 6.75838e-20, cumulative = 1.11129e-19
ExecutionTime = 0.64 s  ClockTime = 1 s

End

