/*---------------------------------------------------------------------------*\
  =========                 |
  \\      /  F ield         | OpenFOAM: The Open Source CFD Toolbox
   \\    /   O peration     | Website:  https://openfoam.org
    \\  /    A nd           | Version:  8
     \\/     M anipulation  |
\*---------------------------------------------------------------------------*/
Build  : 8-13d66902f78c
Exec   : icoFoam
Date   : Jul 12 2021
Time   : 13:15:41
Host   : "uc2n448.localdomain"
PID    : 411385
I/O    : uncollated
Case   : /pfs/data5/home/kit/scc/nq7776/code/OGL_DATA/lidDrivenCavity3D/v0.1-136-g40fef35/f584ccac99/IntelXeonGold6230CPU@2.10GHz/Test_2021-07-12-13:00:18/50/p-U-CG-GKO-BJ-omp/lidDrivenCavity3D
nProcs : 1
sigFpe : Enabling floating point exception trapping (FOAM_SIGFPE).
fileModificationChecking : Monitoring run-time modified files using timeStampMaster (fileModificationSkew 10)
allowSystemOperations : Allowing user-supplied system call operations

// * * * * * * * * * * * * * * * * * * * * * * * * * * * * * * * * * * * * * //
Create time

Create mesh for time = 0

Reading transportProperties

Reading field p

Reading field U

Reading/calculating face flux field phi


Starting time loop

Time = 0.002

Courant Number mean: 0 max: 0
[OGL LOG] init_host_sparsity_pattern : 36 ms
[OGL LOG] matrix not stored update host matrix
[OGL LOG] update_host_mtx : 18 ms
[OGL LOG] matrix is not yet sorted, compute sorting idxs
[OGL LOG] compute_sort : 990 ms
[OGL LOG] matrix is not yet sorted, sorting host matrix
[OGL LOG] sort_host_mtx_sparsity_pattern : 23 ms
[OGL LOG] sort_host_mtx : 14 ms
[OGL LOG] init_preconditioner : 10 ms
[OGL LOG] solve : 233 ms
BJompGKOBiCGStab:  Solving for Ux, Initial residual = 1, Final residual = 8.40984e-07, No Iterations 31
[OGL LOG] init_host_sparsity_pattern : 34 ms
[OGL LOG] matrix not stored update host matrix
[OGL LOG] update_host_mtx : 18 ms
[OGL LOG] matrix is not yet sorted, sorting host matrix
[OGL LOG] sort_host_mtx_sparsity_pattern : 23 ms
[OGL LOG] sort_host_mtx : 12 ms
[OGL LOG] init_preconditioner : 10 ms
[OGL LOG] solve : 6 ms
BJompGKOBiCGStab:  Solving for Uy, Initial residual = 0, Final residual = 0, No Iterations 0
[OGL LOG] init_host_sparsity_pattern : 33 ms
[OGL LOG] matrix not stored update host matrix
[OGL LOG] update_host_mtx : 15 ms
[OGL LOG] matrix is not yet sorted, sorting host matrix
[OGL LOG] sort_host_mtx_sparsity_pattern : 23 ms
[OGL LOG] sort_host_mtx : 12 ms
[OGL LOG] init_preconditioner : 9 ms
[OGL LOG] solve : 6 ms
BJompGKOBiCGStab:  Solving for Uz, Initial residual = 0, Final residual = 0, No Iterations 0
[OGL LOG] init_host_sparsity_pattern : 33 ms
[OGL LOG] matrix not stored update host matrix
[OGL LOG] update_host_mtx : 19 ms
[OGL LOG] matrix is not yet sorted, sorting host matrix
[OGL LOG] sort_host_mtx_sparsity_pattern : 24 ms
[OGL LOG] sort_host_mtx : 15 ms
[OGL LOG] init_preconditioner : 10 ms
 CG create  precond 
[OGL LOG] solve : 1516 ms
BJompGKOCG:  Solving for p, Initial residual = 1, Final residual = 9.57569e-07, No Iterations 404
time step continuity errors : sum local = 1.57675e-09, global = 7.17718e-22, cumulative = 7.17718e-22
[OGL LOG] init_preconditioner : 0 ms
 CG create  precond 
[OGL LOG] solve : 1430 ms
BJompGKOCG:  Solving for p, Initial residual = 0.721583, Final residual = 9.47224e-07, No Iterations 385
time step continuity errors : sum local = 2.06792e-09, global = -2.65112e-20, cumulative = -2.57935e-20
ExecutionTime = 14.97 s  ClockTime = 5 s

Time = 0.004

Courant Number mean: 0.0720722 max: 0.726639
[OGL LOG] init_host_sparsity_pattern : 33 ms
[OGL LOG] matrix not stored update host matrix
[OGL LOG] update_host_mtx : 16 ms
[OGL LOG] matrix is not yet sorted, sorting host matrix
[OGL LOG] sort_host_mtx_sparsity_pattern : 23 ms
[OGL LOG] sort_host_mtx : 13 ms
[OGL LOG] init_preconditioner : 0 ms
[OGL LOG] solve : 182 ms
BJompGKOBiCGStab:  Solving for Ux, Initial residual = 0.203465, Final residual = 5.55771e-07, No Iterations 23
[OGL LOG] init_host_sparsity_pattern : 33 ms
[OGL LOG] matrix not stored update host matrix
[OGL LOG] update_host_mtx : 15 ms
[OGL LOG] matrix is not yet sorted, sorting host matrix
[OGL LOG] sort_host_mtx_sparsity_pattern : 22 ms
[OGL LOG] sort_host_mtx : 12 ms
[OGL LOG] init_preconditioner : 0 ms
[OGL LOG] solve : 237 ms
BJompGKOBiCGStab:  Solving for Uy, Initial residual = 0.618431, Final residual = 9.28432e-07, No Iterations 32
[OGL LOG] init_host_sparsity_pattern : 33 ms
[OGL LOG] matrix not stored update host matrix
[OGL LOG] update_host_mtx : 16 ms
[OGL LOG] matrix is not yet sorted, sorting host matrix
[OGL LOG] sort_host_mtx_sparsity_pattern : 22 ms
[OGL LOG] sort_host_mtx : 12 ms
[OGL LOG] init_preconditioner : 0 ms
[OGL LOG] solve : 230 ms
BJompGKOBiCGStab:  Solving for Uz, Initial residual = 0.536268, Final residual = 9.93719e-07, No Iterations 31
[OGL LOG] init_preconditioner : 0 ms
 CG create  precond 
[OGL LOG] solve : 1426 ms
BJompGKOCG:  Solving for p, Initial residual = 0.673319, Final residual = 9.36062e-07, No Iterations 377
time step continuity errors : sum local = 2.21985e-09, global = 3.91752e-21, cumulative = -2.18759e-20
[OGL LOG] init_preconditioner : 0 ms
 CG create  precond 
[OGL LOG] solve : 1387 ms
BJompGKOCG:  Solving for p, Initial residual = 0.598888, Final residual = 9.48279e-07, No Iterations 376
time step continuity errors : sum local = 2.30809e-09, global = 1.62457e-22, cumulative = -2.17135e-20
ExecutionTime = 29.26 s  ClockTime = 9 s

Time = 0.006

Courant Number mean: 0.107408 max: 0.881754
[OGL LOG] init_host_sparsity_pattern : 33 ms
[OGL LOG] matrix not stored update host matrix
[OGL LOG] update_host_mtx : 17 ms
[OGL LOG] matrix is not yet sorted, sorting host matrix
[OGL LOG] sort_host_mtx_sparsity_pattern : 24 ms
[OGL LOG] sort_host_mtx : 13 ms
[OGL LOG] init_preconditioner : 0 ms
[OGL LOG] solve : 157 ms
BJompGKOBiCGStab:  Solving for Ux, Initial residual = 0.0995685, Final residual = 7.01793e-07, No Iterations 21
[OGL LOG] init_host_sparsity_pattern : 33 ms
[OGL LOG] matrix not stored update host matrix
[OGL LOG] update_host_mtx : 15 ms
[OGL LOG] matrix is not yet sorted, sorting host matrix
[OGL LOG] sort_host_mtx_sparsity_pattern : 22 ms
[OGL LOG] sort_host_mtx : 12 ms
[OGL LOG] init_preconditioner : 0 ms
[OGL LOG] solve : 215 ms
BJompGKOBiCGStab:  Solving for Uy, Initial residual = 0.249969, Final residual = 8.21653e-07, No Iterations 29
[OGL LOG] init_host_sparsity_pattern : 33 ms
[OGL LOG] matrix not stored update host matrix
[OGL LOG] update_host_mtx : 15 ms
[OGL LOG] matrix is not yet sorted, sorting host matrix
[OGL LOG] sort_host_mtx_sparsity_pattern : 22 ms
[OGL LOG] sort_host_mtx : 12 ms
[OGL LOG] init_preconditioner : 0 ms
[OGL LOG] solve : 237 ms
BJompGKOBiCGStab:  Solving for Uz, Initial residual = 0.540949, Final residual = 8.7652e-07, No Iterations 32
[OGL LOG] init_preconditioner : 0 ms
 CG create  precond 
[OGL LOG] solve : 1530 ms
BJompGKOCG:  Solving for p, Initial residual = 0.60689, Final residual = 9.38926e-07, No Iterations 408
time step continuity errors : sum local = 1.59881e-09, global = -1.53857e-20, cumulative = -3.70992e-20
[OGL LOG] init_preconditioner : 0 ms
 CG create  precond 
[OGL LOG] solve : 1507 ms
BJompGKOCG:  Solving for p, Initial residual = 0.560846, Final residual = 9.19105e-07, No Iterations 407
time step continuity errors : sum local = 1.51283e-09, global = 2.67441e-20, cumulative = -1.03551e-20
ExecutionTime = 44.28 s  ClockTime = 13 s

Time = 0.008

Courant Number mean: 0.123244 max: 0.890102
[OGL LOG] init_host_sparsity_pattern : 33 ms
[OGL LOG] matrix not stored update host matrix
[OGL LOG] update_host_mtx : 17 ms
[OGL LOG] matrix is not yet sorted, sorting host matrix
[OGL LOG] sort_host_mtx_sparsity_pattern : 24 ms
[OGL LOG] sort_host_mtx : 13 ms
[OGL LOG] init_preconditioner : 0 ms
[OGL LOG] solve : 186 ms
BJompGKOBiCGStab:  Solving for Ux, Initial residual = 0.0341421, Final residual = 7.88567e-07, No Iterations 25
[OGL LOG] init_host_sparsity_pattern : 33 ms
[OGL LOG] matrix not stored update host matrix
[OGL LOG] update_host_mtx : 15 ms
[OGL LOG] matrix is not yet sorted, sorting host matrix
[OGL LOG] sort_host_mtx_sparsity_pattern : 22 ms
[OGL LOG] sort_host_mtx : 12 ms
[OGL LOG] init_preconditioner : 0 ms
[OGL LOG] solve : 207 ms
BJompGKOBiCGStab:  Solving for Uy, Initial residual = 0.13238, Final residual = 8.14636e-07, No Iterations 28
[OGL LOG] init_host_sparsity_pattern : 33 ms
[OGL LOG] matrix not stored update host matrix
[OGL LOG] update_host_mtx : 15 ms
[OGL LOG] matrix is not yet sorted, sorting host matrix
[OGL LOG] sort_host_mtx_sparsity_pattern : 22 ms
[OGL LOG] sort_host_mtx : 12 ms
[OGL LOG] init_preconditioner : 0 ms
[OGL LOG] solve : 231 ms
BJompGKOBiCGStab:  Solving for Uz, Initial residual = 0.47195, Final residual = 9.43575e-07, No Iterations 31
[OGL LOG] init_preconditioner : 0 ms
 CG create  precond 
[OGL LOG] solve : 1505 ms
BJompGKOCG:  Solving for p, Initial residual = 0.42304, Final residual = 9.07284e-07, No Iterations 403
time step continuity errors : sum local = 1.43249e-09, global = 4.8796e-21, cumulative = -5.47553e-21
[OGL LOG] init_preconditioner : 0 ms
 CG create  precond 
[OGL LOG] solve : 1478 ms
BJompGKOCG:  Solving for p, Initial residual = 0.368379, Final residual = 9.22106e-07, No Iterations 402
time step continuity errors : sum local = 1.47704e-09, global = -4.7894e-21, cumulative = -1.02649e-20
ExecutionTime = 59.15 s  ClockTime = 17 s

Time = 0.01

Courant Number mean: 0.136096 max: 0.906942
[OGL LOG] init_host_sparsity_pattern : 33 ms
[OGL LOG] matrix not stored update host matrix
[OGL LOG] update_host_mtx : 15 ms
[OGL LOG] matrix is not yet sorted, sorting host matrix
[OGL LOG] sort_host_mtx_sparsity_pattern : 22 ms
[OGL LOG] sort_host_mtx : 12 ms
[OGL LOG] init_preconditioner : 0 ms
[OGL LOG] solve : 177 ms
BJompGKOBiCGStab:  Solving for Ux, Initial residual = 0.0230738, Final residual = 7.32559e-07, No Iterations 24
[OGL LOG] init_host_sparsity_pattern : 33 ms
[OGL LOG] matrix not stored update host matrix
[OGL LOG] update_host_mtx : 15 ms
[OGL LOG] matrix is not yet sorted, sorting host matrix
[OGL LOG] sort_host_mtx_sparsity_pattern : 22 ms
[OGL LOG] sort_host_mtx : 12 ms
[OGL LOG] init_preconditioner : 0 ms
[OGL LOG] solve : 184 ms
BJompGKOBiCGStab:  Solving for Uy, Initial residual = 0.0484117, Final residual = 9.76202e-07, No Iterations 25
[OGL LOG] init_host_sparsity_pattern : 33 ms
[OGL LOG] matrix not stored update host matrix
[OGL LOG] update_host_mtx : 15 ms
[OGL LOG] matrix is not yet sorted, sorting host matrix
[OGL LOG] sort_host_mtx_sparsity_pattern : 22 ms
[OGL LOG] sort_host_mtx : 12 ms
[OGL LOG] init_preconditioner : 0 ms
[OGL LOG] solve : 207 ms
BJompGKOBiCGStab:  Solving for Uz, Initial residual = 0.159037, Final residual = 8.4966e-07, No Iterations 28
[OGL LOG] init_preconditioner : 0 ms
 CG create  precond 
[OGL LOG] solve : 1428 ms
BJompGKOCG:  Solving for p, Initial residual = 0.361668, Final residual = 9.8715e-07, No Iterations 381
time step continuity errors : sum local = 1.34865e-09, global = -1.69183e-21, cumulative = -1.19568e-20
[OGL LOG] init_preconditioner : 0 ms
 CG create  precond 
[OGL LOG] solve : 1395 ms
BJompGKOCG:  Solving for p, Initial residual = 0.333162, Final residual = 9.57799e-07, No Iterations 380
time step continuity errors : sum local = 1.29683e-09, global = -1.94031e-21, cumulative = -1.38971e-20
ExecutionTime = 73.15 s  ClockTime = 21 s

End

