/*---------------------------------------------------------------------------*\
  =========                 |
  \\      /  F ield         | OpenFOAM: The Open Source CFD Toolbox
   \\    /   O peration     | Website:  https://openfoam.org
    \\  /    A nd           | Version:  8
     \\/     M anipulation  |
\*---------------------------------------------------------------------------*/
Build  : 8-13d66902f78c
Exec   : icoFoam
Date   : Jul 14 2021
Time   : 03:39:32
Host   : "uc2n398.localdomain"
PID    : 550913
I/O    : uncollated
Case   : /pfs/data5/home/kit/scc/nq7776/code/OGL_DATA/lidDrivenCavity3D/v0.1-136-g40fef35/f584ccac99/IntelXeonGold6230CPU@2.10GHz/Test_2021-07-14-01:40:40/75/p-U-BiCGStab-GKO-BJ-omp/lidDrivenCavity3D
nProcs : 1
sigFpe : Enabling floating point exception trapping (FOAM_SIGFPE).
fileModificationChecking : Monitoring run-time modified files using timeStampMaster (fileModificationSkew 10)
allowSystemOperations : Allowing user-supplied system call operations

// * * * * * * * * * * * * * * * * * * * * * * * * * * * * * * * * * * * * * //
Create time

Create mesh for time = 0

Reading transportProperties

Reading field p

Reading field U

Reading/calculating face flux field phi


Starting time loop

Time = 0.00133333

Courant Number mean: 0 max: 0
[OGL LOG] init_host_sparsity_pattern : 120 ms
[OGL LOG] matrix not stored update host matrix
[OGL LOG] update_host_mtx : 61 ms
[OGL LOG] matrix is not yet sorted, compute sorting idxs
[OGL LOG] compute_sort : 3346 ms
[OGL LOG] matrix is not yet sorted, sorting host matrix
[OGL LOG] sort_host_mtx_sparsity_pattern : 77 ms
[OGL LOG] sort_host_mtx : 52 ms
[OGL LOG] init_preconditioner : 11 ms
[OGL LOG] solve : 767 ms
BJompGKOBiCGStab:  Solving for Ux, Initial residual = 1, Final residual = 8.05502e-07, No Iterations 44
[OGL LOG] init_host_sparsity_pattern : 116 ms
[OGL LOG] matrix not stored update host matrix
[OGL LOG] update_host_mtx : 61 ms
[OGL LOG] matrix is not yet sorted, sorting host matrix
[OGL LOG] sort_host_mtx_sparsity_pattern : 80 ms
[OGL LOG] sort_host_mtx : 43 ms
[OGL LOG] init_preconditioner : 11 ms
[OGL LOG] solve : 17 ms
BJompGKOBiCGStab:  Solving for Uy, Initial residual = 0, Final residual = 0, No Iterations 0
[OGL LOG] init_host_sparsity_pattern : 112 ms
[OGL LOG] matrix not stored update host matrix
[OGL LOG] update_host_mtx : 53 ms
[OGL LOG] matrix is not yet sorted, sorting host matrix
[OGL LOG] sort_host_mtx_sparsity_pattern : 76 ms
[OGL LOG] sort_host_mtx : 48 ms
[OGL LOG] init_preconditioner : 11 ms
[OGL LOG] solve : 18 ms
BJompGKOBiCGStab:  Solving for Uz, Initial residual = 0, Final residual = 0, No Iterations 0
[OGL LOG] init_host_sparsity_pattern : 112 ms
[OGL LOG] matrix not stored update host matrix
[OGL LOG] update_host_mtx : 67 ms
[OGL LOG] matrix is not yet sorted, sorting host matrix
[OGL LOG] sort_host_mtx_sparsity_pattern : 82 ms
[OGL LOG] sort_host_mtx : 43 ms
[OGL LOG] init_preconditioner : 10 ms
[OGL LOG] solve : 6484 ms
BJompGKOBiCGStab:  Solving for p, Initial residual = 1, Final residual = 9.90854e-07, No Iterations 491
time step continuity errors : sum local = 4.93194e-08, global = 1.39463e-21, cumulative = 1.39463e-21
[OGL LOG] init_preconditioner : 0 ms
[OGL LOG] solve : 5409 ms
BJompGKOBiCGStab:  Solving for p, Initial residual = 0.759316, Final residual = 7.03009e-07, No Iterations 467
time step continuity errors : sum local = 1.02298e-09, global = 3.14913e-21, cumulative = 4.54376e-21
ExecutionTime = 413.96 s  ClockTime = 19 s

Time = 0.00266667

Courant Number mean: 0.0631769 max: 0.775391
[OGL LOG] init_host_sparsity_pattern : 112 ms
[OGL LOG] matrix not stored update host matrix
[OGL LOG] update_host_mtx : 56 ms
[OGL LOG] matrix is not yet sorted, sorting host matrix
[OGL LOG] sort_host_mtx_sparsity_pattern : 79 ms
[OGL LOG] sort_host_mtx : 44 ms
[OGL LOG] init_preconditioner : 0 ms
[OGL LOG] solve : 572 ms
BJompGKOBiCGStab:  Solving for Ux, Initial residual = 0.183023, Final residual = 8.52469e-07, No Iterations 43
[OGL LOG] init_host_sparsity_pattern : 112 ms
[OGL LOG] matrix not stored update host matrix
[OGL LOG] update_host_mtx : 55 ms
[OGL LOG] matrix is not yet sorted, sorting host matrix
[OGL LOG] sort_host_mtx_sparsity_pattern : 73 ms
[OGL LOG] sort_host_mtx : 43 ms
[OGL LOG] init_preconditioner : 0 ms
[OGL LOG] solve : 644 ms
BJompGKOBiCGStab:  Solving for Uy, Initial residual = 0.619638, Final residual = 9.99292e-07, No Iterations 49
[OGL LOG] init_host_sparsity_pattern : 113 ms
[OGL LOG] matrix not stored update host matrix
[OGL LOG] update_host_mtx : 54 ms
[OGL LOG] matrix is not yet sorted, sorting host matrix
[OGL LOG] sort_host_mtx_sparsity_pattern : 73 ms
[OGL LOG] sort_host_mtx : 43 ms
[OGL LOG] init_preconditioner : 0 ms
[OGL LOG] solve : 616 ms
BJompGKOBiCGStab:  Solving for Uz, Initial residual = 0.604582, Final residual = 8.57027e-07, No Iterations 47
[OGL LOG] init_preconditioner : 0 ms
[OGL LOG] solve : 6082 ms
BJompGKOBiCGStab:  Solving for p, Initial residual = 0.749122, Final residual = 8.63331e-07, No Iterations 511
time step continuity errors : sum local = 2.10184e-09, global = 1.03263e-20, cumulative = 1.487e-20
[OGL LOG] init_preconditioner : 0 ms
[OGL LOG] solve : 5510 ms
BJompGKOBiCGStab:  Solving for p, Initial residual = 0.683917, Final residual = 9.19708e-07, No Iterations 481
time step continuity errors : sum local = 2.45026e-09, global = 1.12592e-20, cumulative = 2.61293e-20
ExecutionTime = 844.37 s  ClockTime = 34 s

Time = 0.004

Courant Number mean: 0.0951458 max: 0.917122
[OGL LOG] init_host_sparsity_pattern : 112 ms
[OGL LOG] matrix not stored update host matrix
[OGL LOG] update_host_mtx : 59 ms
[OGL LOG] matrix is not yet sorted, sorting host matrix
[OGL LOG] sort_host_mtx_sparsity_pattern : 82 ms
[OGL LOG] sort_host_mtx : 43 ms
[OGL LOG] init_preconditioner : 0 ms
[OGL LOG] solve : 700 ms
BJompGKOBiCGStab:  Solving for Ux, Initial residual = 0.101929, Final residual = 8.44295e-07, No Iterations 42
[OGL LOG] init_host_sparsity_pattern : 112 ms
[OGL LOG] matrix not stored update host matrix
[OGL LOG] update_host_mtx : 53 ms
[OGL LOG] matrix is not yet sorted, sorting host matrix
[OGL LOG] sort_host_mtx_sparsity_pattern : 73 ms
[OGL LOG] sort_host_mtx : 43 ms
[OGL LOG] init_preconditioner : 0 ms
[OGL LOG] solve : 697 ms
BJompGKOBiCGStab:  Solving for Uy, Initial residual = 0.335482, Final residual = 9.07489e-07, No Iterations 44
[OGL LOG] init_host_sparsity_pattern : 114 ms
[OGL LOG] matrix not stored update host matrix
[OGL LOG] update_host_mtx : 57 ms
[OGL LOG] matrix is not yet sorted, sorting host matrix
[OGL LOG] sort_host_mtx_sparsity_pattern : 72 ms
[OGL LOG] sort_host_mtx : 43 ms
[OGL LOG] init_preconditioner : 0 ms
[OGL LOG] solve : 641 ms
BJompGKOBiCGStab:  Solving for Uz, Initial residual = 0.920842, Final residual = 6.7532e-07, No Iterations 40
[OGL LOG] init_preconditioner : 0 ms
[OGL LOG] solve : 6409 ms
BJompGKOBiCGStab:  Solving for p, Initial residual = 0.754751, Final residual = 5.30694e-07, No Iterations 517
time step continuity errors : sum local = 1.64033e-08, global = -1.68436e-21, cumulative = 2.44449e-20
[OGL LOG] init_preconditioner : 0 ms
[OGL LOG] solve : 5873 ms
BJompGKOBiCGStab:  Solving for p, Initial residual = 0.717047, Final residual = 8.04296e-07, No Iterations 506
time step continuity errors : sum local = 7.70603e-09, global = 1.19197e-20, cumulative = 3.63646e-20
ExecutionTime = 1303.69 s  ClockTime = 50 s

Time = 0.00533333

Courant Number mean: 0.109256 max: 0.913461
[OGL LOG] init_host_sparsity_pattern : 114 ms
[OGL LOG] matrix not stored update host matrix
[OGL LOG] update_host_mtx : 53 ms
[OGL LOG] matrix is not yet sorted, sorting host matrix
[OGL LOG] sort_host_mtx_sparsity_pattern : 79 ms
[OGL LOG] sort_host_mtx : 43 ms
[OGL LOG] init_preconditioner : 0 ms
[OGL LOG] solve : 547 ms
BJompGKOBiCGStab:  Solving for Ux, Initial residual = 0.0446932, Final residual = 5.84457e-07, No Iterations 40
[OGL LOG] init_host_sparsity_pattern : 112 ms
[OGL LOG] matrix not stored update host matrix
[OGL LOG] update_host_mtx : 54 ms
[OGL LOG] matrix is not yet sorted, sorting host matrix
[OGL LOG] sort_host_mtx_sparsity_pattern : 72 ms
[OGL LOG] sort_host_mtx : 43 ms
[OGL LOG] init_preconditioner : 0 ms
[OGL LOG] solve : 571 ms
BJompGKOBiCGStab:  Solving for Uy, Initial residual = 0.197563, Final residual = 9.17289e-07, No Iterations 42
[OGL LOG] init_host_sparsity_pattern : 112 ms
[OGL LOG] matrix not stored update host matrix
[OGL LOG] update_host_mtx : 53 ms
[OGL LOG] matrix is not yet sorted, sorting host matrix
[OGL LOG] sort_host_mtx_sparsity_pattern : 72 ms
[OGL LOG] sort_host_mtx : 43 ms
[OGL LOG] init_preconditioner : 0 ms
[OGL LOG] solve : 538 ms
BJompGKOBiCGStab:  Solving for Uz, Initial residual = 0.732857, Final residual = 7.96701e-07, No Iterations 40
[OGL LOG] init_preconditioner : 0 ms
[OGL LOG] solve : 5869 ms
BJompGKOBiCGStab:  Solving for p, Initial residual = 0.617341, Final residual = 4.59726e-07, No Iterations 506
time step continuity errors : sum local = 9.11718e-09, global = 1.44253e-20, cumulative = 5.07899e-20
[OGL LOG] init_preconditioner : 0 ms
[OGL LOG] solve : 5787 ms
BJompGKOBiCGStab:  Solving for p, Initial residual = 0.554726, Final residual = 6.58101e-07, No Iterations 498
time step continuity errors : sum local = 7.68565e-10, global = -1.80819e-20, cumulative = 3.2708e-20
ExecutionTime = 1730.78 s  ClockTime = 64 s

Time = 0.00666667

Courant Number mean: 0.122084 max: 0.929108
[OGL LOG] init_host_sparsity_pattern : 112 ms
[OGL LOG] matrix not stored update host matrix
[OGL LOG] update_host_mtx : 54 ms
[OGL LOG] matrix is not yet sorted, sorting host matrix
[OGL LOG] sort_host_mtx_sparsity_pattern : 72 ms
[OGL LOG] sort_host_mtx : 43 ms
[OGL LOG] init_preconditioner : 0 ms
[OGL LOG] solve : 480 ms
BJompGKOBiCGStab:  Solving for Ux, Initial residual = 0.0319089, Final residual = 6.81004e-07, No Iterations 36
[OGL LOG] init_host_sparsity_pattern : 112 ms
[OGL LOG] matrix not stored update host matrix
[OGL LOG] update_host_mtx : 53 ms
[OGL LOG] matrix is not yet sorted, sorting host matrix
[OGL LOG] sort_host_mtx_sparsity_pattern : 72 ms
[OGL LOG] sort_host_mtx : 43 ms
[OGL LOG] init_preconditioner : 0 ms
[OGL LOG] solve : 471 ms
BJompGKOBiCGStab:  Solving for Uy, Initial residual = 0.0804488, Final residual = 9.35088e-07, No Iterations 35
[OGL LOG] init_host_sparsity_pattern : 112 ms
[OGL LOG] matrix not stored update host matrix
[OGL LOG] update_host_mtx : 53 ms
[OGL LOG] matrix is not yet sorted, sorting host matrix
[OGL LOG] sort_host_mtx_sparsity_pattern : 72 ms
[OGL LOG] sort_host_mtx : 43 ms
[OGL LOG] init_preconditioner : 0 ms
[OGL LOG] solve : 624 ms
BJompGKOBiCGStab:  Solving for Uz, Initial residual = 0.513746, Final residual = 8.08567e-07, No Iterations 46
[OGL LOG] init_preconditioner : 0 ms
[OGL LOG] solve : 3840 ms
BJompGKOBiCGStab:  Solving for p, Initial residual = 0.591971, Final residual = 9.95741e-07, No Iterations 325
time step continuity errors : sum local = 1.67065e-09, global = -1.51959e-20, cumulative = 1.75121e-20
[OGL LOG] init_preconditioner : 0 ms
[OGL LOG] solve : 3340 ms
BJompGKOBiCGStab:  Solving for p, Initial residual = 0.543103, Final residual = 9.64943e-07, No Iterations 288
time step continuity errors : sum local = 1.30035e-09, global = 2.38191e-20, cumulative = 4.13311e-20
ExecutionTime = 2012.47 s  ClockTime = 74 s

End

