/*---------------------------------------------------------------------------*\
  =========                 |
  \\      /  F ield         | OpenFOAM: The Open Source CFD Toolbox
   \\    /   O peration     | Website:  https://openfoam.org
    \\  /    A nd           | Version:  8
     \\/     M anipulation  |
\*---------------------------------------------------------------------------*/
Build  : 8-13d66902f78c
Exec   : icoFoam
Date   : Jul 14 2021
Time   : 01:45:21
Host   : "uc2n538.localdomain"
PID    : 2773667
I/O    : uncollated
Case   : /pfs/data5/home/kit/scc/nq7776/code/OGL_DATA/lidDrivenCavity3D/v0.1-136-g40fef35/f584ccac99/IntelXeonGold6230CPU@2.10GHz/Test_2021-07-14-01:45:13/25/p-CG-OF-DIC-reference/lidDrivenCavity3D
nProcs : 1
sigFpe : Enabling floating point exception trapping (FOAM_SIGFPE).
fileModificationChecking : Monitoring run-time modified files using timeStampMaster (fileModificationSkew 10)
allowSystemOperations : Allowing user-supplied system call operations

// * * * * * * * * * * * * * * * * * * * * * * * * * * * * * * * * * * * * * //
Create time

Create mesh for time = 0

Reading transportProperties

Reading field p

Reading field U

Reading/calculating face flux field phi


Starting time loop

Time = 0.004

Courant Number mean: 0 max: 0
nonePBiCGStab:  Solving for Ux, Initial residual = 1, Final residual = 0.0337517, No Iterations 5
nonePBiCGStab:  Solving for Uy, Initial residual = 0, Final residual = 0, No Iterations 0
nonePBiCGStab:  Solving for Uz, Initial residual = 0, Final residual = 0, No Iterations 0
DICPCG:  Solving for p, Initial residual = 1, Final residual = 8.83395e-07, No Iterations 68
time step continuity errors : sum local = 3.50704e-09, global = -2.56037e-20, cumulative = -2.56037e-20
DICPCG:  Solving for p, Initial residual = 0.622285, Final residual = 7.89987e-07, No Iterations 67
time step continuity errors : sum local = 4.58794e-09, global = 1.59575e-19, cumulative = 1.33971e-19
ExecutionTime = 0.14 s  ClockTime = 0 s

Time = 0.008

Courant Number mean: 0.084228 max: 0.621061
nonePBiCGStab:  Solving for Ux, Initial residual = 0.149589, Final residual = 0.00942683, No Iterations 5
nonePBiCGStab:  Solving for Uy, Initial residual = 0.281195, Final residual = 0.0142199, No Iterations 5
nonePBiCGStab:  Solving for Uz, Initial residual = 0.933286, Final residual = 0.0511083, No Iterations 5
DICPCG:  Solving for p, Initial residual = 0.518045, Final residual = 6.35463e-07, No Iterations 66
time step continuity errors : sum local = 3.72517e-09, global = -3.14986e-20, cumulative = 1.02473e-19
DICPCG:  Solving for p, Initial residual = 0.415898, Final residual = 7.89956e-07, No Iterations 65
time step continuity errors : sum local = 4.8239e-09, global = -1.24858e-19, cumulative = -2.23852e-20
ExecutionTime = 0.19 s  ClockTime = 0 s

Time = 0.012

Courant Number mean: 0.124051 max: 0.792234
nonePBiCGStab:  Solving for Ux, Initial residual = 0.0425001, Final residual = 0.00204637, No Iterations 5
nonePBiCGStab:  Solving for Uy, Initial residual = 0.0761453, Final residual = 0.00263682, No Iterations 5
nonePBiCGStab:  Solving for Uz, Initial residual = 0.142704, Final residual = 0.00668448, No Iterations 5
DICPCG:  Solving for p, Initial residual = 0.279187, Final residual = 6.51039e-07, No Iterations 64
time step continuity errors : sum local = 2.79151e-09, global = -1.34744e-19, cumulative = -1.57129e-19
DICPCG:  Solving for p, Initial residual = 0.22405, Final residual = 8.19576e-07, No Iterations 63
time step continuity errors : sum local = 3.44388e-09, global = 8.80612e-20, cumulative = -6.90677e-20
ExecutionTime = 0.23 s  ClockTime = 0 s

Time = 0.016

Courant Number mean: 0.142529 max: 0.824384
nonePBiCGStab:  Solving for Ux, Initial residual = 0.0219032, Final residual = 0.000752461, No Iterations 5
nonePBiCGStab:  Solving for Uy, Initial residual = 0.0474704, Final residual = 0.000975033, No Iterations 5
nonePBiCGStab:  Solving for Uz, Initial residual = 0.0926559, Final residual = 0.00322909, No Iterations 5
DICPCG:  Solving for p, Initial residual = 0.138551, Final residual = 7.57278e-07, No Iterations 63
time step continuity errors : sum local = 3.21745e-09, global = -1.77986e-19, cumulative = -2.47054e-19
DICPCG:  Solving for p, Initial residual = 0.10656, Final residual = 9.72866e-07, No Iterations 62
time step continuity errors : sum local = 4.18955e-09, global = 5.29334e-20, cumulative = -1.94121e-19
ExecutionTime = 0.27 s  ClockTime = 0 s

Time = 0.02

Courant Number mean: 0.154857 max: 0.843613
nonePBiCGStab:  Solving for Ux, Initial residual = 0.0136635, Final residual = 0.000405685, No Iterations 5
nonePBiCGStab:  Solving for Uy, Initial residual = 0.0288036, Final residual = 0.000728008, No Iterations 5
nonePBiCGStab:  Solving for Uz, Initial residual = 0.0551894, Final residual = 0.0017137, No Iterations 5
DICPCG:  Solving for p, Initial residual = 0.0654132, Final residual = 5.87538e-07, No Iterations 62
time step continuity errors : sum local = 2.40395e-09, global = -4.46329e-22, cumulative = -1.94567e-19
DICPCG:  Solving for p, Initial residual = 0.0510731, Final residual = 8.83161e-07, No Iterations 61
time step continuity errors : sum local = 3.61199e-09, global = -8.48238e-21, cumulative = -2.03049e-19
ExecutionTime = 0.31 s  ClockTime = 0 s

End

