/*---------------------------------------------------------------------------*\
  =========                 |
  \\      /  F ield         | OpenFOAM: The Open Source CFD Toolbox
   \\    /   O peration     | Website:  https://openfoam.org
    \\  /    A nd           | Version:  8
     \\/     M anipulation  |
\*---------------------------------------------------------------------------*/
Build  : 8-13d66902f78c
Exec   : icoFoam
Date   : Jul 12 2021
Time   : 12:46:57
Host   : "uc2n402.localdomain"
PID    : 3427665
I/O    : uncollated
Case   : /pfs/data5/home/kit/scc/nq7776/code/OGL_DATA/lidDrivenCavity3D/v0.1-136-g40fef35/f584ccac99/IntelXeonGold6230CPU@2.10GHz/Test_2021-07-12-12:43:44/25/p-U-CG-GKO-none-omp/lidDrivenCavity3D
nProcs : 1
sigFpe : Enabling floating point exception trapping (FOAM_SIGFPE).
fileModificationChecking : Monitoring run-time modified files using timeStampMaster (fileModificationSkew 10)
allowSystemOperations : Allowing user-supplied system call operations

// * * * * * * * * * * * * * * * * * * * * * * * * * * * * * * * * * * * * * //
Create time

Create mesh for time = 0

Reading transportProperties

Reading field p

Reading field U

Reading/calculating face flux field phi


Starting time loop

Time = 0.004

Courant Number mean: 0 max: 0
[OGL LOG] init_host_sparsity_pattern : 4 ms
[OGL LOG] matrix not stored update host matrix
[OGL LOG] update_host_mtx : 2 ms
[OGL LOG] matrix is not yet sorted, compute sorting idxs
[OGL LOG] compute_sort : 106 ms
[OGL LOG] matrix is not yet sorted, sorting host matrix
[OGL LOG] sort_host_mtx_sparsity_pattern : 2 ms
[OGL LOG] sort_host_mtx : 1 ms
[OGL LOG] init_preconditioner : 0 ms
[OGL LOG] solve : 12 ms
noneompGKOBiCGStab:  Solving for Ux, Initial residual = 1, Final residual = 7.6541e-07, No Iterations 28
[OGL LOG] init_host_sparsity_pattern : 4 ms
[OGL LOG] matrix not stored update host matrix
[OGL LOG] update_host_mtx : 2 ms
[OGL LOG] matrix is not yet sorted, sorting host matrix
[OGL LOG] sort_host_mtx_sparsity_pattern : 3 ms
[OGL LOG] sort_host_mtx : 1 ms
[OGL LOG] init_preconditioner : 0 ms
[OGL LOG] solve : 0 ms
noneompGKOBiCGStab:  Solving for Uy, Initial residual = 0, Final residual = 0, No Iterations 0
[OGL LOG] init_host_sparsity_pattern : 4 ms
[OGL LOG] matrix not stored update host matrix
[OGL LOG] update_host_mtx : 1 ms
[OGL LOG] matrix is not yet sorted, sorting host matrix
[OGL LOG] sort_host_mtx_sparsity_pattern : 2 ms
[OGL LOG] sort_host_mtx : 1 ms
[OGL LOG] init_preconditioner : 0 ms
[OGL LOG] solve : 0 ms
noneompGKOBiCGStab:  Solving for Uz, Initial residual = 0, Final residual = 0, No Iterations 0
[OGL LOG] init_host_sparsity_pattern : 4 ms
[OGL LOG] matrix not stored update host matrix
[OGL LOG] update_host_mtx : 1 ms
[OGL LOG] matrix is not yet sorted, sorting host matrix
[OGL LOG] sort_host_mtx_sparsity_pattern : 2 ms
[OGL LOG] sort_host_mtx : 1 ms
[OGL LOG] init_preconditioner : 0 ms
[OGL LOG] solve : 44 ms
noneompGKOCG:  Solving for p, Initial residual = 1, Final residual = 9.38066e-07, No Iterations 219
time step continuity errors : sum local = 4.16175e-09, global = 7.85997e-20, cumulative = 7.85997e-20
[OGL LOG] init_preconditioner : 0 ms
[OGL LOG] solve : 43 ms
noneompGKOCG:  Solving for p, Initial residual = 0.644082, Final residual = 9.99469e-07, No Iterations 214
time step continuity errors : sum local = 6.27139e-09, global = -4.33789e-21, cumulative = 7.42618e-20
ExecutionTime = 1.23 s  ClockTime = 1 s

Time = 0.008

Courant Number mean: 0.0870974 max: 0.619854
[OGL LOG] init_host_sparsity_pattern : 4 ms
[OGL LOG] matrix not stored update host matrix
[OGL LOG] update_host_mtx : 1 ms
[OGL LOG] matrix is not yet sorted, sorting host matrix
[OGL LOG] sort_host_mtx_sparsity_pattern : 2 ms
[OGL LOG] sort_host_mtx : 1 ms
[OGL LOG] init_preconditioner : 0 ms
[OGL LOG] solve : 10 ms
noneompGKOBiCGStab:  Solving for Ux, Initial residual = 0.238938, Final residual = 6.81759e-07, No Iterations 25
[OGL LOG] init_host_sparsity_pattern : 4 ms
[OGL LOG] matrix not stored update host matrix
[OGL LOG] update_host_mtx : 2 ms
[OGL LOG] matrix is not yet sorted, sorting host matrix
[OGL LOG] sort_host_mtx_sparsity_pattern : 2 ms
[OGL LOG] sort_host_mtx : 1 ms
[OGL LOG] init_preconditioner : 0 ms
[OGL LOG] solve : 11 ms
noneompGKOBiCGStab:  Solving for Uy, Initial residual = 0.615478, Final residual = 9.88854e-07, No Iterations 27
[OGL LOG] init_host_sparsity_pattern : 4 ms
[OGL LOG] matrix not stored update host matrix
[OGL LOG] update_host_mtx : 2 ms
[OGL LOG] matrix is not yet sorted, sorting host matrix
[OGL LOG] sort_host_mtx_sparsity_pattern : 2 ms
[OGL LOG] sort_host_mtx : 1 ms
[OGL LOG] init_preconditioner : 0 ms
[OGL LOG] solve : 9 ms
noneompGKOBiCGStab:  Solving for Uz, Initial residual = 0.391817, Final residual = 9.15836e-07, No Iterations 24
[OGL LOG] init_preconditioner : 0 ms
[OGL LOG] solve : 43 ms
noneompGKOCG:  Solving for p, Initial residual = 0.527353, Final residual = 8.63025e-07, No Iterations 212
time step continuity errors : sum local = 5.16863e-09, global = 7.2134e-20, cumulative = 1.46396e-19
[OGL LOG] init_preconditioner : 0 ms
[OGL LOG] solve : 42 ms
noneompGKOCG:  Solving for p, Initial residual = 0.437513, Final residual = 8.77224e-07, No Iterations 210
time step continuity errors : sum local = 5.474e-09, global = 3.17022e-20, cumulative = 1.78098e-19
ExecutionTime = 2.34 s  ClockTime = 1 s

Time = 0.012

Courant Number mean: 0.127403 max: 0.798792
[OGL LOG] init_host_sparsity_pattern : 4 ms
[OGL LOG] matrix not stored update host matrix
[OGL LOG] update_host_mtx : 1 ms
[OGL LOG] matrix is not yet sorted, sorting host matrix
[OGL LOG] sort_host_mtx_sparsity_pattern : 2 ms
[OGL LOG] sort_host_mtx : 1 ms
[OGL LOG] init_preconditioner : 0 ms
[OGL LOG] solve : 11 ms
noneompGKOBiCGStab:  Solving for Ux, Initial residual = 0.0920495, Final residual = 9.86942e-07, No Iterations 22
[OGL LOG] init_host_sparsity_pattern : 4 ms
[OGL LOG] matrix not stored update host matrix
[OGL LOG] update_host_mtx : 1 ms
[OGL LOG] matrix is not yet sorted, sorting host matrix
[OGL LOG] sort_host_mtx_sparsity_pattern : 2 ms
[OGL LOG] sort_host_mtx : 1 ms
[OGL LOG] init_preconditioner : 0 ms
[OGL LOG] solve : 11 ms
noneompGKOBiCGStab:  Solving for Uy, Initial residual = 0.145851, Final residual = 9.7488e-07, No Iterations 22
[OGL LOG] init_host_sparsity_pattern : 4 ms
[OGL LOG] matrix not stored update host matrix
[OGL LOG] update_host_mtx : 1 ms
[OGL LOG] matrix is not yet sorted, sorting host matrix
[OGL LOG] sort_host_mtx_sparsity_pattern : 2 ms
[OGL LOG] sort_host_mtx : 1 ms
[OGL LOG] init_preconditioner : 0 ms
[OGL LOG] solve : 12 ms
noneompGKOBiCGStab:  Solving for Uz, Initial residual = 0.339761, Final residual = 9.39234e-07, No Iterations 24
[OGL LOG] init_preconditioner : 0 ms
[OGL LOG] solve : 52 ms
noneompGKOCG:  Solving for p, Initial residual = 0.305732, Final residual = 9.03322e-07, No Iterations 209
time step continuity errors : sum local = 4.04063e-09, global = -2.29739e-21, cumulative = 1.75801e-19
[OGL LOG] init_preconditioner : 0 ms
[OGL LOG] solve : 52 ms
noneompGKOCG:  Solving for p, Initial residual = 0.265164, Final residual = 9.38546e-07, No Iterations 210
time step continuity errors : sum local = 4.11166e-09, global = 1.33064e-21, cumulative = 1.77131e-19
ExecutionTime = 3.64 s  ClockTime = 1 s

Time = 0.016

Courant Number mean: 0.145254 max: 0.82722
[OGL LOG] init_host_sparsity_pattern : 4 ms
[OGL LOG] matrix not stored update host matrix
[OGL LOG] update_host_mtx : 1 ms
[OGL LOG] matrix is not yet sorted, sorting host matrix
[OGL LOG] sort_host_mtx_sparsity_pattern : 2 ms
[OGL LOG] sort_host_mtx : 1 ms
[OGL LOG] init_preconditioner : 0 ms
[OGL LOG] solve : 9 ms
noneompGKOBiCGStab:  Solving for Ux, Initial residual = 0.0235043, Final residual = 9.5729e-07, No Iterations 19
[OGL LOG] init_host_sparsity_pattern : 4 ms
[OGL LOG] matrix not stored update host matrix
[OGL LOG] update_host_mtx : 1 ms
[OGL LOG] matrix is not yet sorted, sorting host matrix
[OGL LOG] sort_host_mtx_sparsity_pattern : 2 ms
[OGL LOG] sort_host_mtx : 1 ms
[OGL LOG] init_preconditioner : 0 ms
[OGL LOG] solve : 11 ms
noneompGKOBiCGStab:  Solving for Uy, Initial residual = 0.0608567, Final residual = 8.98178e-07, No Iterations 22
[OGL LOG] init_host_sparsity_pattern : 4 ms
[OGL LOG] matrix not stored update host matrix
[OGL LOG] update_host_mtx : 1 ms
[OGL LOG] matrix is not yet sorted, sorting host matrix
[OGL LOG] sort_host_mtx_sparsity_pattern : 2 ms
[OGL LOG] sort_host_mtx : 1 ms
[OGL LOG] init_preconditioner : 0 ms
[OGL LOG] solve : 11 ms
noneompGKOBiCGStab:  Solving for Uz, Initial residual = 0.184291, Final residual = 7.91288e-07, No Iterations 23
[OGL LOG] init_preconditioner : 0 ms
[OGL LOG] solve : 53 ms
noneompGKOCG:  Solving for p, Initial residual = 0.239443, Final residual = 8.76776e-07, No Iterations 211
time step continuity errors : sum local = 4.07309e-09, global = 1.42436e-19, cumulative = 3.19568e-19
[OGL LOG] init_preconditioner : 0 ms
[OGL LOG] solve : 53 ms
noneompGKOCG:  Solving for p, Initial residual = 0.222234, Final residual = 8.75988e-07, No Iterations 210
time step continuity errors : sum local = 4.11538e-09, global = -1.12756e-19, cumulative = 2.06812e-19
ExecutionTime = 4.93 s  ClockTime = 1 s

Time = 0.02

Courant Number mean: 0.157058 max: 0.845844
[OGL LOG] init_host_sparsity_pattern : 4 ms
[OGL LOG] matrix not stored update host matrix
[OGL LOG] update_host_mtx : 1 ms
[OGL LOG] matrix is not yet sorted, sorting host matrix
[OGL LOG] sort_host_mtx_sparsity_pattern : 2 ms
[OGL LOG] sort_host_mtx : 1 ms
[OGL LOG] init_preconditioner : 0 ms
[OGL LOG] solve : 9 ms
noneompGKOBiCGStab:  Solving for Ux, Initial residual = 0.0150185, Final residual = 9.60566e-07, No Iterations 18
[OGL LOG] init_host_sparsity_pattern : 4 ms
[OGL LOG] matrix not stored update host matrix
[OGL LOG] update_host_mtx : 1 ms
[OGL LOG] matrix is not yet sorted, sorting host matrix
[OGL LOG] sort_host_mtx_sparsity_pattern : 2 ms
[OGL LOG] sort_host_mtx : 1 ms
[OGL LOG] init_preconditioner : 0 ms
[OGL LOG] solve : 10 ms
noneompGKOBiCGStab:  Solving for Uy, Initial residual = 0.028096, Final residual = 9.94919e-07, No Iterations 20
[OGL LOG] init_host_sparsity_pattern : 4 ms
[OGL LOG] matrix not stored update host matrix
[OGL LOG] update_host_mtx : 1 ms
[OGL LOG] matrix is not yet sorted, sorting host matrix
[OGL LOG] sort_host_mtx_sparsity_pattern : 2 ms
[OGL LOG] sort_host_mtx : 1 ms
[OGL LOG] init_preconditioner : 0 ms
[OGL LOG] solve : 10 ms
noneompGKOBiCGStab:  Solving for Uz, Initial residual = 0.0757738, Final residual = 9.63831e-07, No Iterations 21
[OGL LOG] init_preconditioner : 0 ms
[OGL LOG] solve : 52 ms
noneompGKOCG:  Solving for p, Initial residual = 0.234834, Final residual = 8.66215e-07, No Iterations 210
time step continuity errors : sum local = 3.97523e-09, global = -1.163e-20, cumulative = 1.95182e-19
[OGL LOG] init_preconditioner : 0 ms
[OGL LOG] solve : 53 ms
noneompGKOCG:  Solving for p, Initial residual = 0.233062, Final residual = 9.76391e-07, No Iterations 209
time step continuity errors : sum local = 4.48334e-09, global = 6.90858e-20, cumulative = 2.64267e-19
ExecutionTime = 6.2 s  ClockTime = 2 s

End

