/*---------------------------------------------------------------------------*\
  =========                 |
  \\      /  F ield         | OpenFOAM: The Open Source CFD Toolbox
   \\    /   O peration     | Website:  https://openfoam.org
    \\  /    A nd           | Version:  8
     \\/     M anipulation  |
\*---------------------------------------------------------------------------*/
Build  : 8-13d66902f78c
Exec   : icoFoam
Date   : Jul 04 2021
Time   : 07:33:26
Host   : "uc2n420.localdomain"
PID    : 1119749
I/O    : uncollated
Case   : /pfs/data5/home/kit/scc/nq7776/code/OGL_DATA/lidDrivenCavity3D/v0.1-136-g40fef35/f584ccac99/IntelXeonGold6230CPU@2.10GHz/Test_2021-07-04-07:18:41/50/p-BiCGStab-GKO-none-omp/lidDrivenCavity3D
nProcs : 1
sigFpe : Enabling floating point exception trapping (FOAM_SIGFPE).
fileModificationChecking : Monitoring run-time modified files using timeStampMaster (fileModificationSkew 10)
allowSystemOperations : Allowing user-supplied system call operations

// * * * * * * * * * * * * * * * * * * * * * * * * * * * * * * * * * * * * * //
Create time

Create mesh for time = 0

Reading transportProperties

Reading field p

Reading field U

Reading/calculating face flux field phi


Starting time loop

Time = 0.002

Courant Number mean: 0 max: 0
nonePBiCGStab:  Solving for Ux, Initial residual = 1, Final residual = 0.0592055, No Iterations 5
nonePBiCGStab:  Solving for Uy, Initial residual = 0, Final residual = 0, No Iterations 0
nonePBiCGStab:  Solving for Uz, Initial residual = 0, Final residual = 0, No Iterations 0
[OGL LOG] init_host_sparsity_pattern : 35 ms
[OGL LOG] matrix not stored update host matrix
[OGL LOG] update_host_mtx : 18 ms
[OGL LOG] matrix is not yet sorted, compute sorting idxs
[OGL LOG] compute_sort : 985 ms
[OGL LOG] matrix is not yet sorted, sorting host matrix
[OGL LOG] sort_host_mtx_sparsity_pattern : 23 ms
[OGL LOG] sort_host_mtx : 14 ms
[OGL LOG] init_preconditioner : 0 ms
[OGL LOG] solve : 1088 ms
noneompGKOBiCGStab:  Solving for p, Initial residual = 1, Final residual = 5.67034e-07, No Iterations 354
time step continuity errors : sum local = 5.27309e-08, global = -1.86554e-20, cumulative = -1.86554e-20
[OGL LOG] init_preconditioner : 0 ms
[OGL LOG] solve : 916 ms
noneompGKOBiCGStab:  Solving for p, Initial residual = 0.676702, Final residual = 9.05482e-07, No Iterations 335
time step continuity errors : sum local = 2.34661e-07, global = 2.64574e-21, cumulative = -1.60097e-20
ExecutionTime = 33.91 s  ClockTime = 4 s

Time = 0.004

Courant Number mean: 0.0636234 max: 0.723792
nonePBiCGStab:  Solving for Ux, Initial residual = 0.144136, Final residual = 0.0219209, No Iterations 5
nonePBiCGStab:  Solving for Uy, Initial residual = 0.363928, Final residual = 0.0523292, No Iterations 5
nonePBiCGStab:  Solving for Uz, Initial residual = 0.973109, Final residual = 0.159188, No Iterations 5
[OGL LOG] init_preconditioner : 0 ms
[OGL LOG] solve : 910 ms
noneompGKOBiCGStab:  Solving for p, Initial residual = 0.668485, Final residual = 9.82804e-07, No Iterations 354
time step continuity errors : sum local = 1.02999e-08, global = 3.14361e-20, cumulative = 1.54264e-20
[OGL LOG] init_preconditioner : 0 ms
[OGL LOG] solve : 934 ms
noneompGKOBiCGStab:  Solving for p, Initial residual = 0.584635, Final residual = 9.6836e-07, No Iterations 357
time step continuity errors : sum local = 3.41919e-08, global = -3.12654e-21, cumulative = 1.22999e-20
ExecutionTime = 63.6 s  ClockTime = 6 s

Time = 0.006

Courant Number mean: 0.0972263 max: 0.862513
nonePBiCGStab:  Solving for Ux, Initial residual = 0.0524143, Final residual = 0.00685468, No Iterations 5
nonePBiCGStab:  Solving for Uy, Initial residual = 0.127084, Final residual = 0.0201452, No Iterations 5
nonePBiCGStab:  Solving for Uz, Initial residual = 0.366567, Final residual = 0.0533261, No Iterations 5
[OGL LOG] init_preconditioner : 0 ms
[OGL LOG] solve : 909 ms
noneompGKOBiCGStab:  Solving for p, Initial residual = 0.59454, Final residual = 7.29215e-07, No Iterations 351
time step continuity errors : sum local = 2.67006e-08, global = -3.60006e-20, cumulative = -2.37007e-20
[OGL LOG] init_preconditioner : 0 ms
[OGL LOG] solve : 923 ms
noneompGKOBiCGStab:  Solving for p, Initial residual = 0.528719, Final residual = 5.6814e-07, No Iterations 358
time step continuity errors : sum local = 4.90797e-08, global = -5.37021e-21, cumulative = -2.90709e-20
ExecutionTime = 93.1 s  ClockTime = 8 s

Time = 0.008

Courant Number mean: 0.113792 max: 0.882479
nonePBiCGStab:  Solving for Ux, Initial residual = 0.0289551, Final residual = 0.00344435, No Iterations 5
nonePBiCGStab:  Solving for Uy, Initial residual = 0.0844341, Final residual = 0.0109152, No Iterations 5
nonePBiCGStab:  Solving for Uz, Initial residual = 0.22935, Final residual = 0.0300286, No Iterations 5
[OGL LOG] init_preconditioner : 0 ms
[OGL LOG] solve : 904 ms
noneompGKOBiCGStab:  Solving for p, Initial residual = 0.411416, Final residual = 7.80086e-07, No Iterations 351
time step continuity errors : sum local = 3.78389e-08, global = 8.63973e-21, cumulative = -2.04312e-20
[OGL LOG] init_preconditioner : 0 ms
[OGL LOG] solve : 903 ms
noneompGKOBiCGStab:  Solving for p, Initial residual = 0.342663, Final residual = 9.49261e-07, No Iterations 353
time step continuity errors : sum local = 2.28355e-08, global = 2.05504e-20, cumulative = 1.19137e-22
ExecutionTime = 122.21 s  ClockTime = 10 s

Time = 0.01

Courant Number mean: 0.127338 max: 0.898877
nonePBiCGStab:  Solving for Ux, Initial residual = 0.0202756, Final residual = 0.00208492, No Iterations 5
nonePBiCGStab:  Solving for Uy, Initial residual = 0.0505608, Final residual = 0.00623795, No Iterations 5
nonePBiCGStab:  Solving for Uz, Initial residual = 0.112973, Final residual = 0.0181675, No Iterations 5
[OGL LOG] init_preconditioner : 0 ms
[OGL LOG] solve : 845 ms
noneompGKOBiCGStab:  Solving for p, Initial residual = 0.354038, Final residual = 9.86547e-07, No Iterations 336
time step continuity errors : sum local = 3.19684e-09, global = -3.93055e-20, cumulative = -3.91864e-20
[OGL LOG] init_preconditioner : 0 ms
[OGL LOG] solve : 798 ms
noneompGKOBiCGStab:  Solving for p, Initial residual = 0.302212, Final residual = 8.897e-07, No Iterations 318
time step continuity errors : sum local = 1.06397e-07, global = -2.82181e-21, cumulative = -4.20082e-20
ExecutionTime = 148.69 s  ClockTime = 11 s

End

