/*---------------------------------------------------------------------------*\
  =========                 |
  \\      /  F ield         | OpenFOAM: The Open Source CFD Toolbox
   \\    /   O peration     | Website:  https://openfoam.org
    \\  /    A nd           | Version:  8
     \\/     M anipulation  |
\*---------------------------------------------------------------------------*/
Build  : 8-13d66902f78c
Exec   : icoFoam
Date   : Jul 04 2021
Time   : 08:30:25
Host   : "uc2n445.localdomain"
PID    : 2191363
I/O    : uncollated
Case   : /pfs/data5/home/kit/scc/nq7776/code/OGL_DATA/lidDrivenCavity3D/v0.1-136-g40fef35/f584ccac99/IntelXeonGold6230CPU@2.10GHz/Test_2021-07-04-08:13:47/50/p-BiCGStab-GKO-BJ-omp/lidDrivenCavity3D
nProcs : 1
sigFpe : Enabling floating point exception trapping (FOAM_SIGFPE).
fileModificationChecking : Monitoring run-time modified files using timeStampMaster (fileModificationSkew 10)
allowSystemOperations : Allowing user-supplied system call operations

// * * * * * * * * * * * * * * * * * * * * * * * * * * * * * * * * * * * * * //
Create time

Create mesh for time = 0

Reading transportProperties

Reading field p

Reading field U

Reading/calculating face flux field phi


Starting time loop

Time = 0.002

Courant Number mean: 0 max: 0
nonePBiCGStab:  Solving for Ux, Initial residual = 1, Final residual = 0.0592055, No Iterations 5
nonePBiCGStab:  Solving for Uy, Initial residual = 0, Final residual = 0, No Iterations 0
nonePBiCGStab:  Solving for Uz, Initial residual = 0, Final residual = 0, No Iterations 0
[OGL LOG] init_host_sparsity_pattern : 35 ms
[OGL LOG] matrix not stored update host matrix
[OGL LOG] update_host_mtx : 18 ms
[OGL LOG] matrix is not yet sorted, compute sorting idxs
[OGL LOG] compute_sort : 987 ms
[OGL LOG] matrix is not yet sorted, sorting host matrix
[OGL LOG] sort_host_mtx_sparsity_pattern : 23 ms
[OGL LOG] sort_host_mtx : 15 ms
[OGL LOG] init_preconditioner : 10 ms
[OGL LOG] solve : 2005 ms
BJompGKOBiCGStab:  Solving for p, Initial residual = 1, Final residual = 9.53558e-07, No Iterations 281
time step continuity errors : sum local = 2.92948e-09, global = -7.52993e-21, cumulative = -7.52993e-21
[OGL LOG] init_preconditioner : 0 ms
[OGL LOG] solve : 1923 ms
BJompGKOBiCGStab:  Solving for p, Initial residual = 0.676727, Final residual = 9.28234e-07, No Iterations 269
time step continuity errors : sum local = 1.05291e-08, global = 2.10194e-20, cumulative = 1.34895e-20
ExecutionTime = 17.47 s  ClockTime = 5 s

Time = 0.004

Courant Number mean: 0.0636233 max: 0.723792
nonePBiCGStab:  Solving for Ux, Initial residual = 0.144135, Final residual = 0.02192, No Iterations 5
nonePBiCGStab:  Solving for Uy, Initial residual = 0.363931, Final residual = 0.052282, No Iterations 5
nonePBiCGStab:  Solving for Uz, Initial residual = 0.97361, Final residual = 0.15892, No Iterations 5
[OGL LOG] init_preconditioner : 0 ms
[OGL LOG] solve : 1958 ms
BJompGKOBiCGStab:  Solving for p, Initial residual = 0.668513, Final residual = 9.12452e-07, No Iterations 273
time step continuity errors : sum local = 8.94647e-09, global = 3.13817e-20, cumulative = 4.48712e-20
[OGL LOG] init_preconditioner : 0 ms
[OGL LOG] solve : 1831 ms
BJompGKOBiCGStab:  Solving for p, Initial residual = 0.584669, Final residual = 8.03896e-07, No Iterations 257
time step continuity errors : sum local = 1.49468e-08, global = -2.17396e-20, cumulative = 2.31316e-20
ExecutionTime = 32.76 s  ClockTime = 9 s

Time = 0.006

Courant Number mean: 0.0972275 max: 0.862514
nonePBiCGStab:  Solving for Ux, Initial residual = 0.0524158, Final residual = 0.0068549, No Iterations 5
nonePBiCGStab:  Solving for Uy, Initial residual = 0.127056, Final residual = 0.0201195, No Iterations 5
nonePBiCGStab:  Solving for Uz, Initial residual = 0.366565, Final residual = 0.0530476, No Iterations 5
[OGL LOG] init_preconditioner : 0 ms
[OGL LOG] solve : 1996 ms
BJompGKOBiCGStab:  Solving for p, Initial residual = 0.594544, Final residual = 8.80473e-07, No Iterations 282
time step continuity errors : sum local = 2.11518e-09, global = 1.08738e-20, cumulative = 3.40053e-20
[OGL LOG] init_preconditioner : 0 ms
[OGL LOG] solve : 1877 ms
BJompGKOBiCGStab:  Solving for p, Initial residual = 0.528704, Final residual = 8.86873e-07, No Iterations 265
time step continuity errors : sum local = 1.81735e-08, global = -6.27723e-21, cumulative = 2.77281e-20
ExecutionTime = 48.38 s  ClockTime = 13 s

Time = 0.008

Courant Number mean: 0.113794 max: 0.88248
nonePBiCGStab:  Solving for Ux, Initial residual = 0.0289566, Final residual = 0.00344468, No Iterations 5
nonePBiCGStab:  Solving for Uy, Initial residual = 0.0844259, Final residual = 0.0109194, No Iterations 5
nonePBiCGStab:  Solving for Uz, Initial residual = 0.229232, Final residual = 0.0297947, No Iterations 5
[OGL LOG] init_preconditioner : 0 ms
[OGL LOG] solve : 2020 ms
BJompGKOBiCGStab:  Solving for p, Initial residual = 0.411437, Final residual = 7.76056e-07, No Iterations 285
time step continuity errors : sum local = 2.40376e-09, global = -1.45529e-20, cumulative = 1.31752e-20
[OGL LOG] init_preconditioner : 0 ms
[OGL LOG] solve : 1879 ms
BJompGKOBiCGStab:  Solving for p, Initial residual = 0.342691, Final residual = 6.82118e-07, No Iterations 266
time step continuity errors : sum local = 1.07079e-09, global = -2.09449e-20, cumulative = -7.76968e-21
ExecutionTime = 64.09 s  ClockTime = 17 s

Time = 0.01

Courant Number mean: 0.127339 max: 0.898877
nonePBiCGStab:  Solving for Ux, Initial residual = 0.0202777, Final residual = 0.00208495, No Iterations 5
nonePBiCGStab:  Solving for Uy, Initial residual = 0.0505563, Final residual = 0.006236, No Iterations 5
nonePBiCGStab:  Solving for Uz, Initial residual = 0.112951, Final residual = 0.0180793, No Iterations 5
[OGL LOG] init_preconditioner : 0 ms
[OGL LOG] solve : 1769 ms
BJompGKOBiCGStab:  Solving for p, Initial residual = 0.354044, Final residual = 5.87298e-07, No Iterations 249
time step continuity errors : sum local = 7.43331e-08, global = -1.55867e-20, cumulative = -2.33564e-20
[OGL LOG] init_preconditioner : 0 ms
[OGL LOG] solve : 1750 ms
BJompGKOBiCGStab:  Solving for p, Initial residual = 0.302207, Final residual = 8.6762e-07, No Iterations 247
time step continuity errors : sum local = 1.07557e-08, global = 1.77329e-21, cumulative = -2.15831e-20
ExecutionTime = 78.3 s  ClockTime = 21 s

End

