/*---------------------------------------------------------------------------*\
  =========                 |
  \\      /  F ield         | OpenFOAM: The Open Source CFD Toolbox
   \\    /   O peration     | Website:  https://openfoam.org
    \\  /    A nd           | Version:  8
     \\/     M anipulation  |
\*---------------------------------------------------------------------------*/
Build  : 8-13d66902f78c
Exec   : icoFoam
Date   : Jul 04 2021
Time   : 08:32:20
Host   : "uc2n445.localdomain"
PID    : 2191506
I/O    : uncollated
Case   : /pfs/data5/home/kit/scc/nq7776/code/OGL_DATA/lidDrivenCavity3D/v0.1-136-g40fef35/f584ccac99/IntelXeonGold6230CPU@2.10GHz/Test_2021-07-04-08:13:47/50/p-BiCGStab-GKO-BJ-omp/lidDrivenCavity3D
nProcs : 1
sigFpe : Enabling floating point exception trapping (FOAM_SIGFPE).
fileModificationChecking : Monitoring run-time modified files using timeStampMaster (fileModificationSkew 10)
allowSystemOperations : Allowing user-supplied system call operations

// * * * * * * * * * * * * * * * * * * * * * * * * * * * * * * * * * * * * * //
Create time

Create mesh for time = 0

Reading transportProperties

Reading field p

Reading field U

Reading/calculating face flux field phi


Starting time loop

Time = 0.002

Courant Number mean: 0 max: 0
nonePBiCGStab:  Solving for Ux, Initial residual = 1, Final residual = 0.0592055, No Iterations 5
nonePBiCGStab:  Solving for Uy, Initial residual = 0, Final residual = 0, No Iterations 0
nonePBiCGStab:  Solving for Uz, Initial residual = 0, Final residual = 0, No Iterations 0
[OGL LOG] init_host_sparsity_pattern : 35 ms
[OGL LOG] matrix not stored update host matrix
[OGL LOG] update_host_mtx : 18 ms
[OGL LOG] matrix is not yet sorted, compute sorting idxs
[OGL LOG] compute_sort : 984 ms
[OGL LOG] matrix is not yet sorted, sorting host matrix
[OGL LOG] sort_host_mtx_sparsity_pattern : 23 ms
[OGL LOG] sort_host_mtx : 15 ms
[OGL LOG] init_preconditioner : 5 ms
[OGL LOG] solve : 1360 ms
BJompGKOBiCGStab:  Solving for p, Initial residual = 1, Final residual = 9.53558e-07, No Iterations 281
time step continuity errors : sum local = 2.92948e-09, global = -7.52993e-21, cumulative = -7.52993e-21
[OGL LOG] init_preconditioner : 0 ms
[OGL LOG] solve : 1304 ms
BJompGKOBiCGStab:  Solving for p, Initial residual = 0.676727, Final residual = 9.28234e-07, No Iterations 269
time step continuity errors : sum local = 2.83681e-08, global = 2.092e-20, cumulative = 1.339e-20
ExecutionTime = 23.1 s  ClockTime = 5 s

Time = 0.004

Courant Number mean: 0.0636233 max: 0.723792
nonePBiCGStab:  Solving for Ux, Initial residual = 0.144135, Final residual = 0.02192, No Iterations 5
nonePBiCGStab:  Solving for Uy, Initial residual = 0.363931, Final residual = 0.0522821, No Iterations 5
nonePBiCGStab:  Solving for Uz, Initial residual = 0.973573, Final residual = 0.158915, No Iterations 5
[OGL LOG] init_preconditioner : 0 ms
[OGL LOG] solve : 1305 ms
BJompGKOBiCGStab:  Solving for p, Initial residual = 0.668515, Final residual = 8.83372e-07, No Iterations 264
time step continuity errors : sum local = 1.09554e-08, global = -3.92785e-20, cumulative = -2.58885e-20
[OGL LOG] init_preconditioner : 0 ms
[OGL LOG] solve : 1266 ms
BJompGKOBiCGStab:  Solving for p, Initial residual = 0.584668, Final residual = 9.50152e-07, No Iterations 261
time step continuity errors : sum local = 9.43597e-09, global = 2.41259e-20, cumulative = -1.76264e-21
ExecutionTime = 43.81 s  ClockTime = 7 s

Time = 0.006

Courant Number mean: 0.0972275 max: 0.862514
nonePBiCGStab:  Solving for Ux, Initial residual = 0.0524166, Final residual = 0.00685508, No Iterations 5
nonePBiCGStab:  Solving for Uy, Initial residual = 0.127053, Final residual = 0.0201191, No Iterations 5
nonePBiCGStab:  Solving for Uz, Initial residual = 0.366661, Final residual = 0.05308, No Iterations 5
[OGL LOG] init_preconditioner : 0 ms
[OGL LOG] solve : 1349 ms
BJompGKOBiCGStab:  Solving for p, Initial residual = 0.594542, Final residual = 7.9331e-07, No Iterations 279
time step continuity errors : sum local = 6.41691e-09, global = 2.11946e-20, cumulative = 1.94319e-20
[OGL LOG] init_preconditioner : 0 ms
[OGL LOG] solve : 1271 ms
BJompGKOBiCGStab:  Solving for p, Initial residual = 0.528702, Final residual = 6.22798e-07, No Iterations 261
time step continuity errors : sum local = 4.32246e-08, global = 1.60968e-20, cumulative = 3.55287e-20
ExecutionTime = 64.91 s  ClockTime = 10 s

Time = 0.008

Courant Number mean: 0.113794 max: 0.88248
nonePBiCGStab:  Solving for Ux, Initial residual = 0.0289582, Final residual = 0.00344492, No Iterations 5
nonePBiCGStab:  Solving for Uy, Initial residual = 0.0844231, Final residual = 0.0109195, No Iterations 5
nonePBiCGStab:  Solving for Uz, Initial residual = 0.22917, Final residual = 0.0298233, No Iterations 5
[OGL LOG] init_preconditioner : 0 ms
[OGL LOG] solve : 1314 ms
BJompGKOBiCGStab:  Solving for p, Initial residual = 0.411427, Final residual = 8.62249e-07, No Iterations 271
time step continuity errors : sum local = 1.38888e-09, global = 2.06293e-20, cumulative = 5.6158e-20
[OGL LOG] init_preconditioner : 0 ms
[OGL LOG] solve : 1315 ms
BJompGKOBiCGStab:  Solving for p, Initial residual = 0.34268, Final residual = 8.93877e-07, No Iterations 271
time step continuity errors : sum local = 5.34785e-09, global = 2.30604e-20, cumulative = 7.92184e-20
ExecutionTime = 86.08 s  ClockTime = 13 s

Time = 0.01

Courant Number mean: 0.127339 max: 0.898878
nonePBiCGStab:  Solving for Ux, Initial residual = 0.0202781, Final residual = 0.00208494, No Iterations 5
nonePBiCGStab:  Solving for Uy, Initial residual = 0.050557, Final residual = 0.00623617, No Iterations 5
nonePBiCGStab:  Solving for Uz, Initial residual = 0.112907, Final residual = 0.018093, No Iterations 5
[OGL LOG] init_preconditioner : 0 ms
[OGL LOG] solve : 1270 ms
BJompGKOBiCGStab:  Solving for p, Initial residual = 0.354039, Final residual = 9.68075e-07, No Iterations 262
time step continuity errors : sum local = 1.04789e-08, global = 5.49973e-20, cumulative = 1.34216e-19
[OGL LOG] init_preconditioner : 0 ms
[OGL LOG] solve : 1219 ms
BJompGKOBiCGStab:  Solving for p, Initial residual = 0.302212, Final residual = 7.34689e-07, No Iterations 252
time step continuity errors : sum local = 3.67754e-09, global = 2.8451e-20, cumulative = 1.62667e-19
ExecutionTime = 106.14 s  ClockTime = 15 s

End

