/*---------------------------------------------------------------------------*\
  =========                 |
  \\      /  F ield         | OpenFOAM: The Open Source CFD Toolbox
   \\    /   O peration     | Website:  https://openfoam.org
    \\  /    A nd           | Version:  8
     \\/     M anipulation  |
\*---------------------------------------------------------------------------*/
Build  : 8-13d66902f78c
Exec   : icoFoam
Date   : Jul 04 2021
Time   : 07:34:43
Host   : "uc2n420.localdomain"
PID    : 1119987
I/O    : uncollated
Case   : /pfs/data5/home/kit/scc/nq7776/code/OGL_DATA/lidDrivenCavity3D/v0.1-136-g40fef35/f584ccac99/IntelXeonGold6230CPU@2.10GHz/Test_2021-07-04-07:18:41/50/p-BiCGStab-GKO-none-omp/lidDrivenCavity3D
nProcs : 1
sigFpe : Enabling floating point exception trapping (FOAM_SIGFPE).
fileModificationChecking : Monitoring run-time modified files using timeStampMaster (fileModificationSkew 10)
allowSystemOperations : Allowing user-supplied system call operations

// * * * * * * * * * * * * * * * * * * * * * * * * * * * * * * * * * * * * * //
Create time

Create mesh for time = 0

Reading transportProperties

Reading field p

Reading field U

Reading/calculating face flux field phi


Starting time loop

Time = 0.002

Courant Number mean: 0 max: 0
nonePBiCGStab:  Solving for Ux, Initial residual = 1, Final residual = 0.0592055, No Iterations 5
nonePBiCGStab:  Solving for Uy, Initial residual = 0, Final residual = 0, No Iterations 0
nonePBiCGStab:  Solving for Uz, Initial residual = 0, Final residual = 0, No Iterations 0
[OGL LOG] init_host_sparsity_pattern : 35 ms
[OGL LOG] matrix not stored update host matrix
[OGL LOG] update_host_mtx : 18 ms
[OGL LOG] matrix is not yet sorted, compute sorting idxs
[OGL LOG] compute_sort : 987 ms
[OGL LOG] matrix is not yet sorted, sorting host matrix
[OGL LOG] sort_host_mtx_sparsity_pattern : 23 ms
[OGL LOG] sort_host_mtx : 14 ms
[OGL LOG] init_preconditioner : 0 ms
[OGL LOG] solve : 1110 ms
noneompGKOBiCGStab:  Solving for p, Initial residual = 1, Final residual = 5.67034e-07, No Iterations 354
time step continuity errors : sum local = 9.07954e-07, global = -1.86885e-20, cumulative = -1.86885e-20
[OGL LOG] init_preconditioner : 0 ms
[OGL LOG] solve : 1172 ms
noneompGKOBiCGStab:  Solving for p, Initial residual = 0.676791, Final residual = 6.26984e-07, No Iterations 361
time step continuity errors : sum local = 5.60517e-08, global = -4.32241e-20, cumulative = -6.19126e-20
ExecutionTime = 74.78 s  ClockTime = 4 s

Time = 0.004

Courant Number mean: 0.0636233 max: 0.723792
nonePBiCGStab:  Solving for Ux, Initial residual = 0.144131, Final residual = 0.0219206, No Iterations 5
nonePBiCGStab:  Solving for Uy, Initial residual = 0.363933, Final residual = 0.052647, No Iterations 5
nonePBiCGStab:  Solving for Uz, Initial residual = 0.97301, Final residual = 0.161419, No Iterations 5
[OGL LOG] init_preconditioner : 0 ms
[OGL LOG] solve : 1026 ms
noneompGKOBiCGStab:  Solving for p, Initial residual = 0.668299, Final residual = 8.96138e-07, No Iterations 357
time step continuity errors : sum local = 5.17864e-08, global = 2.76737e-20, cumulative = -3.42389e-20
[OGL LOG] init_preconditioner : 0 ms
[OGL LOG] solve : 1014 ms
noneompGKOBiCGStab:  Solving for p, Initial residual = 0.584377, Final residual = 9.91049e-07, No Iterations 352
time step continuity errors : sum local = 3.47321e-08, global = -9.30134e-21, cumulative = -4.35403e-20
ExecutionTime = 140.29 s  ClockTime = 6 s

Time = 0.006

Courant Number mean: 0.0972138 max: 0.862491
nonePBiCGStab:  Solving for Ux, Initial residual = 0.0524088, Final residual = 0.00685493, No Iterations 5
nonePBiCGStab:  Solving for Uy, Initial residual = 0.127193, Final residual = 0.0202459, No Iterations 5
nonePBiCGStab:  Solving for Uz, Initial residual = 0.367104, Final residual = 0.0541336, No Iterations 5
[OGL LOG] init_preconditioner : 0 ms
[OGL LOG] solve : 983 ms
noneompGKOBiCGStab:  Solving for p, Initial residual = 0.594396, Final residual = 4.9433e-07, No Iterations 351
time step continuity errors : sum local = 1.55657e-09, global = 4.96144e-21, cumulative = -3.85788e-20
[OGL LOG] init_preconditioner : 0 ms
[OGL LOG] solve : 995 ms
noneompGKOBiCGStab:  Solving for p, Initial residual = 0.528618, Final residual = 6.43121e-07, No Iterations 352
time step continuity errors : sum local = 2.033e-07, global = -1.6885e-20, cumulative = -5.54639e-20
ExecutionTime = 203.82 s  ClockTime = 9 s

Time = 0.008

Courant Number mean: 0.113781 max: 0.882472
nonePBiCGStab:  Solving for Ux, Initial residual = 0.0289696, Final residual = 0.00344778, No Iterations 5
nonePBiCGStab:  Solving for Uy, Initial residual = 0.0844387, Final residual = 0.0108254, No Iterations 5
nonePBiCGStab:  Solving for Uz, Initial residual = 0.229947, Final residual = 0.0315147, No Iterations 5
[OGL LOG] init_preconditioner : 0 ms
[OGL LOG] solve : 936 ms
noneompGKOBiCGStab:  Solving for p, Initial residual = 0.41112, Final residual = 8.12136e-07, No Iterations 340
time step continuity errors : sum local = 8.73186e-08, global = 2.54768e-20, cumulative = -2.99871e-20
[OGL LOG] init_preconditioner : 0 ms
[OGL LOG] solve : 955 ms
noneompGKOBiCGStab:  Solving for p, Initial residual = 0.342389, Final residual = 6.73814e-07, No Iterations 343
time step continuity errors : sum local = 4.68062e-08, global = 1.22092e-20, cumulative = -1.77778e-20
ExecutionTime = 264.59 s  ClockTime = 11 s

Time = 0.01

Courant Number mean: 0.12733 max: 0.898882
nonePBiCGStab:  Solving for Ux, Initial residual = 0.0202795, Final residual = 0.0020864, No Iterations 5
nonePBiCGStab:  Solving for Uy, Initial residual = 0.0505516, Final residual = 0.00625405, No Iterations 5
nonePBiCGStab:  Solving for Uz, Initial residual = 0.113482, Final residual = 0.0186728, No Iterations 5
[OGL LOG] init_preconditioner : 0 ms
[OGL LOG] solve : 935 ms
noneompGKOBiCGStab:  Solving for p, Initial residual = 0.354074, Final residual = 3.19111e-07, No Iterations 339
time step continuity errors : sum local = 6.45116e-08, global = 2.74468e-20, cumulative = 9.66896e-21
[OGL LOG] init_preconditioner : 0 ms
[OGL LOG] solve : 914 ms
noneompGKOBiCGStab:  Solving for p, Initial residual = 0.302271, Final residual = 9.34415e-07, No Iterations 332
time step continuity errors : sum local = 1.24858e-08, global = 5.08828e-20, cumulative = 6.05518e-20
ExecutionTime = 324.04 s  ClockTime = 13 s

End

