/*---------------------------------------------------------------------------*\
  =========                 |
  \\      /  F ield         | OpenFOAM: The Open Source CFD Toolbox
   \\    /   O peration     | Website:  https://openfoam.org
    \\  /    A nd           | Version:  8
     \\/     M anipulation  |
\*---------------------------------------------------------------------------*/
Build  : 8-13d66902f78c
Exec   : icoFoam
Date   : Jul 04 2021
Time   : 09:23:07
Host   : "uc2n423.localdomain"
PID    : 2483660
I/O    : uncollated
Case   : /pfs/data5/home/kit/scc/nq7776/code/OGL_DATA/lidDrivenCavity3D/v0.1-136-g40fef35/f584ccac99/IntelXeonGold6230CPU@2.10GHz/Test_2021-07-04-08:58:23/50/p-U-BiCGStab-GKO-BJ-omp/lidDrivenCavity3D
nProcs : 1
sigFpe : Enabling floating point exception trapping (FOAM_SIGFPE).
fileModificationChecking : Monitoring run-time modified files using timeStampMaster (fileModificationSkew 10)
allowSystemOperations : Allowing user-supplied system call operations

// * * * * * * * * * * * * * * * * * * * * * * * * * * * * * * * * * * * * * //
Create time

Create mesh for time = 0

Reading transportProperties

Reading field p

Reading field U

Reading/calculating face flux field phi


Starting time loop

Time = 0.002

Courant Number mean: 0 max: 0
[OGL LOG] init_host_sparsity_pattern : 35 ms
[OGL LOG] matrix not stored update host matrix
[OGL LOG] update_host_mtx : 18 ms
[OGL LOG] matrix is not yet sorted, compute sorting idxs
[OGL LOG] compute_sort : 989 ms
[OGL LOG] matrix is not yet sorted, sorting host matrix
[OGL LOG] sort_host_mtx_sparsity_pattern : 23 ms
[OGL LOG] sort_host_mtx : 15 ms
[OGL LOG] init_preconditioner : 11 ms
[OGL LOG] solve : 232 ms
BJompGKOBiCGStab:  Solving for Ux, Initial residual = 1, Final residual = 8.40984e-07, No Iterations 31
[OGL LOG] init_host_sparsity_pattern : 35 ms
[OGL LOG] matrix not stored update host matrix
[OGL LOG] update_host_mtx : 18 ms
[OGL LOG] matrix is not yet sorted, sorting host matrix
[OGL LOG] sort_host_mtx_sparsity_pattern : 23 ms
[OGL LOG] sort_host_mtx : 12 ms
[OGL LOG] init_preconditioner : 2 ms
[OGL LOG] solve : 5 ms
BJompGKOBiCGStab:  Solving for Uy, Initial residual = 0, Final residual = 0, No Iterations 0
[OGL LOG] init_host_sparsity_pattern : 35 ms
[OGL LOG] matrix not stored update host matrix
[OGL LOG] update_host_mtx : 15 ms
[OGL LOG] matrix is not yet sorted, sorting host matrix
[OGL LOG] sort_host_mtx_sparsity_pattern : 23 ms
[OGL LOG] sort_host_mtx : 12 ms
[OGL LOG] init_preconditioner : 2 ms
[OGL LOG] solve : 4 ms
BJompGKOBiCGStab:  Solving for Uz, Initial residual = 0, Final residual = 0, No Iterations 0
[OGL LOG] init_host_sparsity_pattern : 33 ms
[OGL LOG] matrix not stored update host matrix
[OGL LOG] update_host_mtx : 18 ms
[OGL LOG] matrix is not yet sorted, sorting host matrix
[OGL LOG] sort_host_mtx_sparsity_pattern : 22 ms
[OGL LOG] sort_host_mtx : 13 ms
[OGL LOG] init_preconditioner : 2 ms
[OGL LOG] solve : 1295 ms
BJompGKOBiCGStab:  Solving for p, Initial residual = 1, Final residual = 6.08099e-07, No Iterations 305
time step continuity errors : sum local = 1.9848e-09, global = 8.42993e-21, cumulative = 8.42993e-21
[OGL LOG] init_preconditioner : 0 ms
[OGL LOG] solve : 1043 ms
BJompGKOBiCGStab:  Solving for p, Initial residual = 0.721581, Final residual = 7.45215e-07, No Iterations 279
time step continuity errors : sum local = 4.93015e-08, global = 1.01813e-20, cumulative = 1.86112e-20
ExecutionTime = 168.27 s  ClockTime = 5 s

Time = 0.004

Courant Number mean: 0.0720722 max: 0.726639
[OGL LOG] init_host_sparsity_pattern : 33 ms
[OGL LOG] matrix not stored update host matrix
[OGL LOG] update_host_mtx : 15 ms
[OGL LOG] matrix is not yet sorted, sorting host matrix
[OGL LOG] sort_host_mtx_sparsity_pattern : 24 ms
[OGL LOG] sort_host_mtx : 13 ms
[OGL LOG] init_preconditioner : 0 ms
[OGL LOG] solve : 100 ms
BJompGKOBiCGStab:  Solving for Ux, Initial residual = 0.203462, Final residual = 5.55326e-07, No Iterations 23
[OGL LOG] init_host_sparsity_pattern : 34 ms
[OGL LOG] matrix not stored update host matrix
[OGL LOG] update_host_mtx : 15 ms
[OGL LOG] matrix is not yet sorted, sorting host matrix
[OGL LOG] sort_host_mtx_sparsity_pattern : 22 ms
[OGL LOG] sort_host_mtx : 12 ms
[OGL LOG] init_preconditioner : 0 ms
[OGL LOG] solve : 127 ms
BJompGKOBiCGStab:  Solving for Uy, Initial residual = 0.618434, Final residual = 9.2832e-07, No Iterations 32
[OGL LOG] init_host_sparsity_pattern : 34 ms
[OGL LOG] matrix not stored update host matrix
[OGL LOG] update_host_mtx : 15 ms
[OGL LOG] matrix is not yet sorted, sorting host matrix
[OGL LOG] sort_host_mtx_sparsity_pattern : 22 ms
[OGL LOG] sort_host_mtx : 12 ms
[OGL LOG] init_preconditioner : 0 ms
[OGL LOG] solve : 127 ms
BJompGKOBiCGStab:  Solving for Uz, Initial residual = 0.536168, Final residual = 9.52376e-07, No Iterations 32
[OGL LOG] init_preconditioner : 0 ms
[OGL LOG] solve : 999 ms
BJompGKOBiCGStab:  Solving for p, Initial residual = 0.673321, Final residual = 1.69406e-07, No Iterations 273
time step continuity errors : sum local = 1.53945e-06, global = -2.15682e-21, cumulative = 1.64544e-20
[OGL LOG] init_preconditioner : 0 ms
[OGL LOG] solve : 967 ms
BJompGKOBiCGStab:  Solving for p, Initial residual = 0.598942, Final residual = 6.30965e-07, No Iterations 262
time step continuity errors : sum local = 1.09967e-06, global = -7.8471e-21, cumulative = 8.60727e-21
ExecutionTime = 319.03 s  ClockTime = 8 s

Time = 0.006

Courant Number mean: 0.107408 max: 0.881754
[OGL LOG] init_host_sparsity_pattern : 33 ms
[OGL LOG] matrix not stored update host matrix
[OGL LOG] update_host_mtx : 16 ms
[OGL LOG] matrix is not yet sorted, sorting host matrix
[OGL LOG] sort_host_mtx_sparsity_pattern : 23 ms
[OGL LOG] sort_host_mtx : 14 ms
[OGL LOG] init_preconditioner : 0 ms
[OGL LOG] solve : 99 ms
BJompGKOBiCGStab:  Solving for Ux, Initial residual = 0.0994772, Final residual = 9.85081e-07, No Iterations 24
[OGL LOG] init_host_sparsity_pattern : 34 ms
[OGL LOG] matrix not stored update host matrix
[OGL LOG] update_host_mtx : 15 ms
[OGL LOG] matrix is not yet sorted, sorting host matrix
[OGL LOG] sort_host_mtx_sparsity_pattern : 23 ms
[OGL LOG] sort_host_mtx : 12 ms
[OGL LOG] init_preconditioner : 0 ms
[OGL LOG] solve : 115 ms
BJompGKOBiCGStab:  Solving for Uy, Initial residual = 0.250327, Final residual = 8.45708e-07, No Iterations 29
[OGL LOG] init_host_sparsity_pattern : 34 ms
[OGL LOG] matrix not stored update host matrix
[OGL LOG] update_host_mtx : 15 ms
[OGL LOG] matrix is not yet sorted, sorting host matrix
[OGL LOG] sort_host_mtx_sparsity_pattern : 22 ms
[OGL LOG] sort_host_mtx : 12 ms
[OGL LOG] init_preconditioner : 0 ms
[OGL LOG] solve : 126 ms
BJompGKOBiCGStab:  Solving for Uz, Initial residual = 0.542877, Final residual = 9.51718e-07, No Iterations 32
[OGL LOG] init_preconditioner : 0 ms
[OGL LOG] solve : 925 ms
BJompGKOBiCGStab:  Solving for p, Initial residual = 0.607233, Final residual = 9.59951e-07, No Iterations 254
time step continuity errors : sum local = 2.27516e-09, global = 1.29933e-20, cumulative = 2.16006e-20
[OGL LOG] init_preconditioner : 0 ms
[OGL LOG] solve : 953 ms
BJompGKOBiCGStab:  Solving for p, Initial residual = 0.56122, Final residual = 9.37104e-07, No Iterations 259
time step continuity errors : sum local = 2.97738e-09, global = 4.99925e-20, cumulative = 7.15932e-20
ExecutionTime = 463.39 s  ClockTime = 10 s

Time = 0.008

Courant Number mean: 0.123247 max: 0.89011
[OGL LOG] init_host_sparsity_pattern : 33 ms
[OGL LOG] matrix not stored update host matrix
[OGL LOG] update_host_mtx : 16 ms
[OGL LOG] matrix is not yet sorted, sorting host matrix
[OGL LOG] sort_host_mtx_sparsity_pattern : 22 ms
[OGL LOG] sort_host_mtx : 12 ms
[OGL LOG] init_preconditioner : 0 ms
[OGL LOG] solve : 96 ms
BJompGKOBiCGStab:  Solving for Ux, Initial residual = 0.0341095, Final residual = 7.76692e-07, No Iterations 25
[OGL LOG] init_host_sparsity_pattern : 34 ms
[OGL LOG] matrix not stored update host matrix
[OGL LOG] update_host_mtx : 15 ms
[OGL LOG] matrix is not yet sorted, sorting host matrix
[OGL LOG] sort_host_mtx_sparsity_pattern : 22 ms
[OGL LOG] sort_host_mtx : 13 ms
[OGL LOG] init_preconditioner : 0 ms
[OGL LOG] solve : 107 ms
BJompGKOBiCGStab:  Solving for Uy, Initial residual = 0.13254, Final residual = 8.90173e-07, No Iterations 28
[OGL LOG] init_host_sparsity_pattern : 34 ms
[OGL LOG] matrix not stored update host matrix
[OGL LOG] update_host_mtx : 15 ms
[OGL LOG] matrix is not yet sorted, sorting host matrix
[OGL LOG] sort_host_mtx_sparsity_pattern : 22 ms
[OGL LOG] sort_host_mtx : 12 ms
[OGL LOG] init_preconditioner : 0 ms
[OGL LOG] solve : 118 ms
BJompGKOBiCGStab:  Solving for Uz, Initial residual = 0.478982, Final residual = 9.05265e-07, No Iterations 31
[OGL LOG] init_preconditioner : 0 ms
[OGL LOG] solve : 1168 ms
BJompGKOBiCGStab:  Solving for p, Initial residual = 0.423186, Final residual = 8.06714e-07, No Iterations 282
time step continuity errors : sum local = 2.14618e-09, global = -2.9313e-20, cumulative = 4.22802e-20
[OGL LOG] init_preconditioner : 0 ms
[OGL LOG] solve : 1133 ms
BJompGKOBiCGStab:  Solving for p, Initial residual = 0.368409, Final residual = 7.76561e-07, No Iterations 274
time step continuity errors : sum local = 1.32063e-09, global = 1.68322e-20, cumulative = 5.91123e-20
ExecutionTime = 633.45 s  ClockTime = 13 s

Time = 0.01

Courant Number mean: 0.136096 max: 0.906942
[OGL LOG] init_host_sparsity_pattern : 33 ms
[OGL LOG] matrix not stored update host matrix
[OGL LOG] update_host_mtx : 17 ms
[OGL LOG] matrix is not yet sorted, sorting host matrix
[OGL LOG] sort_host_mtx_sparsity_pattern : 24 ms
[OGL LOG] sort_host_mtx : 13 ms
[OGL LOG] init_preconditioner : 0 ms
[OGL LOG] solve : 111 ms
BJompGKOBiCGStab:  Solving for Ux, Initial residual = 0.0230902, Final residual = 7.30448e-07, No Iterations 24
[OGL LOG] init_host_sparsity_pattern : 34 ms
[OGL LOG] matrix not stored update host matrix
[OGL LOG] update_host_mtx : 15 ms
[OGL LOG] matrix is not yet sorted, sorting host matrix
[OGL LOG] sort_host_mtx_sparsity_pattern : 22 ms
[OGL LOG] sort_host_mtx : 12 ms
[OGL LOG] init_preconditioner : 0 ms
[OGL LOG] solve : 116 ms
BJompGKOBiCGStab:  Solving for Uy, Initial residual = 0.0483832, Final residual = 9.76168e-07, No Iterations 25
[OGL LOG] init_host_sparsity_pattern : 34 ms
[OGL LOG] matrix not stored update host matrix
[OGL LOG] update_host_mtx : 15 ms
[OGL LOG] matrix is not yet sorted, sorting host matrix
[OGL LOG] sort_host_mtx_sparsity_pattern : 22 ms
[OGL LOG] sort_host_mtx : 12 ms
[OGL LOG] init_preconditioner : 0 ms
[OGL LOG] solve : 129 ms
BJompGKOBiCGStab:  Solving for Uz, Initial residual = 0.162781, Final residual = 8.90377e-07, No Iterations 28
[OGL LOG] init_preconditioner : 0 ms
[OGL LOG] solve : 1023 ms
BJompGKOBiCGStab:  Solving for p, Initial residual = 0.361794, Final residual = 7.54736e-07, No Iterations 248
time step continuity errors : sum local = 3.46231e-09, global = -2.45504e-20, cumulative = 3.4562e-20
[OGL LOG] init_preconditioner : 0 ms
[OGL LOG] solve : 1105 ms
BJompGKOBiCGStab:  Solving for p, Initial residual = 0.333298, Final residual = 8.71377e-07, No Iterations 268
time step continuity errors : sum local = 1.18296e-09, global = -1.22846e-20, cumulative = 2.22773e-20
ExecutionTime = 794.82 s  ClockTime = 16 s

End

