/*---------------------------------------------------------------------------*\
  =========                 |
  \\      /  F ield         | OpenFOAM: The Open Source CFD Toolbox
   \\    /   O peration     | Website:  https://openfoam.org
    \\  /    A nd           | Version:  8
     \\/     M anipulation  |
\*---------------------------------------------------------------------------*/
Build  : 8-13d66902f78c
Exec   : icoFoam
Date   : Jul 02 2021
Time   : 16:01:07
Host   : "uc2n489.localdomain"
PID    : 3542180
I/O    : uncollated
Case   : /pfs/data5/home/kit/scc/nq7776/code/OGL_DATA/lidDrivenCavity3D/v0.1-133-g6261adb/f584ccac99/TeslaV100-SXM2-32GB/Test_2021-07-02-15:59:58/50/p-BiCGStab-GKO-BJ-cuda/lidDrivenCavity3D
nProcs : 1
sigFpe : Enabling floating point exception trapping (FOAM_SIGFPE).
fileModificationChecking : Monitoring run-time modified files using timeStampMaster (fileModificationSkew 10)
allowSystemOperations : Allowing user-supplied system call operations

// * * * * * * * * * * * * * * * * * * * * * * * * * * * * * * * * * * * * * //
Create time

Create mesh for time = 0

Reading transportProperties

Reading field p

Reading field U

Reading/calculating face flux field phi


Starting time loop

Time = 0.002

Courant Number mean: 0 max: 0
nonePBiCGStab:  Solving for Ux, Initial residual = 1, Final residual = 0.0592055, No Iterations 5
nonePBiCGStab:  Solving for Uy, Initial residual = 0, Final residual = 0, No Iterations 0
nonePBiCGStab:  Solving for Uz, Initial residual = 0, Final residual = 0, No Iterations 0
[OGL LOG] init_host_sparsity_pattern : 35 ms
[OGL LOG] matrix not stored update host matrix
[OGL LOG] update_host_mtx : 17 ms
[OGL LOG] matrix is not yet sorted, compute sorting idxs
[OGL LOG] compute_sort : 1014 ms
[OGL LOG] matrix is not yet sorted, sorting host matrix
[OGL LOG] sort_host_mtx_sparsity_pattern : 24 ms
[OGL LOG] sort_host_mtx : 13 ms
[OGL LOG] init_preconditioner : 16 ms
[OGL LOG] solve : 379 ms
BJcudaGKOBiCGStab:  Solving for p, Initial residual = 1, Final residual = 4.87536e-41, No Iterations 1000
time step continuity errors : sum local = 4.64599e-15, global = -1.96145e-20, cumulative = -1.96145e-20
[OGL LOG] init_preconditioner : 0 ms
[OGL LOG] solve : 368 ms
BJcudaGKOBiCGStab:  Solving for p, Initial residual = 0.676731, Final residual = 6.1611e-43, No Iterations 1000
time step continuity errors : sum local = 1.8395e-15, global = -2.07898e-20, cumulative = -4.04042e-20
ExecutionTime = 3.22 s  ClockTime = 3 s

Time = 0.004

Courant Number mean: 0.0636233 max: 0.723792
nonePBiCGStab:  Solving for Ux, Initial residual = 0.144136, Final residual = 0.0219208, No Iterations 5
nonePBiCGStab:  Solving for Uy, Initial residual = 0.363931, Final residual = 0.0522819, No Iterations 5
nonePBiCGStab:  Solving for Uz, Initial residual = 0.973677, Final residual = 0.158944, No Iterations 5
[OGL LOG] init_preconditioner : 0 ms
[OGL LOG] solve : 365 ms
BJcudaGKOBiCGStab:  Solving for p, Initial residual = 0.668507, Final residual = 1.11675e-43, No Iterations 1000
time step continuity errors : sum local = 8.48114e-16, global = 3.94764e-20, cumulative = -9.27828e-22
[OGL LOG] init_preconditioner : 0 ms
[OGL LOG] solve : 367 ms
BJcudaGKOBiCGStab:  Solving for p, Initial residual = 0.584655, Final residual = 7.05247e-48, No Iterations 1000
time step continuity errors : sum local = 2.72402e-16, global = 8.48762e-22, cumulative = -7.90665e-23
ExecutionTime = 4.09 s  ClockTime = 4 s

Time = 0.006

Courant Number mean: 0.0972275 max: 0.862515
nonePBiCGStab:  Solving for Ux, Initial residual = 0.0524189, Final residual = 0.00685535, No Iterations 5
nonePBiCGStab:  Solving for Uy, Initial residual = 0.127046, Final residual = 0.0201182, No Iterations 5
nonePBiCGStab:  Solving for Uz, Initial residual = 0.366752, Final residual = 0.0530698, No Iterations 5
[OGL LOG] init_preconditioner : 0 ms
[OGL LOG] solve : 371 ms
BJcudaGKOBiCGStab:  Solving for p, Initial residual = 0.594544, Final residual = 8.49419e-46, No Iterations 1000
time step continuity errors : sum local = 2.37809e-16, global = 2.98255e-20, cumulative = 2.97465e-20
[OGL LOG] init_preconditioner : 0 ms
[OGL LOG] solve : 363 ms
BJcudaGKOBiCGStab:  Solving for p, Initial residual = 0.528702, Final residual = 8.11469e-46, No Iterations 1000
time step continuity errors : sum local = 1.7964e-15, global = 3.74574e-20, cumulative = 6.72039e-20
ExecutionTime = 4.96 s  ClockTime = 5 s

Time = 0.008

Courant Number mean: 0.113794 max: 0.88248
nonePBiCGStab:  Solving for Ux, Initial residual = 0.0289573, Final residual = 0.00344464, No Iterations 5
nonePBiCGStab:  Solving for Uy, Initial residual = 0.0844254, Final residual = 0.0109195, No Iterations 5
nonePBiCGStab:  Solving for Uz, Initial residual = 0.229193, Final residual = 0.0297664, No Iterations 5
[OGL LOG] init_preconditioner : 0 ms
[OGL LOG] solve : 366 ms
BJcudaGKOBiCGStab:  Solving for p, Initial residual = 0.411432, Final residual = 5.46752e-47, No Iterations 1000
time step continuity errors : sum local = 5.00858e-17, global = 2.67845e-21, cumulative = 6.98823e-20
[OGL LOG] init_preconditioner : 0 ms
[OGL LOG] solve : 365 ms
BJcudaGKOBiCGStab:  Solving for p, Initial residual = 0.342686, Final residual = 1.21241e-48, No Iterations 1000
time step continuity errors : sum local = 5.27616e-17, global = -7.01114e-21, cumulative = 6.28712e-20
ExecutionTime = 5.83 s  ClockTime = 6 s

Time = 0.01

Courant Number mean: 0.127339 max: 0.898877
nonePBiCGStab:  Solving for Ux, Initial residual = 0.020277, Final residual = 0.00208485, No Iterations 5
nonePBiCGStab:  Solving for Uy, Initial residual = 0.0505563, Final residual = 0.00623586, No Iterations 5
nonePBiCGStab:  Solving for Uz, Initial residual = 0.112947, Final residual = 0.0180731, No Iterations 5
[OGL LOG] init_preconditioner : 0 ms
[OGL LOG] solve : 367 ms
BJcudaGKOBiCGStab:  Solving for p, Initial residual = 0.354043, Final residual = 5.1042e-44, No Iterations 1000
time step continuity errors : sum local = 1.1015e-16, global = -1.72086e-20, cumulative = 4.56627e-20
[OGL LOG] init_preconditioner : 0 ms
[OGL LOG] solve : 364 ms
BJcudaGKOBiCGStab:  Solving for p, Initial residual = 0.302211, Final residual = 1.49535e-42, No Iterations 1000
time step continuity errors : sum local = 4.89791e-16, global = 6.61798e-20, cumulative = 1.11842e-19
ExecutionTime = 6.71 s  ClockTime = 7 s

End

