hash: 13067a37122e29048a26f9fc4da739f9
/*---------------------------------------------------------------------------*\
  =========                 |
  \\      /  F ield         | OpenFOAM: The Open Source CFD Toolbox
   \\    /   O peration     | Website:  https://openfoam.org
    \\  /    A nd           | Version:  8
     \\/     M anipulation  |
\*---------------------------------------------------------------------------*/
Build  : 8-ef60d22ea792
Exec   : icoFoam
Date   : Nov 06 2021
Time   : 18:45:58
Host   : "nla-gpu2.ianm.kit.edu"
PID    : 1886955
I/O    : uncollated
Case   : /tmp/lidDrivenCavity3D/Variation_mesh/100/Variation_matrix_solver/CG_NoPrecond_HIP/1636220758
nProcs : 1
sigFpe : Enabling floating point exception trapping (FOAM_SIGFPE).
fileModificationChecking : Monitoring run-time modified files using timeStampMaster (fileModificationSkew 10)
allowSystemOperations : Allowing user-supplied system call operations

// * * * * * * * * * * * * * * * * * * * * * * * * * * * * * * * * * * * * * //
Create time

--> FOAM Warning : 
    From function virtual void Foam::Time::readDict()
    in file db/Time/TimeIO.C at line 408
    Reading "/tmp/lidDrivenCavity3D/Variation_mesh/100/Variation_matrix_solver/CG_NoPrecond_HIP/1636220758/system/controlDict" from line 20 to line 52
    Selecting compressed binary is inefficient and ineffective, resetting to uncompressed binary
Create mesh for time = 0

Reading transportProperties

Reading field p

Reading field U

Reading/calculating face flux field phi


Starting time loop

Time = 0.001

Courant Number mean: 1.7257e-17 max: 1.73472e-14
DILUPBiCGStab:  Solving for Ux, Initial residual = 1, Final residual = 0.00717233, No Iterations 5
DILUPBiCGStab:  Solving for Uy:  solution singularity
DILUPBiCGStab:  Solving for Uz:  solution singularity
linear solve U 412709
[OGL LOG] init_host_sparsity_pattern : 644953 mu s
[OGL LOG] matrix is not yet sorted, compute sorting idxs
[OGL LOG] compute_sort : 20517431 mu s
[OGL LOG] sort_host_sparsity_pattern : 656217 mu s
[OGL LOG] matrix not stored update host matrix
[OGL LOG] update_host_mtx : 51305 mu s
[OGL LOG] create_and_push_b : 2241 mu s
[OGL LOG] init_preconditioner : 6 mu s
[OGL LOG] solve : 881323 mu s
nonehipGKOCG:  Solving for p, Initial residual = 1, Final residual = 9.93588e-07, No Iterations 901
linear solve p 23249705
time step continuity errors : sum local = 5.69137e-10, global = 1.21556e-20, cumulative = 1.21556e-20
[OGL LOG] matrix is stored and update of host matrix requested
[OGL LOG] exp_update_host_mtx : 48453 mu s
[OGL LOG] host matrix needs to be resorted
[OGL LOG] create_and_push_b : 2011 mu s
[OGL LOG] init_preconditioner : 2 mu s
[OGL LOG] solve : 630346 mu s
nonehipGKOCG:  Solving for p, Initial residual = 0.777316, Final residual = 6.72349e-07, No Iterations 901
linear solve p 699739
time step continuity errors : sum local = 4.85916e-10, global = -9.16571e-22, cumulative = 1.1239e-20
ExecutionTime = 26.54 s  ClockTime = 25 s

Time = 0.002

Courant Number mean: 0.0560717 max: 0.805494
DILUPBiCGStab:  Solving for Ux, Initial residual = 0.138282, Final residual = 0.00319034, No Iterations 5
DILUPBiCGStab:  Solving for Uy, Initial residual = 0.430538, Final residual = 0.00909566, No Iterations 5
DILUPBiCGStab:  Solving for Uz, Initial residual = 0.9903, Final residual = 0.0225854, No Iterations 5
linear solve U 816184
[OGL LOG] matrix is stored and update of host matrix requested
[OGL LOG] exp_update_host_mtx : 48885 mu s
[OGL LOG] host matrix needs to be resorted
[OGL LOG] create_and_push_b : 1962 mu s
[OGL LOG] init_preconditioner : 2 mu s
[OGL LOG] solve : 631279 mu s
nonehipGKOCG:  Solving for p, Initial residual = 0.799783, Final residual = 4.48256e-07, No Iterations 901
linear solve p 701503
time step continuity errors : sum local = 4.58629e-10, global = 9.22637e-21, cumulative = 2.04654e-20
[OGL LOG] matrix is stored and update of host matrix requested
[OGL LOG] exp_update_host_mtx : 47875 mu s
[OGL LOG] host matrix needs to be resorted
[OGL LOG] create_and_push_b : 1937 mu s
[OGL LOG] init_preconditioner : 2 mu s
[OGL LOG] solve : 641573 mu s
nonehipGKOCG:  Solving for p, Initial residual = 0.740737, Final residual = 3.77042e-07, No Iterations 901
linear solve p 710639
time step continuity errors : sum local = 3.93752e-10, global = -3.7608e-21, cumulative = 1.67046e-20
ExecutionTime = 30.19 s  ClockTime = 28 s

Time = 0.003

Courant Number mean: 0.0852773 max: 0.943633
DILUPBiCGStab:  Solving for Ux, Initial residual = 0.0649257, Final residual = 0.00112815, No Iterations 5
DILUPBiCGStab:  Solving for Uy, Initial residual = 0.225975, Final residual = 0.00296595, No Iterations 5
DILUPBiCGStab:  Solving for Uz, Initial residual = 0.792327, Final residual = 0.0162193, No Iterations 5
linear solve U 811777
[OGL LOG] matrix is stored and update of host matrix requested
[OGL LOG] exp_update_host_mtx : 48202 mu s
[OGL LOG] host matrix needs to be resorted
[OGL LOG] create_and_push_b : 2034 mu s
[OGL LOG] init_preconditioner : 2 mu s
[OGL LOG] solve : 633268 mu s
nonehipGKOCG:  Solving for p, Initial residual = 0.832938, Final residual = 3.9859e-07, No Iterations 901
linear solve p 703100
time step continuity errors : sum local = 3.83416e-10, global = 6.44571e-21, cumulative = 2.31503e-20
[OGL LOG] matrix is stored and update of host matrix requested
[OGL LOG] exp_update_host_mtx : 48353 mu s
[OGL LOG] host matrix needs to be resorted
[OGL LOG] create_and_push_b : 1964 mu s
[OGL LOG] init_preconditioner : 2 mu s
[OGL LOG] solve : 629676 mu s
nonehipGKOCG:  Solving for p, Initial residual = 0.802223, Final residual = 3.62859e-07, No Iterations 901
linear solve p 699148
time step continuity errors : sum local = 3.40462e-10, global = -9.27566e-21, cumulative = 1.38747e-20
ExecutionTime = 33.82 s  ClockTime = 31 s

End

================================================================================
hash: e7ec5dc8e8e6977151e0e0e2f61764e9
/*---------------------------------------------------------------------------*\
  =========                 |
  \\      /  F ield         | OpenFOAM: The Open Source CFD Toolbox
   \\    /   O peration     | Website:  https://openfoam.org
    \\  /    A nd           | Version:  8
     \\/     M anipulation  |
\*---------------------------------------------------------------------------*/
Build  : 8-ef60d22ea792
Exec   : icoFoam
Date   : Nov 06 2021
Time   : 18:46:29
Host   : "nla-gpu2.ianm.kit.edu"
PID    : 1887228
I/O    : uncollated
Case   : /tmp/lidDrivenCavity3D/Variation_mesh/100/Variation_matrix_solver/BiCGStab_NoPrecond_HIP/1636220789
nProcs : 1
sigFpe : Enabling floating point exception trapping (FOAM_SIGFPE).
fileModificationChecking : Monitoring run-time modified files using timeStampMaster (fileModificationSkew 10)
allowSystemOperations : Allowing user-supplied system call operations

// * * * * * * * * * * * * * * * * * * * * * * * * * * * * * * * * * * * * * //
Create time

--> FOAM Warning : 
    From function virtual void Foam::Time::readDict()
    in file db/Time/TimeIO.C at line 408
    Reading "/tmp/lidDrivenCavity3D/Variation_mesh/100/Variation_matrix_solver/BiCGStab_NoPrecond_HIP/1636220789/system/controlDict" from line 20 to line 52
    Selecting compressed binary is inefficient and ineffective, resetting to uncompressed binary
Create mesh for time = 0

Reading transportProperties

Reading field p

Reading field U

Reading/calculating face flux field phi


Starting time loop

Time = 0.001

Courant Number mean: 1.7257e-17 max: 1.73472e-14
DILUPBiCGStab:  Solving for Ux, Initial residual = 1, Final residual = 0.00717233, No Iterations 5
DILUPBiCGStab:  Solving for Uy:  solution singularity
DILUPBiCGStab:  Solving for Uz:  solution singularity
linear solve U 413863
[OGL LOG] init_host_sparsity_pattern : 634441 mu s
[OGL LOG] matrix is not yet sorted, compute sorting idxs
[OGL LOG] compute_sort : 21326703 mu s
[OGL LOG] sort_host_sparsity_pattern : 667684 mu s
[OGL LOG] matrix not stored update host matrix
[OGL LOG] update_host_mtx : 50714 mu s
[OGL LOG] create_and_push_b : 2197 mu s
[OGL LOG] init_preconditioner : 7 mu s
[OGL LOG] solve : 1352675 mu s
nonehipGKOBiCGStab:  Solving for p, Initial residual = 1, Final residual = 2.5769e-07, No Iterations 724
linear solve p 24527104
time step continuity errors : sum local = 0.000854566, global = -2.67294e-19, cumulative = -2.67294e-19
[OGL LOG] matrix is stored and update of host matrix requested
[OGL LOG] exp_update_host_mtx : 48746 mu s
[OGL LOG] host matrix needs to be resorted
[OGL LOG] create_and_push_b : 2021 mu s
[OGL LOG] init_preconditioner : 2 mu s
[OGL LOG] solve : 983959 mu s
nonehipGKOBiCGStab:  Solving for p, Initial residual = 0.898735, Final residual = 6.41687e-07, No Iterations 728
linear solve p 1055003
time step continuity errors : sum local = 2.18126e-09, global = -1.45889e-21, cumulative = -2.68752e-19
ExecutionTime = 28.76 s  ClockTime = 27 s

Time = 0.002

Courant Number mean: 0.0560759 max: 0.805746
DILUPBiCGStab:  Solving for Ux, Initial residual = 0.1383, Final residual = 0.00319061, No Iterations 5
DILUPBiCGStab:  Solving for Uy, Initial residual = 0.438242, Final residual = 0.0091849, No Iterations 5
DILUPBiCGStab:  Solving for Uz, Initial residual = 0.920154, Final residual = 0.0134272, No Iterations 5
linear solve U 817943
[OGL LOG] matrix is stored and update of host matrix requested
[OGL LOG] exp_update_host_mtx : 50069 mu s
[OGL LOG] host matrix needs to be resorted
[OGL LOG] create_and_push_b : 1984 mu s
[OGL LOG] init_preconditioner : 2 mu s
[OGL LOG] solve : 961661 mu s
nonehipGKOBiCGStab:  Solving for p, Initial residual = 0.843907, Final residual = 4.17358e-07, No Iterations 711
linear solve p 1033819
time step continuity errors : sum local = 1.15344e-05, global = -1.08594e-21, cumulative = -2.69838e-19
[OGL LOG] matrix is stored and update of host matrix requested
[OGL LOG] exp_update_host_mtx : 48307 mu s
[OGL LOG] host matrix needs to be resorted
[OGL LOG] create_and_push_b : 1984 mu s
[OGL LOG] init_preconditioner : 2 mu s
[OGL LOG] solve : 1096091 mu s
nonehipGKOBiCGStab:  Solving for p, Initial residual = 0.760498, Final residual = 2.16804e-07, No Iterations 812
linear solve p 1166083
time step continuity errors : sum local = 6.44004e-10, global = -7.74953e-23, cumulative = -2.69916e-19
ExecutionTime = 33.74 s  ClockTime = 30 s

Time = 0.003

Courant Number mean: 0.0853477 max: 0.945033
DILUPBiCGStab:  Solving for Ux, Initial residual = 0.0649285, Final residual = 0.0011279, No Iterations 5
DILUPBiCGStab:  Solving for Uy, Initial residual = 0.236139, Final residual = 0.00296545, No Iterations 5
DILUPBiCGStab:  Solving for Uz, Initial residual = 0.833023, Final residual = 0.0116466, No Iterations 5
linear solve U 812780
[OGL LOG] matrix is stored and update of host matrix requested
[OGL LOG] exp_update_host_mtx : 48997 mu s
[OGL LOG] host matrix needs to be resorted
[OGL LOG] create_and_push_b : 2213 mu s
[OGL LOG] init_preconditioner : 2 mu s
[OGL LOG] solve : 1030583 mu s
nonehipGKOBiCGStab:  Solving for p, Initial residual = 0.859764, Final residual = 2.5575e-07, No Iterations 768
linear solve p 1101893
time step continuity errors : sum local = 6.26575e-10, global = 1.02811e-21, cumulative = -2.68888e-19
[OGL LOG] matrix is stored and update of host matrix requested
[OGL LOG] exp_update_host_mtx : 48337 mu s
[OGL LOG] host matrix needs to be resorted
[OGL LOG] create_and_push_b : 1992 mu s
[OGL LOG] init_preconditioner : 2 mu s
[OGL LOG] solve : 1012744 mu s
nonehipGKOBiCGStab:  Solving for p, Initial residual = 0.806317, Final residual = 3.62051e-07, No Iterations 750
linear solve p 1083044
time step continuity errors : sum local = 8.53237e-10, global = -1.18543e-21, cumulative = -2.70073e-19
ExecutionTime = 38.68 s  ClockTime = 34 s

End

================================================================================
hash: 4354cef35fe092b98dacd2cc5dd94ed4
/*---------------------------------------------------------------------------*\
  =========                 |
  \\      /  F ield         | OpenFOAM: The Open Source CFD Toolbox
   \\    /   O peration     | Website:  https://openfoam.org
    \\  /    A nd           | Version:  8
     \\/     M anipulation  |
\*---------------------------------------------------------------------------*/
Build  : 8-ef60d22ea792
Exec   : icoFoam
Date   : Nov 06 2021
Time   : 18:47:03
Host   : "nla-gpu2.ianm.kit.edu"
PID    : 1887416
I/O    : uncollated
Case   : /tmp/lidDrivenCavity3D/Variation_mesh/200/Variation_matrix_solver/CG_NoPrecond_HIP/1636220823
nProcs : 1
sigFpe : Enabling floating point exception trapping (FOAM_SIGFPE).
fileModificationChecking : Monitoring run-time modified files using timeStampMaster (fileModificationSkew 10)
allowSystemOperations : Allowing user-supplied system call operations

// * * * * * * * * * * * * * * * * * * * * * * * * * * * * * * * * * * * * * //
Create time

--> FOAM Warning : 
    From function virtual void Foam::Time::readDict()
    in file db/Time/TimeIO.C at line 408
    Reading "/tmp/lidDrivenCavity3D/Variation_mesh/200/Variation_matrix_solver/CG_NoPrecond_HIP/1636220823/system/controlDict" from line 20 to line 52
    Selecting compressed binary is inefficient and ineffective, resetting to uncompressed binary
Create mesh for time = 0

Reading transportProperties

Reading field p

Reading field U

Reading/calculating face flux field phi


Starting time loop

Time = 0.0005

Courant Number mean: 1.64868e-17 max: 4.16334e-14
DILUPBiCGStab:  Solving for Ux, Initial residual = 1, Final residual = 0.0184276, No Iterations 5
DILUPBiCGStab:  Solving for Uy:  solution singularity
DILUPBiCGStab:  Solving for Uz:  solution singularity
linear solve U 3934504
[OGL LOG] init_host_sparsity_pattern : 5171203 mu s
[OGL LOG] matrix is not yet sorted, compute sorting idxs
[OGL LOG] compute_sort : 186189114 mu s
[OGL LOG] sort_host_sparsity_pattern : 5289496 mu s
[OGL LOG] matrix not stored update host matrix
[OGL LOG] update_host_mtx : 431618 mu s
[OGL LOG] create_and_push_b : 8102 mu s
[OGL LOG] init_preconditioner : 7 mu s
[OGL LOG] solve : 5495620 mu s
nonehipGKOCG:  Solving for p, Initial residual = 1, Final residual = 9.85615e-07, No Iterations 1815
linear solve p 203465513
time step continuity errors : sum local = 1.82515e-10, global = -3.74672e-21, cumulative = -3.74672e-21
[OGL LOG] matrix is stored and update of host matrix requested
[OGL LOG] exp_update_host_mtx : 402554 mu s
[OGL LOG] host matrix needs to be resorted
[OGL LOG] create_and_push_b : 8490 mu s
[OGL LOG] init_preconditioner : 2 mu s
[OGL LOG] solve : 5010251 mu s
nonehipGKOCG:  Solving for p, Initial residual = 0.814525, Final residual = 2.38457e-07, No Iterations 1873
linear solve p 5547411
time step continuity errors : sum local = 5.37711e-11, global = -6.07966e-22, cumulative = -4.35469e-21
ExecutionTime = 225.13 s  ClockTime = 223 s

Time = 0.001

Courant Number mean: 0.0401056 max: 0.861331
DILUPBiCGStab:  Solving for Ux, Initial residual = 0.118121, Final residual = 0.0105765, No Iterations 5
DILUPBiCGStab:  Solving for Uy, Initial residual = 0.504586, Final residual = 0.0420529, No Iterations 5
DILUPBiCGStab:  Solving for Uz, Initial residual = 0.995163, Final residual = 0.0926682, No Iterations 5
linear solve U 6758376
[OGL LOG] matrix is stored and update of host matrix requested
[OGL LOG] exp_update_host_mtx : 428322 mu s
[OGL LOG] host matrix needs to be resorted
[OGL LOG] create_and_push_b : 8421 mu s
[OGL LOG] init_preconditioner : 2 mu s
[OGL LOG] solve : 4965792 mu s
nonehipGKOCG:  Solving for p, Initial residual = 0.890719, Final residual = 2.15819e-07, No Iterations 1851
linear solve p 5522585
time step continuity errors : sum local = 1.03464e-10, global = 1.08769e-21, cumulative = -3.267e-21
[OGL LOG] matrix is stored and update of host matrix requested
[OGL LOG] exp_update_host_mtx : 403135 mu s
[OGL LOG] host matrix needs to be resorted
[OGL LOG] create_and_push_b : 8320 mu s
[OGL LOG] init_preconditioner : 2 mu s
[OGL LOG] solve : 4959590 mu s
nonehipGKOCG:  Solving for p, Initial residual = 0.841127, Final residual = 1.95886e-07, No Iterations 1851
linear solve p 5491799
time step continuity errors : sum local = 9.58069e-11, global = 8.4474e-22, cumulative = -2.42226e-21
ExecutionTime = 249.37 s  ClockTime = 245 s

Time = 0.0015

Courant Number mean: 0.0625809 max: 1.02192
DILUPBiCGStab:  Solving for Ux, Initial residual = 0.0696031, Final residual = 0.00464901, No Iterations 5
DILUPBiCGStab:  Solving for Uy, Initial residual = 0.362499, Final residual = 0.0177327, No Iterations 5
DILUPBiCGStab:  Solving for Uz, Initial residual = 0.847648, Final residual = 0.0667767, No Iterations 5
linear solve U 6754814
[OGL LOG] matrix is stored and update of host matrix requested
[OGL LOG] exp_update_host_mtx : 403096 mu s
[OGL LOG] host matrix needs to be resorted
[OGL LOG] create_and_push_b : 8257 mu s
[OGL LOG] init_preconditioner : 2 mu s
[OGL LOG] solve : 4963816 mu s
nonehipGKOCG:  Solving for p, Initial residual = 0.935164, Final residual = 2.22006e-07, No Iterations 1851
linear solve p 5496443
time step continuity errors : sum local = 1.4248e-10, global = -6.84059e-22, cumulative = -3.10632e-21
[OGL LOG] matrix is stored and update of host matrix requested
[OGL LOG] exp_update_host_mtx : 404382 mu s
[OGL LOG] host matrix needs to be resorted
[OGL LOG] create_and_push_b : 8452 mu s
[OGL LOG] init_preconditioner : 3 mu s
[OGL LOG] solve : 4949422 mu s
nonehipGKOCG:  Solving for p, Initial residual = 0.905288, Final residual = 2.0723e-07, No Iterations 1851
linear solve p 5482604
time step continuity errors : sum local = 1.31911e-10, global = 2.44753e-21, cumulative = -6.58786e-22
ExecutionTime = 273.5 s  ClockTime = 267 s

End

================================================================================
hash: 475a6631bb8a9b189f6cf13d9dbf467a
/*---------------------------------------------------------------------------*\
  =========                 |
  \\      /  F ield         | OpenFOAM: The Open Source CFD Toolbox
   \\    /   O peration     | Website:  https://openfoam.org
    \\  /    A nd           | Version:  8
     \\/     M anipulation  |
\*---------------------------------------------------------------------------*/
Build  : 8-ef60d22ea792
Exec   : icoFoam
Date   : Nov 06 2021
Time   : 18:51:31
Host   : "nla-gpu2.ianm.kit.edu"
PID    : 1889297
I/O    : uncollated
Case   : /tmp/lidDrivenCavity3D/Variation_mesh/200/Variation_matrix_solver/BiCGStab_NoPrecond_HIP/1636221091
nProcs : 1
sigFpe : Enabling floating point exception trapping (FOAM_SIGFPE).
fileModificationChecking : Monitoring run-time modified files using timeStampMaster (fileModificationSkew 10)
allowSystemOperations : Allowing user-supplied system call operations

// * * * * * * * * * * * * * * * * * * * * * * * * * * * * * * * * * * * * * //
Create time

--> FOAM Warning : 
    From function virtual void Foam::Time::readDict()
    in file db/Time/TimeIO.C at line 408
    Reading "/tmp/lidDrivenCavity3D/Variation_mesh/200/Variation_matrix_solver/BiCGStab_NoPrecond_HIP/1636221091/system/controlDict" from line 20 to line 52
    Selecting compressed binary is inefficient and ineffective, resetting to uncompressed binary
Create mesh for time = 0

Reading transportProperties

Reading field p

Reading field U

Reading/calculating face flux field phi


Starting time loop

Time = 0.0005

Courant Number mean: 1.64868e-17 max: 4.16334e-14
DILUPBiCGStab:  Solving for Ux, Initial residual = 1, Final residual = 0.0184276, No Iterations 5
DILUPBiCGStab:  Solving for Uy:  solution singularity
DILUPBiCGStab:  Solving for Uz:  solution singularity
linear solve U 3865679
[OGL LOG] init_host_sparsity_pattern : 5019225 mu s
[OGL LOG] matrix is not yet sorted, compute sorting idxs
[OGL LOG] compute_sort : 179534923 mu s
[OGL LOG] sort_host_sparsity_pattern : 5255780 mu s
[OGL LOG] matrix not stored update host matrix
[OGL LOG] update_host_mtx : 430857 mu s
[OGL LOG] create_and_push_b : 8022 mu s
[OGL LOG] init_preconditioner : 7 mu s
[OGL LOG] solve : 8659957 mu s
nonehipGKOBiCGStab:  Solving for p, Initial residual = 1, Final residual = 3.69248e-07, No Iterations 1519
linear solve p 199778845
time step continuity errors : sum local = 6.38807e-05, global = -2.33176e-20, cumulative = -2.33176e-20
[OGL LOG] matrix is stored and update of host matrix requested
[OGL LOG] exp_update_host_mtx : 401902 mu s
[OGL LOG] host matrix needs to be resorted
[OGL LOG] create_and_push_b : 8952 mu s
[OGL LOG] init_preconditioner : 2 mu s
[OGL LOG] solve : 7688815 mu s
nonehipGKOBiCGStab:  Solving for p, Initial residual = 0.857656, Final residual = 7.55411e-07, No Iterations 1530
linear solve p 8233102
time step continuity errors : sum local = 4.53296e-10, global = 2.22016e-21, cumulative = -2.10975e-20
ExecutionTime = 225.79 s  ClockTime = 222 s

Time = 0.001

Courant Number mean: 0.0401064 max: 0.861331
DILUPBiCGStab:  Solving for Ux, Initial residual = 0.11813, Final residual = 0.0105778, No Iterations 5
DILUPBiCGStab:  Solving for Uy, Initial residual = 0.506181, Final residual = 0.0421981, No Iterations 5
DILUPBiCGStab:  Solving for Uz, Initial residual = 0.953891, Final residual = 0.0812417, No Iterations 5
linear solve U 6836676
[OGL LOG] matrix is stored and update of host matrix requested
[OGL LOG] exp_update_host_mtx : 431405 mu s
[OGL LOG] host matrix needs to be resorted
[OGL LOG] create_and_push_b : 8248 mu s
[OGL LOG] init_preconditioner : 2 mu s
[OGL LOG] solve : 8572348 mu s
nonehipGKOBiCGStab:  Solving for p, Initial residual = 0.896241, Final residual = 4.83728e-07, No Iterations 1708
linear solve p 9157037
time step continuity errors : sum local = 5.38619e-10, global = -8.72933e-22, cumulative = -2.19704e-20
[OGL LOG] matrix is stored and update of host matrix requested
[OGL LOG] exp_update_host_mtx : 427035 mu s
[OGL LOG] host matrix needs to be resorted
[OGL LOG] create_and_push_b : 8373 mu s
[OGL LOG] init_preconditioner : 3 mu s
[OGL LOG] solve : 7510647 mu s
nonehipGKOBiCGStab:  Solving for p, Initial residual = 0.848195, Final residual = 6.52616e-07, No Iterations 1496
linear solve p 8074882
time step continuity errors : sum local = 7.30848e-10, global = 9.1107e-22, cumulative = -2.10593e-20
ExecutionTime = 257.91 s  ClockTime = 251 s

Time = 0.0015

Courant Number mean: 0.0625897 max: 1.02193
DILUPBiCGStab:  Solving for Ux, Initial residual = 0.069604, Final residual = 0.00464653, No Iterations 5
DILUPBiCGStab:  Solving for Uy, Initial residual = 0.363723, Final residual = 0.0177078, No Iterations 5
DILUPBiCGStab:  Solving for Uz, Initial residual = 0.854467, Final residual = 0.0618512, No Iterations 5
linear solve U 6796649
[OGL LOG] matrix is stored and update of host matrix requested
[OGL LOG] exp_update_host_mtx : 425285 mu s
[OGL LOG] host matrix needs to be resorted
[OGL LOG] create_and_push_b : 8269 mu s
[OGL LOG] init_preconditioner : 3 mu s
[OGL LOG] solve : 9600560 mu s
nonehipGKOBiCGStab:  Solving for p, Initial residual = 0.937983, Final residual = 2.75433e-07, No Iterations 1918
linear solve p 10155951
time step continuity errors : sum local = 9.39386e-06, global = -5.48613e-21, cumulative = -2.65455e-20
[OGL LOG] matrix is stored and update of host matrix requested
[OGL LOG] exp_update_host_mtx : 427546 mu s
[OGL LOG] host matrix needs to be resorted
[OGL LOG] create_and_push_b : 8385 mu s
[OGL LOG] init_preconditioner : 3 mu s
[OGL LOG] solve : 8205310 mu s
nonehipGKOBiCGStab:  Solving for p, Initial residual = 0.906407, Final residual = 6.48224e-07, No Iterations 1634
linear solve p 8769978
time step continuity errors : sum local = 9.01406e-10, global = 2.80471e-21, cumulative = -2.37407e-20
ExecutionTime = 291.86 s  ClockTime = 281 s

End

================================================================================
hash: 131599c27a15e906a9b3a3c8b155fe61
/*---------------------------------------------------------------------------*\
  =========                 |
  \\      /  F ield         | OpenFOAM: The Open Source CFD Toolbox
   \\    /   O peration     | Website:  https://openfoam.org
    \\  /    A nd           | Version:  8
     \\/     M anipulation  |
\*---------------------------------------------------------------------------*/
Build  : 8-ef60d22ea792
Exec   : icoFoam
Date   : Nov 06 2021
Time   : 18:56:13
Host   : "nla-gpu2.ianm.kit.edu"
PID    : 1891248
I/O    : uncollated
Case   : /tmp/lidDrivenCavity3D/Variation_mesh/300/Variation_matrix_solver/CG_NoPrecond_HIP/1636221373
nProcs : 1
sigFpe : Enabling floating point exception trapping (FOAM_SIGFPE).
fileModificationChecking : Monitoring run-time modified files using timeStampMaster (fileModificationSkew 10)
allowSystemOperations : Allowing user-supplied system call operations

// * * * * * * * * * * * * * * * * * * * * * * * * * * * * * * * * * * * * * //
Create time

--> FOAM Warning : 
    From function virtual void Foam::Time::readDict()
    in file db/Time/TimeIO.C at line 408
    Reading "/tmp/lidDrivenCavity3D/Variation_mesh/300/Variation_matrix_solver/CG_NoPrecond_HIP/1636221373/system/controlDict" from line 20 to line 52
    Selecting compressed binary is inefficient and ineffective, resetting to uncompressed binary
Create mesh for time = 0

Reading transportProperties

Reading field p

Reading field U

Reading/calculating face flux field phi


Starting time loop

Time = 0.000333333

Courant Number mean: 1.63465e-17 max: 6.245e-14
DILUPBiCGStab:  Solving for Ux, Initial residual = 1, Final residual = 0.0259107, No Iterations 5
DILUPBiCGStab:  Solving for Uy:  solution singularity
DILUPBiCGStab:  Solving for Uz:  solution singularity
linear solve U 12987319
[OGL LOG] init_host_sparsity_pattern : 16823941 mu s
[OGL LOG] matrix is not yet sorted, compute sorting idxs
[OGL LOG] compute_sort : 654992094 mu s
[OGL LOG] sort_host_sparsity_pattern : 18155711 mu s
[OGL LOG] matrix not stored update host matrix
[OGL LOG] update_host_mtx : 1521163 mu s
[OGL LOG] create_and_push_b : 26565 mu s
[OGL LOG] init_preconditioner : 7 mu s
[OGL LOG] solve : 22780073 mu s
nonehipGKOCG:  Solving for p, Initial residual = 1, Final residual = 9.82686e-07, No Iterations 2731
linear solve p 716175485
time step continuity errors : sum local = 9.01466e-11, global = 3.34148e-21, cumulative = 3.34148e-21
[OGL LOG] matrix is stored and update of host matrix requested
[OGL LOG] exp_update_host_mtx : 1461857 mu s
[OGL LOG] host matrix needs to be resorted
[OGL LOG] create_and_push_b : 27601 mu s
[OGL LOG] init_preconditioner : 3 mu s
[OGL LOG] solve : 21426126 mu s
nonehipGKOCG:  Solving for p, Initial residual = 0.828547, Final residual = 8.93466e-07, No Iterations 2726
linear solve p 23338423
time step continuity errors : sum local = 9.84652e-11, global = -1.67482e-22, cumulative = 3.174e-21
ExecutionTime = 791.62 s  ClockTime = 788 s

Time = 0.000666667

Courant Number mean: 0.0313142 max: 0.884933
DILUPBiCGStab:  Solving for Ux, Initial residual = 0.106267, Final residual = 0.0161463, No Iterations 5
DILUPBiCGStab:  Solving for Uy, Initial residual = 0.544643, Final residual = 0.0804637, No Iterations 5
DILUPBiCGStab:  Solving for Uz, Initial residual = 0.996734, Final residual = 0.166279, No Iterations 5
linear solve U 22980024
[OGL LOG] matrix is stored and update of host matrix requested
[OGL LOG] exp_update_host_mtx : 1458800 mu s
[OGL LOG] host matrix needs to be resorted
[OGL LOG] create_and_push_b : 30147 mu s
[OGL LOG] init_preconditioner : 3 mu s
[OGL LOG] solve : 21484964 mu s
nonehipGKOCG:  Solving for p, Initial residual = 0.921479, Final residual = 5.70935e-07, No Iterations 2726
linear solve p 23375876
time step continuity errors : sum local = 1.70366e-10, global = 9.06412e-22, cumulative = 4.08041e-21
[OGL LOG] matrix is stored and update of host matrix requested
[OGL LOG] exp_update_host_mtx : 1456914 mu s
[OGL LOG] host matrix needs to be resorted
[OGL LOG] create_and_push_b : 27279 mu s
[OGL LOG] init_preconditioner : 3 mu s
[OGL LOG] solve : 21431633 mu s
nonehipGKOCG:  Solving for p, Initial residual = 0.875916, Final residual = 5.21607e-07, No Iterations 2726
linear solve p 23308129
time step continuity errors : sum local = 1.58737e-10, global = 8.44983e-22, cumulative = 4.92539e-21
ExecutionTime = 880.87 s  ClockTime = 875 s

Time = 0.001

Courant Number mean: 0.0497481 max: 1.07385
DILUPBiCGStab:  Solving for Ux, Initial residual = 0.0677241, Final residual = 0.00800595, No Iterations 5
DILUPBiCGStab:  Solving for Uy, Initial residual = 0.423034, Final residual = 0.0365398, No Iterations 5
DILUPBiCGStab:  Solving for Uz, Initial residual = 0.87354, Final residual = 0.118328, No Iterations 5
linear solve U 23159097
[OGL LOG] matrix is stored and update of host matrix requested
[OGL LOG] exp_update_host_mtx : 1459920 mu s
[OGL LOG] host matrix needs to be resorted
[OGL LOG] create_and_push_b : 27964 mu s
[OGL LOG] init_preconditioner : 2 mu s
[OGL LOG] solve : 21383658 mu s
nonehipGKOCG:  Solving for p, Initial residual = 0.959697, Final residual = 5.78542e-07, No Iterations 2726
linear solve p 23265027
time step continuity errors : sum local = 2.75201e-10, global = 1.00455e-21, cumulative = 5.92994e-21
[OGL LOG] matrix is stored and update of host matrix requested
[OGL LOG] exp_update_host_mtx : 1457957 mu s
[OGL LOG] host matrix needs to be resorted
[OGL LOG] create_and_push_b : 28678 mu s
[OGL LOG] init_preconditioner : 3 mu s
[OGL LOG] solve : 21525628 mu s
nonehipGKOCG:  Solving for p, Initial residual = 0.92718, Final residual = 5.40131e-07, No Iterations 2726
linear solve p 23392261
time step continuity errors : sum local = 2.56815e-10, global = -3.15883e-21, cumulative = 2.77111e-21
ExecutionTime = 970.09 s  ClockTime = 960 s

End

================================================================================
hash: b9017547678f0b5ceb0e04a92d348a5f
/*---------------------------------------------------------------------------*\
  =========                 |
  \\      /  F ield         | OpenFOAM: The Open Source CFD Toolbox
   \\    /   O peration     | Website:  https://openfoam.org
    \\  /    A nd           | Version:  8
     \\/     M anipulation  |
\*---------------------------------------------------------------------------*/
Build  : 8-ef60d22ea792
Exec   : icoFoam
Date   : Nov 06 2021
Time   : 19:12:16
Host   : "nla-gpu2.ianm.kit.edu"
PID    : 1897827
I/O    : uncollated
Case   : /tmp/lidDrivenCavity3D/Variation_mesh/300/Variation_matrix_solver/BiCGStab_NoPrecond_HIP/1636222336
nProcs : 1
sigFpe : Enabling floating point exception trapping (FOAM_SIGFPE).
fileModificationChecking : Monitoring run-time modified files using timeStampMaster (fileModificationSkew 10)
allowSystemOperations : Allowing user-supplied system call operations

// * * * * * * * * * * * * * * * * * * * * * * * * * * * * * * * * * * * * * //
Create time

--> FOAM Warning : 
    From function virtual void Foam::Time::readDict()
    in file db/Time/TimeIO.C at line 408
    Reading "/tmp/lidDrivenCavity3D/Variation_mesh/300/Variation_matrix_solver/BiCGStab_NoPrecond_HIP/1636222336/system/controlDict" from line 20 to line 52
    Selecting compressed binary is inefficient and ineffective, resetting to uncompressed binary
Create mesh for time = 0

Reading transportProperties

Reading field p

Reading field U

Reading/calculating face flux field phi


Starting time loop

Time = 0.000333333

Courant Number mean: 1.63465e-17 max: 6.245e-14
DILUPBiCGStab:  Solving for Ux, Initial residual = 1, Final residual = 0.0259107, No Iterations 5
DILUPBiCGStab:  Solving for Uy:  solution singularity
DILUPBiCGStab:  Solving for Uz:  solution singularity
linear solve U 13024146
[OGL LOG] init_host_sparsity_pattern : 16809516 mu s
[OGL LOG] matrix is not yet sorted, compute sorting idxs
[OGL LOG] compute_sort : 656384334 mu s
[OGL LOG] sort_host_sparsity_pattern : 18102506 mu s
[OGL LOG] matrix not stored update host matrix
[OGL LOG] update_host_mtx : 1521080 mu s
[OGL LOG] create_and_push_b : 27269 mu s
[OGL LOG] init_preconditioner : 7 mu s
[OGL LOG] solve : 44393156 mu s
nonehipGKOBiCGStab:  Solving for p, Initial residual = 1, Final residual = 6.71507e-07, No Iterations 2859
linear solve p 739111709
time step continuity errors : sum local = 8.72791e-05, global = 6.98445e-19, cumulative = 6.98445e-19
[OGL LOG] matrix is stored and update of host matrix requested
[OGL LOG] exp_update_host_mtx : 1459627 mu s
[OGL LOG] host matrix needs to be resorted
[OGL LOG] create_and_push_b : 28212 mu s
[OGL LOG] init_preconditioner : 3 mu s
[OGL LOG] solve : 39866261 mu s
nonehipGKOBiCGStab:  Solving for p, Initial residual = 0.914897, Final residual = 9.29665e-07, No Iterations 2736
linear solve p 41778565
time step continuity errors : sum local = 4.14962e-10, global = 2.5841e-22, cumulative = 6.98704e-19
ExecutionTime = 839.18 s  ClockTime = 831 s

Time = 0.000666667

Courant Number mean: 0.0313152 max: 0.884933
DILUPBiCGStab:  Solving for Ux, Initial residual = 0.106297, Final residual = 0.0161525, No Iterations 5
DILUPBiCGStab:  Solving for Uy, Initial residual = 0.54769, Final residual = 0.080832, No Iterations 5
DILUPBiCGStab:  Solving for Uz, Initial residual = 0.908037, Final residual = 0.102099, No Iterations 5
linear solve U 23118365
[OGL LOG] matrix is stored and update of host matrix requested
[OGL LOG] exp_update_host_mtx : 1455599 mu s
[OGL LOG] host matrix needs to be resorted
[OGL LOG] create_and_push_b : 27504 mu s
[OGL LOG] init_preconditioner : 2 mu s
[OGL LOG] solve : 43747763 mu s
nonehipGKOBiCGStab:  Solving for p, Initial residual = 0.9569, Final residual = 6.44039e-07, No Iterations 2998
linear solve p 45627486
time step continuity errors : sum local = 0.00173377, global = -2.72963e-18, cumulative = -2.03093e-18
[OGL LOG] matrix is stored and update of host matrix requested
[OGL LOG] exp_update_host_mtx : 1467238 mu s
[OGL LOG] host matrix needs to be resorted
[OGL LOG] create_and_push_b : 27926 mu s
[OGL LOG] init_preconditioner : 2 mu s
[OGL LOG] solve : 35634457 mu s
nonehipGKOBiCGStab:  Solving for p, Initial residual = 0.94766, Final residual = 5.67595e-07, No Iterations 2440
linear solve p 37527582
time step continuity errors : sum local = 3.71931e-06, global = -5.06973e-22, cumulative = -2.03143e-18
ExecutionTime = 968.22 s  ClockTime = 954 s

Time = 0.001

Courant Number mean: 0.0498241 max: 1.07495
DILUPBiCGStab:  Solving for Ux, Initial residual = 0.0682987, Final residual = 0.00801158, No Iterations 5
DILUPBiCGStab:  Solving for Uy, Initial residual = 0.57066, Final residual = 0.0299777, No Iterations 5
DILUPBiCGStab:  Solving for Uz, Initial residual = 0.879657, Final residual = 0.0652918, No Iterations 5
linear solve U 23113156
[OGL LOG] matrix is stored and update of host matrix requested
[OGL LOG] exp_update_host_mtx : 1460170 mu s
[OGL LOG] host matrix needs to be resorted
[OGL LOG] create_and_push_b : 27445 mu s
[OGL LOG] init_preconditioner : 3 mu s
[OGL LOG] solve : 38973960 mu s
nonehipGKOBiCGStab:  Solving for p, Initial residual = 0.960754, Final residual = 8.20101e-07, No Iterations 2668
linear solve p 40857280
time step continuity errors : sum local = 7.20623e-07, global = 3.22665e-22, cumulative = -2.03111e-18
[OGL LOG] matrix is stored and update of host matrix requested
[OGL LOG] exp_update_host_mtx : 1458360 mu s
[OGL LOG] host matrix needs to be resorted
[OGL LOG] create_and_push_b : 27562 mu s
[OGL LOG] init_preconditioner : 3 mu s
[OGL LOG] solve : 43634602 mu s
nonehipGKOBiCGStab:  Solving for p, Initial residual = 0.908802, Final residual = 6.98097e-07, No Iterations 2968
linear solve p 45516909
time step continuity errors : sum local = 3.02865e-09, global = 3.31724e-22, cumulative = -2.03078e-18
ExecutionTime = 1100.53 s  ClockTime = 1080 s

End

================================================================================
hash: 4bb1e44f550e19d08b71552ef6e30d69
--------------------------------------------------------------------------
Failed to create a completion queue (CQ):

Hostname: nla-gpu2
Requested CQE: 16384
Error:    Cannot allocate memory

Check the CQE attribute.
--------------------------------------------------------------------------
--------------------------------------------------------------------------
Open MPI has detected that there are UD-capable Verbs devices on your
system, but none of them were able to be setup properly.  This may
indicate a problem on this system.

You job will continue, but Open MPI will ignore the "ud" oob component
in this run.

Hostname: nla-gpu2
--------------------------------------------------------------------------
--------------------------------------------------------------------------
Failed to create a completion queue (CQ):

Hostname: nla-gpu2
Requested CQE: 16384
Error:    Cannot allocate memory

Check the CQE attribute.
--------------------------------------------------------------------------
--------------------------------------------------------------------------
Open MPI has detected that there are UD-capable Verbs devices on your
system, but none of them were able to be setup properly.  This may
indicate a problem on this system.

You job will continue, but Open MPI will ignore the "ud" oob component
in this run.

Hostname: nla-gpu2
--------------------------------------------------------------------------
--------------------------------------------------------------------------
WARNING: No preset parameters were found for the device that Open MPI
detected:

  Local host:            nla-gpu2
  Device name:           mlx5_0
  Device vendor ID:      0x02c9
  Device vendor part ID: 4123

Default device parameters will be used, which may result in lower
performance.  You can edit any of the files specified by the
btl_openib_device_param_files MCA parameter to set values for your
device.

NOTE: You can turn off this warning by setting the MCA parameter
      btl_openib_warn_no_device_params_found to 0.
--------------------------------------------------------------------------
--------------------------------------------------------------------------
WARNING: There was an error initializing an OpenFabrics device.

  Local host:   nla-gpu2
  Local device: mlx5_0
--------------------------------------------------------------------------
--------------------------------------------------------------------------
Failed to create a completion queue (CQ):

Hostname: nla-gpu2
Requested CQE: 16384
Error:    Cannot allocate memory

Check the CQE attribute.
--------------------------------------------------------------------------
--------------------------------------------------------------------------
Open MPI has detected that there are UD-capable Verbs devices on your
system, but none of them were able to be setup properly.  This may
indicate a problem on this system.

You job will continue, but Open MPI will ignore the "ud" oob component
in this run.

Hostname: nla-gpu2
--------------------------------------------------------------------------
--------------------------------------------------------------------------
Failed to create a completion queue (CQ):

Hostname: nla-gpu2
Requested CQE: 16384
Error:    Cannot allocate memory

Check the CQE attribute.
--------------------------------------------------------------------------
--------------------------------------------------------------------------
Open MPI has detected that there are UD-capable Verbs devices on your
system, but none of them were able to be setup properly.  This may
indicate a problem on this system.

You job will continue, but Open MPI will ignore the "ud" oob component
in this run.

Hostname: nla-gpu2
--------------------------------------------------------------------------
--------------------------------------------------------------------------
Failed to create a completion queue (CQ):

Hostname: nla-gpu2
Requested CQE: 16384
Error:    Cannot allocate memory

Check the CQE attribute.
--------------------------------------------------------------------------
--------------------------------------------------------------------------
Open MPI has detected that there are UD-capable Verbs devices on your
system, but none of them were able to be setup properly.  This may
indicate a problem on this system.

You job will continue, but Open MPI will ignore the "ud" oob component
in this run.

Hostname: nla-gpu2
--------------------------------------------------------------------------
--------------------------------------------------------------------------
Failed to create a completion queue (CQ):

Hostname: nla-gpu2
Requested CQE: 16384
Error:    Cannot allocate memory

Check the CQE attribute.
--------------------------------------------------------------------------
--------------------------------------------------------------------------
Open MPI has detected that there are UD-capable Verbs devices on your
system, but none of them were able to be setup properly.  This may
indicate a problem on this system.

You job will continue, but Open MPI will ignore the "ud" oob component
in this run.

Hostname: nla-gpu2
--------------------------------------------------------------------------
--------------------------------------------------------------------------
Failed to create a completion queue (CQ):

Hostname: nla-gpu2
Requested CQE: 16384
Error:    Cannot allocate memory

Check the CQE attribute.
--------------------------------------------------------------------------
--------------------------------------------------------------------------
Open MPI has detected that there are UD-capable Verbs devices on your
system, but none of them were able to be setup properly.  This may
indicate a problem on this system.

You job will continue, but Open MPI will ignore the "ud" oob component
in this run.

Hostname: nla-gpu2
--------------------------------------------------------------------------
--------------------------------------------------------------------------
Failed to create a completion queue (CQ):

Hostname: nla-gpu2
Requested CQE: 16384
Error:    Cannot allocate memory

Check the CQE attribute.
--------------------------------------------------------------------------
--------------------------------------------------------------------------
Open MPI has detected that there are UD-capable Verbs devices on your
system, but none of them were able to be setup properly.  This may
indicate a problem on this system.

You job will continue, but Open MPI will ignore the "ud" oob component
in this run.

Hostname: nla-gpu2
--------------------------------------------------------------------------
--------------------------------------------------------------------------
Failed to create a completion queue (CQ):

Hostname: nla-gpu2
Requested CQE: 16384
Error:    Cannot allocate memory

Check the CQE attribute.
--------------------------------------------------------------------------
--------------------------------------------------------------------------
Open MPI has detected that there are UD-capable Verbs devices on your
system, but none of them were able to be setup properly.  This may
indicate a problem on this system.

You job will continue, but Open MPI will ignore the "ud" oob component
in this run.

Hostname: nla-gpu2
--------------------------------------------------------------------------
--------------------------------------------------------------------------
Failed to create a completion queue (CQ):

Hostname: nla-gpu2
Requested CQE: 16384
Error:    Cannot allocate memory

Check the CQE attribute.
--------------------------------------------------------------------------
--------------------------------------------------------------------------
Open MPI has detected that there are UD-capable Verbs devices on your
system, but none of them were able to be setup properly.  This may
indicate a problem on this system.

You job will continue, but Open MPI will ignore the "ud" oob component
in this run.

Hostname: nla-gpu2
--------------------------------------------------------------------------
--------------------------------------------------------------------------
Failed to create a completion queue (CQ):

Hostname: nla-gpu2
Requested CQE: 16384
Error:    Cannot allocate memory

Check the CQE attribute.
--------------------------------------------------------------------------
--------------------------------------------------------------------------
Open MPI has detected that there are UD-capable Verbs devices on your
system, but none of them were able to be setup properly.  This may
indicate a problem on this system.

You job will continue, but Open MPI will ignore the "ud" oob component
in this run.

Hostname: nla-gpu2
--------------------------------------------------------------------------
--------------------------------------------------------------------------
Failed to create a completion queue (CQ):

Hostname: nla-gpu2
Requested CQE: 16384
Error:    Cannot allocate memory

Check the CQE attribute.
--------------------------------------------------------------------------
--------------------------------------------------------------------------
Open MPI has detected that there are UD-capable Verbs devices on your
system, but none of them were able to be setup properly.  This may
indicate a problem on this system.

You job will continue, but Open MPI will ignore the "ud" oob component
in this run.

Hostname: nla-gpu2
--------------------------------------------------------------------------
--------------------------------------------------------------------------
Failed to create a completion queue (CQ):

Hostname: nla-gpu2
Requested CQE: 16384
Error:    Cannot allocate memory

Check the CQE attribute.
--------------------------------------------------------------------------
--------------------------------------------------------------------------
Open MPI has detected that there are UD-capable Verbs devices on your
system, but none of them were able to be setup properly.  This may
indicate a problem on this system.

You job will continue, but Open MPI will ignore the "ud" oob component
in this run.

Hostname: nla-gpu2
--------------------------------------------------------------------------
--------------------------------------------------------------------------
Failed to create a completion queue (CQ):

Hostname: nla-gpu2
Requested CQE: 16384
Error:    Cannot allocate memory

Check the CQE attribute.
--------------------------------------------------------------------------
--------------------------------------------------------------------------
Open MPI has detected that there are UD-capable Verbs devices on your
system, but none of them were able to be setup properly.  This may
indicate a problem on this system.

You job will continue, but Open MPI will ignore the "ud" oob component
in this run.

Hostname: nla-gpu2
--------------------------------------------------------------------------
--------------------------------------------------------------------------
Failed to create a completion queue (CQ):

Hostname: nla-gpu2
Requested CQE: 16384
Error:    Cannot allocate memory

Check the CQE attribute.
--------------------------------------------------------------------------
--------------------------------------------------------------------------
Open MPI has detected that there are UD-capable Verbs devices on your
system, but none of them were able to be setup properly.  This may
indicate a problem on this system.

You job will continue, but Open MPI will ignore the "ud" oob component
in this run.

Hostname: nla-gpu2
--------------------------------------------------------------------------
--------------------------------------------------------------------------
Failed to create a completion queue (CQ):

Hostname: nla-gpu2
Requested CQE: 16384
Error:    Cannot allocate memory

Check the CQE attribute.
--------------------------------------------------------------------------
--------------------------------------------------------------------------
Failed to create a completion queue (CQ):

Hostname: nla-gpu2
Requested CQE: 16384
Error:    Cannot allocate memory

Check the CQE attribute.
--------------------------------------------------------------------------
--------------------------------------------------------------------------
Open MPI has detected that there are UD-capable Verbs devices on your
system, but none of them were able to be setup properly.  This may
indicate a problem on this system.

You job will continue, but Open MPI will ignore the "ud" oob component
in this run.

Hostname: nla-gpu2
--------------------------------------------------------------------------
--------------------------------------------------------------------------
Open MPI has detected that there are UD-capable Verbs devices on your
system, but none of them were able to be setup properly.  This may
indicate a problem on this system.

You job will continue, but Open MPI will ignore the "ud" oob component
in this run.

Hostname: nla-gpu2
--------------------------------------------------------------------------
--------------------------------------------------------------------------
Failed to create a completion queue (CQ):

Hostname: nla-gpu2
Requested CQE: 16384
Error:    Cannot allocate memory

Check the CQE attribute.
--------------------------------------------------------------------------
--------------------------------------------------------------------------
Open MPI has detected that there are UD-capable Verbs devices on your
system, but none of them were able to be setup properly.  This may
indicate a problem on this system.

You job will continue, but Open MPI will ignore the "ud" oob component
in this run.

Hostname: nla-gpu2
--------------------------------------------------------------------------
--------------------------------------------------------------------------
Failed to create a completion queue (CQ):

Hostname: nla-gpu2
Requested CQE: 16384
Error:    Cannot allocate memory

Check the CQE attribute.
--------------------------------------------------------------------------
--------------------------------------------------------------------------
Open MPI has detected that there are UD-capable Verbs devices on your
system, but none of them were able to be setup properly.  This may
indicate a problem on this system.

You job will continue, but Open MPI will ignore the "ud" oob component
in this run.

Hostname: nla-gpu2
--------------------------------------------------------------------------
--------------------------------------------------------------------------
Failed to create a completion queue (CQ):

Hostname: nla-gpu2
Requested CQE: 16384
Error:    Cannot allocate memory

Check the CQE attribute.
--------------------------------------------------------------------------
--------------------------------------------------------------------------
Open MPI has detected that there are UD-capable Verbs devices on your
system, but none of them were able to be setup properly.  This may
indicate a problem on this system.

You job will continue, but Open MPI will ignore the "ud" oob component
in this run.

Hostname: nla-gpu2
--------------------------------------------------------------------------
--------------------------------------------------------------------------
Failed to create a completion queue (CQ):

Hostname: nla-gpu2
Requested CQE: 16384
Error:    Cannot allocate memory

Check the CQE attribute.
--------------------------------------------------------------------------
--------------------------------------------------------------------------
Open MPI has detected that there are UD-capable Verbs devices on your
system, but none of them were able to be setup properly.  This may
indicate a problem on this system.

You job will continue, but Open MPI will ignore the "ud" oob component
in this run.

Hostname: nla-gpu2
--------------------------------------------------------------------------
--------------------------------------------------------------------------
Failed to create a completion queue (CQ):

Hostname: nla-gpu2
Requested CQE: 16384
Error:    Cannot allocate memory

Check the CQE attribute.
--------------------------------------------------------------------------
--------------------------------------------------------------------------
Open MPI has detected that there are UD-capable Verbs devices on your
system, but none of them were able to be setup properly.  This may
indicate a problem on this system.

You job will continue, but Open MPI will ignore the "ud" oob component
in this run.

Hostname: nla-gpu2
--------------------------------------------------------------------------
--------------------------------------------------------------------------
Failed to create a completion queue (CQ):

Hostname: nla-gpu2
Requested CQE: 16384
Error:    Cannot allocate memory

Check the CQE attribute.
--------------------------------------------------------------------------
--------------------------------------------------------------------------
Open MPI has detected that there are UD-capable Verbs devices on your
system, but none of them were able to be setup properly.  This may
indicate a problem on this system.

You job will continue, but Open MPI will ignore the "ud" oob component
in this run.

Hostname: nla-gpu2
--------------------------------------------------------------------------
--------------------------------------------------------------------------
Failed to create a completion queue (CQ):

Hostname: nla-gpu2
Requested CQE: 16384
Error:    Cannot allocate memory

Check the CQE attribute.
--------------------------------------------------------------------------
--------------------------------------------------------------------------
Open MPI has detected that there are UD-capable Verbs devices on your
system, but none of them were able to be setup properly.  This may
indicate a problem on this system.

You job will continue, but Open MPI will ignore the "ud" oob component
in this run.

Hostname: nla-gpu2
--------------------------------------------------------------------------
--------------------------------------------------------------------------
Failed to create a completion queue (CQ):

Hostname: nla-gpu2
Requested CQE: 16384
Error:    Cannot allocate memory

Check the CQE attribute.
--------------------------------------------------------------------------
--------------------------------------------------------------------------
Open MPI has detected that there are UD-capable Verbs devices on your
system, but none of them were able to be setup properly.  This may
indicate a problem on this system.

You job will continue, but Open MPI will ignore the "ud" oob component
in this run.

Hostname: nla-gpu2
--------------------------------------------------------------------------
--------------------------------------------------------------------------
Failed to create a completion queue (CQ):

Hostname: nla-gpu2
Requested CQE: 16384
Error:    Cannot allocate memory

Check the CQE attribute.
--------------------------------------------------------------------------
--------------------------------------------------------------------------
Open MPI has detected that there are UD-capable Verbs devices on your
system, but none of them were able to be setup properly.  This may
indicate a problem on this system.

You job will continue, but Open MPI will ignore the "ud" oob component
in this run.

Hostname: nla-gpu2
--------------------------------------------------------------------------
--------------------------------------------------------------------------
Failed to create a completion queue (CQ):

Hostname: nla-gpu2
Requested CQE: 16384
Error:    Cannot allocate memory

Check the CQE attribute.
--------------------------------------------------------------------------
--------------------------------------------------------------------------
Open MPI has detected that there are UD-capable Verbs devices on your
system, but none of them were able to be setup properly.  This may
indicate a problem on this system.

You job will continue, but Open MPI will ignore the "ud" oob component
in this run.

Hostname: nla-gpu2
--------------------------------------------------------------------------
--------------------------------------------------------------------------
Failed to create a completion queue (CQ):

Hostname: nla-gpu2
Requested CQE: 16384
Error:    Cannot allocate memory

Check the CQE attribute.
--------------------------------------------------------------------------
--------------------------------------------------------------------------
Open MPI has detected that there are UD-capable Verbs devices on your
system, but none of them were able to be setup properly.  This may
indicate a problem on this system.

You job will continue, but Open MPI will ignore the "ud" oob component
in this run.

Hostname: nla-gpu2
--------------------------------------------------------------------------
--------------------------------------------------------------------------
Failed to create a completion queue (CQ):

Hostname: nla-gpu2
Requested CQE: 16384
Error:    Cannot allocate memory

Check the CQE attribute.
--------------------------------------------------------------------------
--------------------------------------------------------------------------
Open MPI has detected that there are UD-capable Verbs devices on your
system, but none of them were able to be setup properly.  This may
indicate a problem on this system.

You job will continue, but Open MPI will ignore the "ud" oob component
in this run.

Hostname: nla-gpu2
--------------------------------------------------------------------------
--------------------------------------------------------------------------
Failed to create a completion queue (CQ):

Hostname: nla-gpu2
Requested CQE: 16384
Error:    Cannot allocate memory

Check the CQE attribute.
--------------------------------------------------------------------------
--------------------------------------------------------------------------
Open MPI has detected that there are UD-capable Verbs devices on your
system, but none of them were able to be setup properly.  This may
indicate a problem on this system.

You job will continue, but Open MPI will ignore the "ud" oob component
in this run.

Hostname: nla-gpu2
--------------------------------------------------------------------------
--------------------------------------------------------------------------
Failed to create a completion queue (CQ):

Hostname: nla-gpu2
Requested CQE: 16384
Error:    Cannot allocate memory

Check the CQE attribute.
--------------------------------------------------------------------------
--------------------------------------------------------------------------
Open MPI has detected that there are UD-capable Verbs devices on your
system, but none of them were able to be setup properly.  This may
indicate a problem on this system.

You job will continue, but Open MPI will ignore the "ud" oob component
in this run.

Hostname: nla-gpu2
--------------------------------------------------------------------------
--------------------------------------------------------------------------
Failed to create a completion queue (CQ):

Hostname: nla-gpu2
Requested CQE: 16384
Error:    Cannot allocate memory

Check the CQE attribute.
--------------------------------------------------------------------------
--------------------------------------------------------------------------
Open MPI has detected that there are UD-capable Verbs devices on your
system, but none of them were able to be setup properly.  This may
indicate a problem on this system.

You job will continue, but Open MPI will ignore the "ud" oob component
in this run.

Hostname: nla-gpu2
--------------------------------------------------------------------------
--------------------------------------------------------------------------
Failed to create a completion queue (CQ):

Hostname: nla-gpu2
Requested CQE: 16384
Error:    Cannot allocate memory

Check the CQE attribute.
--------------------------------------------------------------------------
--------------------------------------------------------------------------
Open MPI has detected that there are UD-capable Verbs devices on your
system, but none of them were able to be setup properly.  This may
indicate a problem on this system.

You job will continue, but Open MPI will ignore the "ud" oob component
in this run.

Hostname: nla-gpu2
--------------------------------------------------------------------------
/*---------------------------------------------------------------------------*\
  =========                 |
  \\      /  F ield         | OpenFOAM: The Open Source CFD Toolbox
   \\    /   O peration     | Website:  https://openfoam.org
    \\  /    A nd           | Version:  8
     \\/     M anipulation  |
\*---------------------------------------------------------------------------*/
Build  : 8-ef60d22ea792
Exec   : icoFoam -parallel
Date   : Nov 07 2021
Time   : 06:51:32
Host   : "nla-gpu2.ianm.kit.edu"
PID    : 2185009
I/O    : uncollated
Case   : /tmp/lidDrivenCavity3D/Variation_mesh/100/Variation_matrix_solver/CG_NoPrecond_MPI/Variation_mpiRank/32/1636264291
nProcs : 32
Slaves : 
31
(
"nla-gpu2.ianm.kit.edu.2185010"
"nla-gpu2.ianm.kit.edu.2185011"
"nla-gpu2.ianm.kit.edu.2185012"
"nla-gpu2.ianm.kit.edu.2185013"
"nla-gpu2.ianm.kit.edu.2185014"
"nla-gpu2.ianm.kit.edu.2185015"
"nla-gpu2.ianm.kit.edu.2185016"
"nla-gpu2.ianm.kit.edu.2185017"
"nla-gpu2.ianm.kit.edu.2185018"
"nla-gpu2.ianm.kit.edu.2185019"
"nla-gpu2.ianm.kit.edu.2185020"
"nla-gpu2.ianm.kit.edu.2185021"
"nla-gpu2.ianm.kit.edu.2185022"
"nla-gpu2.ianm.kit.edu.2185023"
"nla-gpu2.ianm.kit.edu.2185024"
"nla-gpu2.ianm.kit.edu.2185025"
"nla-gpu2.ianm.kit.edu.2185026"
"nla-gpu2.ianm.kit.edu.2185027"
"nla-gpu2.ianm.kit.edu.2185030"
"nla-gpu2.ianm.kit.edu.2185031"
"nla-gpu2.ianm.kit.edu.2185032"
"nla-gpu2.ianm.kit.edu.2185033"
"nla-gpu2.ianm.kit.edu.2185034"
"nla-gpu2.ianm.kit.edu.2185035"
"nla-gpu2.ianm.kit.edu.2185036"
"nla-gpu2.ianm.kit.edu.2185037"
"nla-gpu2.ianm.kit.edu.2185038"
"nla-gpu2.ianm.kit.edu.2185039"
"nla-gpu2.ianm.kit.edu.2185040"
"nla-gpu2.ianm.kit.edu.2185044"
"nla-gpu2.ianm.kit.edu.2185046"
)

Pstream initialized with:
    floatTransfer      : 0
    nProcsSimpleSum    : 0
    commsType          : nonBlocking
    polling iterations : 0
sigFpe : Enabling floating point exception trapping (FOAM_SIGFPE).
fileModificationChecking : Monitoring run-time modified files using timeStampMaster (fileModificationSkew 10)
allowSystemOperations : Allowing user-supplied system call operations

// * * * * * * * * * * * * * * * * * * * * * * * * * * * * * * * * * * * * * //
Create time

--> FOAM Warning : 
    From function virtual void Foam::Time::readDict()
    in file db/Time/TimeIO.C at line 408
    Reading "/tmp/lidDrivenCavity3D/Variation_mesh/100/Variation_matrix_solver/CG_NoPrecond_MPI/Variation_mpiRank/32/1636264291/system/controlDict" from line 20 to line 52
    Selecting compressed binary is inefficient and ineffective, resetting to uncompressed binary
Create mesh for time = 0

Reading transportProperties

Reading field p

Reading field U

Reading/calculating face flux field phi


Starting time loop

Time = 0.001

Courant Number mean: 1.7257e-17 max: 1.73472e-14
DILUPBiCGStab:  Solving for Ux, Initial residual = 1, Final residual = 0.0110863, No Iterations 5
DILUPBiCGStab:  Solving for Uy:  solution singularity
DILUPBiCGStab:  Solving for Uz:  solution singularity
linear solve U 22920
nonePCG:  Solving for p, Initial residual = 1, Final residual = 9.89725e-07, No Iterations 860
linear solve p 371074
time step continuity errors : sum local = 5.89297e-10, global = -4.67559e-23, cumulative = -4.67559e-23
nonePCG:  Solving for p, Initial residual = 0.779449, Final residual = 9.22559e-07, No Iterations 856
linear solve p 383963
time step continuity errors : sum local = 6.89619e-10, global = -2.40899e-21, cumulative = -2.45574e-21
ExecutionTime = 1.03 s  ClockTime = 1 s

Time = 0.002

Courant Number mean: 0.055271 max: 0.806869
DILUPBiCGStab:  Solving for Ux, Initial residual = 0.137243, Final residual = 0.00582378, No Iterations 5
DILUPBiCGStab:  Solving for Uy, Initial residual = 0.431558, Final residual = 0.0166736, No Iterations 5
DILUPBiCGStab:  Solving for Uz, Initial residual = 0.958311, Final residual = 0.0351541, No Iterations 5
linear solve U 32811
nonePCG:  Solving for p, Initial residual = 0.818201, Final residual = 9.92867e-07, No Iterations 845
linear solve p 358773
time step continuity errors : sum local = 1.11872e-09, global = 1.39988e-20, cumulative = 1.1543e-20
nonePCG:  Solving for p, Initial residual = 0.758654, Final residual = 9.96509e-07, No Iterations 841
linear solve p 387431
time step continuity errors : sum local = 1.14629e-09, global = -6.00376e-21, cumulative = 5.53925e-21
ExecutionTime = 1.84 s  ClockTime = 2 s

Time = 0.003

Courant Number mean: 0.0842046 max: 0.944461
DILUPBiCGStab:  Solving for Ux, Initial residual = 0.0645685, Final residual = 0.00208091, No Iterations 5
DILUPBiCGStab:  Solving for Uy, Initial residual = 0.226398, Final residual = 0.00558124, No Iterations 5
DILUPBiCGStab:  Solving for Uz, Initial residual = 0.734206, Final residual = 0.0235719, No Iterations 5
linear solve U 34270
nonePCG:  Solving for p, Initial residual = 0.841379, Final residual = 9.69178e-07, No Iterations 846
linear solve p 361541
time step continuity errors : sum local = 9.8267e-10, global = 4.25703e-21, cumulative = 9.79628e-21
nonePCG:  Solving for p, Initial residual = 0.807913, Final residual = 9.8896e-07, No Iterations 843
linear solve p 361168
time step continuity errors : sum local = 9.7805e-10, global = -7.11587e-21, cumulative = 2.68041e-21
ExecutionTime = 2.61 s  ClockTime = 3 s

End

Finalising parallel run
================================================================================
hash: 28e0035ee2b6e86d6f0ff9e710a3f449
/*---------------------------------------------------------------------------*\
  =========                 |
  \\      /  F ield         | OpenFOAM: The Open Source CFD Toolbox
   \\    /   O peration     | Website:  https://openfoam.org
    \\  /    A nd           | Version:  8
     \\/     M anipulation  |
\*---------------------------------------------------------------------------*/
Build  : 8-ef60d22ea792
Exec   : icoFoam
Date   : Nov 07 2021
Time   : 06:51:35
Host   : "nla-gpu2.ianm.kit.edu"
PID    : 2185108
I/O    : uncollated
Case   : /tmp/lidDrivenCavity3D/Variation_mesh/100/Variation_matrix_solver/CG_NoPrecond_MPI/Variation_mpiRank/40/1636264295
nProcs : 1
sigFpe : Enabling floating point exception trapping (FOAM_SIGFPE).
fileModificationChecking : Monitoring run-time modified files using timeStampMaster (fileModificationSkew 10)
allowSystemOperations : Allowing user-supplied system call operations

// * * * * * * * * * * * * * * * * * * * * * * * * * * * * * * * * * * * * * //
Create time

--> FOAM Warning : 
    From function virtual void Foam::Time::readDict()
    in file db/Time/TimeIO.C at line 408
    Reading "/tmp/lidDrivenCavity3D/Variation_mesh/100/Variation_matrix_solver/CG_NoPrecond_MPI/Variation_mpiRank/40/1636264295/system/controlDict" from line 20 to line 52
    Selecting compressed binary is inefficient and ineffective, resetting to uncompressed binary
Create mesh for time = 0

Reading transportProperties

Reading field p

Reading field U

Reading/calculating face flux field phi


Starting time loop

Time = 0.001

Courant Number mean: 1.7257e-17 max: 1.73472e-14
DILUPBiCGStab:  Solving for Ux, Initial residual = 1, Final residual = 0.00717233, No Iterations 5
DILUPBiCGStab:  Solving for Uy:  solution singularity
DILUPBiCGStab:  Solving for Uz:  solution singularity
linear solve U 411543
nonePCG:  Solving for p, Initial residual = 1, Final residual = 9.93607e-07, No Iterations 900
linear solve p 11194908
time step continuity errors : sum local = 5.69147e-10, global = 1.08614e-20, cumulative = 1.08614e-20
nonePCG:  Solving for p, Initial residual = 0.777316, Final residual = 9.50885e-07, No Iterations 893
linear solve p 11039606
time step continuity errors : sum local = 6.87209e-10, global = 3.42489e-21, cumulative = 1.42863e-20
ExecutionTime = 23.62 s  ClockTime = 24 s

Time = 0.002

Courant Number mean: 0.0560717 max: 0.805494
DILUPBiCGStab:  Solving for Ux, Initial residual = 0.138282, Final residual = 0.00319034, No Iterations 5
DILUPBiCGStab:  Solving for Uy, Initial residual = 0.430538, Final residual = 0.00909566, No Iterations 5
DILUPBiCGStab:  Solving for Uz, Initial residual = 0.9903, Final residual = 0.0225854, No Iterations 5
linear solve U 815725
nonePCG:  Solving for p, Initial residual = 0.799783, Final residual = 9.72501e-07, No Iterations 885
linear solve p 11105920
time step continuity errors : sum local = 9.95032e-10, global = 7.67892e-21, cumulative = 2.19652e-20
nonePCG:  Solving for p, Initial residual = 0.740737, Final residual = 9.89649e-07, No Iterations 879
linear solve p 10952824
time step continuity errors : sum local = 1.03351e-09, global = -1.42686e-22, cumulative = 2.18226e-20
ExecutionTime = 46.87 s  ClockTime = 47 s

Time = 0.003

Courant Number mean: 0.0852773 max: 0.943633
DILUPBiCGStab:  Solving for Ux, Initial residual = 0.0649257, Final residual = 0.00112815, No Iterations 5
DILUPBiCGStab:  Solving for Uy, Initial residual = 0.225975, Final residual = 0.00296596, No Iterations 5
DILUPBiCGStab:  Solving for Uz, Initial residual = 0.792328, Final residual = 0.0162193, No Iterations 5
linear solve U 805986
nonePCG:  Solving for p, Initial residual = 0.832938, Final residual = 9.37438e-07, No Iterations 885
linear solve p 11045382
time step continuity errors : sum local = 9.01759e-10, global = -1.18131e-20, cumulative = 1.00094e-20
nonePCG:  Solving for p, Initial residual = 0.802223, Final residual = 9.92275e-07, No Iterations 883
linear solve p 10949732
time step continuity errors : sum local = 9.31045e-10, global = 5.20265e-21, cumulative = 1.52121e-20
ExecutionTime = 70.05 s  ClockTime = 71 s

End

================================================================================
hash: 29ef73c4ea5af23c014c2b8b11b37e81
--------------------------------------------------------------------------
Failed to create a completion queue (CQ):

Hostname: nla-gpu2
Requested CQE: 16384
Error:    Cannot allocate memory

Check the CQE attribute.
--------------------------------------------------------------------------
--------------------------------------------------------------------------
Open MPI has detected that there are UD-capable Verbs devices on your
system, but none of them were able to be setup properly.  This may
indicate a problem on this system.

You job will continue, but Open MPI will ignore the "ud" oob component
in this run.

Hostname: nla-gpu2
--------------------------------------------------------------------------
--------------------------------------------------------------------------
Failed to create a completion queue (CQ):

Hostname: nla-gpu2
Requested CQE: 16384
Error:    Cannot allocate memory

Check the CQE attribute.
--------------------------------------------------------------------------
--------------------------------------------------------------------------
Open MPI has detected that there are UD-capable Verbs devices on your
system, but none of them were able to be setup properly.  This may
indicate a problem on this system.

You job will continue, but Open MPI will ignore the "ud" oob component
in this run.

Hostname: nla-gpu2
--------------------------------------------------------------------------
--------------------------------------------------------------------------
Failed to create a completion queue (CQ):

Hostname: nla-gpu2
Requested CQE: 16384
Error:    Cannot allocate memory

Check the CQE attribute.
--------------------------------------------------------------------------
--------------------------------------------------------------------------
Open MPI has detected that there are UD-capable Verbs devices on your
system, but none of them were able to be setup properly.  This may
indicate a problem on this system.

You job will continue, but Open MPI will ignore the "ud" oob component
in this run.

Hostname: nla-gpu2
--------------------------------------------------------------------------
--------------------------------------------------------------------------
Failed to create a completion queue (CQ):

Hostname: nla-gpu2
Requested CQE: 16384
Error:    Cannot allocate memory

Check the CQE attribute.
--------------------------------------------------------------------------
--------------------------------------------------------------------------
Open MPI has detected that there are UD-capable Verbs devices on your
system, but none of them were able to be setup properly.  This may
indicate a problem on this system.

You job will continue, but Open MPI will ignore the "ud" oob component
in this run.

Hostname: nla-gpu2
--------------------------------------------------------------------------
--------------------------------------------------------------------------
WARNING: No preset parameters were found for the device that Open MPI
detected:

  Local host:            nla-gpu2
  Device name:           mlx5_0
  Device vendor ID:      0x02c9
  Device vendor part ID: 4123

Default device parameters will be used, which may result in lower
performance.  You can edit any of the files specified by the
btl_openib_device_param_files MCA parameter to set values for your
device.

NOTE: You can turn off this warning by setting the MCA parameter
      btl_openib_warn_no_device_params_found to 0.
--------------------------------------------------------------------------
--------------------------------------------------------------------------
WARNING: There was an error initializing an OpenFabrics device.

  Local host:   nla-gpu2
  Local device: mlx5_0
--------------------------------------------------------------------------
--------------------------------------------------------------------------
Failed to create a completion queue (CQ):

Hostname: nla-gpu2
Requested CQE: 16384
Error:    Cannot allocate memory

Check the CQE attribute.
--------------------------------------------------------------------------
--------------------------------------------------------------------------
Open MPI has detected that there are UD-capable Verbs devices on your
system, but none of them were able to be setup properly.  This may
indicate a problem on this system.

You job will continue, but Open MPI will ignore the "ud" oob component
in this run.

Hostname: nla-gpu2
--------------------------------------------------------------------------
--------------------------------------------------------------------------
Failed to create a completion queue (CQ):

Hostname: nla-gpu2
Requested CQE: 16384
Error:    Cannot allocate memory

Check the CQE attribute.
--------------------------------------------------------------------------
--------------------------------------------------------------------------
Open MPI has detected that there are UD-capable Verbs devices on your
system, but none of them were able to be setup properly.  This may
indicate a problem on this system.

You job will continue, but Open MPI will ignore the "ud" oob component
in this run.

Hostname: nla-gpu2
--------------------------------------------------------------------------
--------------------------------------------------------------------------
Failed to create a completion queue (CQ):

Hostname: nla-gpu2
Requested CQE: 16384
Error:    Cannot allocate memory

Check the CQE attribute.
--------------------------------------------------------------------------
--------------------------------------------------------------------------
Open MPI has detected that there are UD-capable Verbs devices on your
system, but none of them were able to be setup properly.  This may
indicate a problem on this system.

You job will continue, but Open MPI will ignore the "ud" oob component
in this run.

Hostname: nla-gpu2
--------------------------------------------------------------------------
--------------------------------------------------------------------------
Failed to create a completion queue (CQ):

Hostname: nla-gpu2
Requested CQE: 16384
Error:    Cannot allocate memory

Check the CQE attribute.
--------------------------------------------------------------------------
--------------------------------------------------------------------------
Open MPI has detected that there are UD-capable Verbs devices on your
system, but none of them were able to be setup properly.  This may
indicate a problem on this system.

You job will continue, but Open MPI will ignore the "ud" oob component
in this run.

Hostname: nla-gpu2
--------------------------------------------------------------------------
--------------------------------------------------------------------------
Failed to create a completion queue (CQ):

Hostname: nla-gpu2
Requested CQE: 16384
Error:    Cannot allocate memory

Check the CQE attribute.
--------------------------------------------------------------------------
--------------------------------------------------------------------------
Open MPI has detected that there are UD-capable Verbs devices on your
system, but none of them were able to be setup properly.  This may
indicate a problem on this system.

You job will continue, but Open MPI will ignore the "ud" oob component
in this run.

Hostname: nla-gpu2
--------------------------------------------------------------------------
--------------------------------------------------------------------------
Failed to create a completion queue (CQ):

Hostname: nla-gpu2
Requested CQE: 16384
Error:    Cannot allocate memory

Check the CQE attribute.
--------------------------------------------------------------------------
--------------------------------------------------------------------------
Open MPI has detected that there are UD-capable Verbs devices on your
system, but none of them were able to be setup properly.  This may
indicate a problem on this system.

You job will continue, but Open MPI will ignore the "ud" oob component
in this run.

Hostname: nla-gpu2
--------------------------------------------------------------------------
--------------------------------------------------------------------------
Failed to create a completion queue (CQ):

Hostname: nla-gpu2
Requested CQE: 16384
Error:    Cannot allocate memory

Check the CQE attribute.
--------------------------------------------------------------------------
--------------------------------------------------------------------------
Open MPI has detected that there are UD-capable Verbs devices on your
system, but none of them were able to be setup properly.  This may
indicate a problem on this system.

You job will continue, but Open MPI will ignore the "ud" oob component
in this run.

Hostname: nla-gpu2
--------------------------------------------------------------------------
--------------------------------------------------------------------------
Failed to create a completion queue (CQ):

Hostname: nla-gpu2
Requested CQE: 16384
Error:    Cannot allocate memory

Check the CQE attribute.
--------------------------------------------------------------------------
--------------------------------------------------------------------------
Open MPI has detected that there are UD-capable Verbs devices on your
system, but none of them were able to be setup properly.  This may
indicate a problem on this system.

You job will continue, but Open MPI will ignore the "ud" oob component
in this run.

Hostname: nla-gpu2
--------------------------------------------------------------------------
--------------------------------------------------------------------------
Failed to create a completion queue (CQ):

Hostname: nla-gpu2
Requested CQE: 16384
[...]
done
[OGL LOG] create_and_push_b : 23288 mu s
[OGL LOG] init_preconditioner : 3 mu s
[OGL LOG] solve : 43704326 mu s
nonehipGKOBiCGStab:  Solving for p, Initial residual = 0.887854, Final residual = 5.20409e-07, No Iterations 2987
linear solve p 45468410
time step continuity errors : sum local = 5.46868e-10, global = -9.62106e-24, cumulative = 8.97793e-20
ExecutionTime = 322.93 s  ClockTime = 308 s

Time = 0.001

Courant Number mean: 0.0497654 max: 1.07343
DILUPBiCGStab:  Solving for Ux, Initial residual = 0.0677476, Final residual = 0.00799937, No Iterations 5
DILUPBiCGStab:  Solving for Uy, Initial residual = 0.42666, Final residual = 0.0359479, No Iterations 5
DILUPBiCGStab:  Solving for Uz, Initial residual = 0.876523, Final residual = 0.0797134, No Iterations 5
linear solve U 23483294
[OGL LOG] matrix is stored and update of host matrix requested
[OGL LOG] exp_update_host_mtx : 1361119 mu s
update sys matrix
create view into values
overwrite device values
done
[OGL LOG] create_and_push_b : 24103 mu s
[OGL LOG] init_preconditioner : 3 mu s
[OGL LOG] solve : 36337409 mu s
nonehipGKOBiCGStab:  Solving for p, Initial residual = 0.969132, Final residual = 5.83825e-07, No Iterations 2499
linear solve p 38105773
time step continuity errors : sum local = 8.38483e-10, global = -1.52852e-21, cumulative = 8.82508e-20
[OGL LOG] matrix is stored and update of host matrix requested
[OGL LOG] exp_update_host_mtx : 1353748 mu s
update sys matrix
create view into values
overwrite device values
done
[OGL LOG] create_and_push_b : 23441 mu s
[OGL LOG] init_preconditioner : 3 mu s
[OGL LOG] solve : 57787472 mu s
nonehipGKOBiCGStab:  Solving for p, Initial residual = 0.921754, Final residual = 8.92115e-07, No Iterations 3911
linear solve p 59543221
time step continuity errors : sum local = 0.000393968, global = -8.31553e-19, cumulative = -7.43302e-19
ExecutionTime = 465.75 s  ClockTime = 444 s

End

================================================================================
hash: 65e561d7a2bbd4b71245e4bfd83b4883
/*---------------------------------------------------------------------------*\
  =========                 |
  \\      /  F ield         | OpenFOAM: The Open Source CFD Toolbox
   \\    /   O peration     | Website:  https://openfoam.org
    \\  /    A nd           | Version:  8
     \\/     M anipulation  |
\*---------------------------------------------------------------------------*/
Build  : 8-ef60d22ea792
Exec   : icoFoam
Date   : Nov 16 2021
Time   : 11:38:24
Host   : "nla-gpu1.ianm.kit.edu"
PID    : 1608110
I/O    : uncollated
Case   : /tmp/lidDrivenCavity3D/Variation_mesh/400/Variation_matrix_solver/CG_NoPrecond_HIP/1637059104
nProcs : 1
sigFpe : Enabling floating point exception trapping (FOAM_SIGFPE).
fileModificationChecking : Monitoring run-time modified files using timeStampMaster (fileModificationSkew 10)
allowSystemOperations : Allowing user-supplied system call operations

// * * * * * * * * * * * * * * * * * * * * * * * * * * * * * * * * * * * * * //
Create time

--> FOAM Warning : 
    From function virtual void Foam::Time::readDict()
    in file db/Time/TimeIO.C at line 408
    Reading "/tmp/lidDrivenCavity3D/Variation_mesh/400/Variation_matrix_solver/CG_NoPrecond_HIP/1637059104/system/controlDict" from line 20 to line 52
    Selecting compressed binary is inefficient and ineffective, resetting to uncompressed binary
Create mesh for time = 0

Reading transportProperties

Reading field p

Reading field U

Reading/calculating face flux field phi


Starting time loop

Time = 0.00025

Courant Number mean: 1.60501e-17 max: 9.71445e-14
DILUPBiCGStab:  Solving for Ux, Initial residual = 1, Final residual = 0.0309155, No Iterations 5
DILUPBiCGStab:  Solving for Uy:  solution singularity
DILUPBiCGStab:  Solving for Uz:  solution singularity
linear solve U 30456605
[OGL LOG] init_host_sparsity_pattern : 90854137 mu s
[OGL LOG] matrix not stored update host matrix
[OGL LOG] update_host_mtx : 5394121 mu s
[OGL LOG] create_and_push_b : 83961 mu s
[OGL LOG] init_preconditioner : 8 mu s
[OGL LOG] solve : 68287014 mu s
nonehipGKOCG:  Solving for p, Initial residual = 1, Final residual = 9.85052e-07, No Iterations 3648
linear solve p 169903292
time step continuity errors : sum local = 5.39728e-11, global = 1.24621e-21, cumulative = 1.24621e-21
[OGL LOG] matrix is stored and update of host matrix requested
[OGL LOG] exp_update_host_mtx : 3941057 mu s
update sys matrix
create view into values
overwrite device values
done
[OGL LOG] create_and_push_b : 48876 mu s
[OGL LOG] init_preconditioner : 3 mu s
[OGL LOG] solve : 68323289 mu s
nonehipGKOCG:  Solving for p, Initial residual = 0.835924, Final residual = 3.10936e-07, No Iterations 3771
linear solve p 73579077
time step continuity errors : sum local = 2.0321e-11, global = -4.64892e-22, cumulative = 7.81321e-22
ExecutionTime = 351.13 s  ClockTime = 344 s

Time = 0.0005

Courant Number mean: 0.0256884 max: 0.898165
DILUPBiCGStab:  Solving for Ux, Initial residual = 0.098276, Final residual = 0.0200244, No Iterations 5
DILUPBiCGStab:  Solving for Uy, Initial residual = 0.572442, Final residual = 0.117587, No Iterations 5
DILUPBiCGStab:  Solving for Uz, Initial residual = 0.997526, Final residual = 0.23267, No Iterations 5
linear solve U 59307009
[OGL LOG] matrix is stored and update of host matrix requested
[OGL LOG] exp_update_host_mtx : 4303567 mu s
update sys matrix
create view into values
overwrite device values
done
[OGL LOG] create_and_push_b : 51626 mu s
[OGL LOG] init_preconditioner : 3 mu s
[OGL LOG] solve : 67087835 mu s
nonehipGKOCG:  Solving for p, Initial residual = 0.935963, Final residual = 1.98905e-07, No Iterations 3751
linear solve p 73798841
time step continuity errors : sum local = 4.09665e-11, global = -8.68615e-22, cumulative = -8.72941e-23
[OGL LOG] matrix is stored and update of host matrix requested
[OGL LOG] exp_update_host_mtx : 4048077 mu s
update sys matrix
create view into values
overwrite device values
done
[OGL LOG] create_and_push_b : 57824 mu s
[OGL LOG] init_preconditioner : 3 mu s
[OGL LOG] solve : 67639909 mu s
nonehipGKOCG:  Solving for p, Initial residual = 0.892335, Final residual = 1.85484e-07, No Iterations 3751
linear solve p 73090815
time step continuity errors : sum local = 3.89574e-11, global = -2.75965e-22, cumulative = -3.63259e-22
ExecutionTime = 602.37 s  ClockTime = 589 s

Time = 0.00075

Courant Number mean: 0.0413782 max: 1.11206
DILUPBiCGStab:  Solving for Ux, Initial residual = 0.0646067, Final residual = 0.0107014, No Iterations 5
DILUPBiCGStab:  Solving for Uy, Initial residual = 0.453262, Final residual = 0.0546439, No Iterations 5
DILUPBiCGStab:  Solving for Uz, Initial residual = 0.888833, Final residual = 0.163471, No Iterations 5
linear solve U 58732431
[OGL LOG] matrix is stored and update of host matrix requested
[OGL LOG] exp_update_host_mtx : 3974631 mu s
update sys matrix
create view into values
overwrite device values
done
[OGL LOG] create_and_push_b : 59340 mu s
[OGL LOG] init_preconditioner : 4 mu s
[OGL LOG] solve : 67089213 mu s
nonehipGKOCG:  Solving for p, Initial residual = 0.969841, Final residual = 1.74729e-07, No Iterations 3751
linear solve p 72483693
time step continuity errors : sum local = 6.38258e-11, global = -2.96379e-22, cumulative = -6.59638e-22
[OGL LOG] matrix is stored and update of host matrix requested
[OGL LOG] exp_update_host_mtx : 3948539 mu s
update sys matrix
create view into values
overwrite device values
done
[OGL LOG] create_and_push_b : 53438 mu s
[OGL LOG] init_preconditioner : 3 mu s
[OGL LOG] solve : 66990181 mu s
nonehipGKOCG:  Solving for p, Initial residual = 0.935601, Final residual = 1.66919e-07, No Iterations 3751
linear solve p 72377208
time step continuity errors : sum local = 6.11945e-11, global = 6.68928e-22, cumulative = 9.29015e-24
ExecutionTime = 850.23 s  ClockTime = 832 s

End

================================================================================
hash: b5174fdeb9a9991c3c2ef75629d1aad3
/*---------------------------------------------------------------------------*\
  =========                 |
  \\      /  F ield         | OpenFOAM: The Open Source CFD Toolbox
   \\    /   O peration     | Website:  https://openfoam.org
    \\  /    A nd           | Version:  8
     \\/     M anipulation  |
\*---------------------------------------------------------------------------*/
Build  : 8-ef60d22ea792
Exec   : icoFoam
Date   : Nov 16 2021
Time   : 11:52:22
Host   : "nla-gpu1.ianm.kit.edu"
PID    : 1617557
I/O    : uncollated
Case   : /tmp/lidDrivenCavity3D/Variation_mesh/400/Variation_matrix_solver/BiCGStab_NoPrecond_HIP/1637059942
nProcs : 1
sigFpe : Enabling floating point exception trapping (FOAM_SIGFPE).
fileModificationChecking : Monitoring run-time modified files using timeStampMaster (fileModificationSkew 10)
allowSystemOperations : Allowing user-supplied system call operations

// * * * * * * * * * * * * * * * * * * * * * * * * * * * * * * * * * * * * * //
Create time

--> FOAM Warning : 
    From function virtual void Foam::Time::readDict()
    in file db/Time/TimeIO.C at line 408
    Reading "/tmp/lidDrivenCavity3D/Variation_mesh/400/Variation_matrix_solver/BiCGStab_NoPrecond_HIP/1637059942/system/controlDict" from line 20 to line 52
    Selecting compressed binary is inefficient and ineffective, resetting to uncompressed binary
Create mesh for time = 0

Reading transportProperties

Reading field p

Reading field U

Reading/calculating face flux field phi


Starting time loop

Time = 0.00025

Courant Number mean: 1.60501e-17 max: 9.71445e-14
DILUPBiCGStab:  Solving for Ux, Initial residual = 1, Final residual = 0.0309155, No Iterations 5
DILUPBiCGStab:  Solving for Uy:  solution singularity
DILUPBiCGStab:  Solving for Uz:  solution singularity
linear solve U 31415997
[OGL LOG] init_host_sparsity_pattern : 92599001 mu s
[OGL LOG] matrix not stored update host matrix
[OGL LOG] update_host_mtx : 4186034 mu s
[OGL LOG] create_and_push_b : 104114 mu s
[OGL LOG] init_preconditioner : 7 mu s
[OGL LOG] solve : 137470256 mu s
nonehipGKOBiCGStab:  Solving for p, Initial residual = 1, Final residual = 5.46949e-07, No Iterations 3918
linear solve p 242011311
time step continuity errors : sum local = 0.00483375, global = 1.77195e-17, cumulative = 1.77195e-17
[OGL LOG] matrix is stored and update of host matrix requested
[OGL LOG] exp_update_host_mtx : 3843116 mu s
update sys matrix
create view into values
overwrite device values
done
[OGL LOG] create_and_push_b : 50343 mu s
[OGL LOG] init_preconditioner : 3 mu s
[OGL LOG] solve : 98250045 mu s
nonehipGKOBiCGStab:  Solving for p, Initial residual = 0.987913, Final residual = 9.36532e-07, No Iterations 2886
linear solve p 103246798
time step continuity errors : sum local = 1.11468e-08, global = 9.17937e-23, cumulative = 1.77196e-17
ExecutionTime = 465.09 s  ClockTime = 452 s

Time = 0.0005

Courant Number mean: 0.0259009 max: 0.898217
DILUPBiCGStab:  Solving for Ux, Initial residual = 0.100602, Final residual = 0.020533, No Iterations 5
DILUPBiCGStab:  Solving for Uy, Initial residual = 0.747682, Final residual = 0.0614615, No Iterations 5
DILUPBiCGStab:  Solving for Uz, Initial residual = 0.877817, Final residual = 0.0726641, No Iterations 5
linear solve U 59510131
[OGL LOG] matrix is stored and update of host matrix requested
[OGL LOG] exp_update_host_mtx : 4200198 mu s
update sys matrix
create view into values
overwrite device values
done
[OGL LOG] create_and_push_b : 60113 mu s
[OGL LOG] init_preconditioner : 3 mu s
[OGL LOG] solve : 124024357 mu s
nonehipGKOBiCGStab:  Solving for p, Initial residual = 0.957669, Final residual = 6.955e-07, No Iterations 3680
linear solve p 129633726
time step continuity errors : sum local = 9.40199e-09, global = -6.89513e-23, cumulative = 1.77195e-17
[OGL LOG] matrix is stored and update of host matrix requested
[OGL LOG] exp_update_host_mtx : 4313793 mu s
update sys matrix
create view into values
overwrite device values
done
[OGL LOG] create_and_push_b : 56475 mu s
[OGL LOG] init_preconditioner : 3 mu s
[OGL LOG] solve : 106967871 mu s
nonehipGKOBiCGStab:  Solving for p, Initial residual = 0.895455, Final residual = 9.92913e-07, No Iterations 3161
linear solve p 112573918
time step continuity errors : sum local = 2.4996e-07, global = 1.34729e-21, cumulative = 1.77209e-17
ExecutionTime = 819.02 s  ClockTime = 799 s

Time = 0.00075

Courant Number mean: 0.0437897 max: 1.29073
DILUPBiCGStab:  Solving for Ux, Initial residual = 0.0790472, Final residual = 0.0128232, No Iterations 5
DILUPBiCGStab:  Solving for Uy, Initial residual = 0.526869, Final residual = 0.0505303, No Iterations 5
DILUPBiCGStab:  Solving for Uz, Initial residual = 0.908935, Final residual = 0.04932, No Iterations 5
linear solve U 59715618
[OGL LOG] matrix is stored and update of host matrix requested
[OGL LOG] exp_update_host_mtx : 4620589 mu s
update sys matrix
create view into values
overwrite device values
done
[OGL LOG] create_and_push_b : 55061 mu s
[OGL LOG] init_preconditioner : 3 mu s
[OGL LOG] solve : 122002288 mu s
nonehipGKOBiCGStab:  Solving for p, Initial residual = 0.979059, Final residual = 1.33964e-07, No Iterations 3654
linear solve p 127726945
time step continuity errors : sum local = 1.89246e-09, global = -1.75838e-22, cumulative = 1.77207e-17
[OGL LOG] matrix is stored and update of host matrix requested
[OGL LOG] exp_update_host_mtx : 4220076 mu s
update sys matrix
create view into values
overwrite device values
done
[OGL LOG] create_and_push_b : 54516 mu s
[OGL LOG] init_preconditioner : 3 mu s
[OGL LOG] solve : 117255577 mu s
nonehipGKOBiCGStab:  Solving for p, Initial residual = 0.905058, Final residual = 5.22927e-07, No Iterations 3431
linear solve p 122612073
time step continuity errors : sum local = 7.19456e-09, global = -1.46016e-21, cumulative = 1.77192e-17
ExecutionTime = 1181.21 s  ClockTime = 1154 s

End

================================================================================
hash: 71d3d0f20f191a374424666a5b20f817
/*---------------------------------------------------------------------------*\
  =========                 |
  \\      /  F ield         | OpenFOAM: The Open Source CFD Toolbox
   \\    /   O peration     | Website:  https://openfoam.org
    \\  /    A nd           | Version:  8
     \\/     M anipulation  |
\*---------------------------------------------------------------------------*/
Build  : 8-ef60d22ea792
Exec   : icoFoam
Date   : Nov 16 2021
Time   : 12:11:41
Host   : "nla-gpu1.ianm.kit.edu"
PID    : 1630714
I/O    : uncollated
Case   : /tmp/lidDrivenCavity3D/Variation_mesh/500/Variation_matrix_solver/CG_NoPrecond_HIP/1637061101
nProcs : 1
sigFpe : Enabling floating point exception trapping (FOAM_SIGFPE).
fileModificationChecking : Monitoring run-time modified files using timeStampMaster (fileModificationSkew 10)
allowSystemOperations : Allowing user-supplied system call operations

// * * * * * * * * * * * * * * * * * * * * * * * * * * * * * * * * * * * * * //
Create time

--> FOAM Warning : 
    From function virtual void Foam::Time::readDict()
    in file db/Time/TimeIO.C at line 408
    Reading "/tmp/lidDrivenCavity3D/Variation_mesh/500/Variation_matrix_solver/CG_NoPrecond_HIP/1637061101/system/controlDict" from line 20 to line 52
    Selecting compressed binary is inefficient and ineffective, resetting to uncompressed binary
Create mesh for time = 0

Reading transportProperties

Reading field p

Reading field U

Reading/calculating face flux field phi


Starting time loop

Time = 0.0002

Courant Number mean: 1.68168e-17 max: 1.04083e-13
DILUPBiCGStab:  Solving for Ux, Initial residual = 1, Final residual = 0.0344468, No Iterations 5
DILUPBiCGStab:  Solving for Uy:  solution singularity
DILUPBiCGStab:  Solving for Uz:  solution singularity
linear solve U 64799499
[OGL LOG] init_host_sparsity_pattern : 184246936 mu s
[OGL LOG] matrix not stored update host matrix
[OGL LOG] update_host_mtx : 8434229 mu s
[OGL LOG] create_and_push_b : 214458 mu s
[OGL LOG] init_preconditioner : 6 mu s
[OGL LOG] solve : 165635952 mu s
nonehipGKOCG:  Solving for p, Initial residual = 1, Final residual = 9.93186e-07, No Iterations 4566
linear solve p 370421704
time step continuity errors : sum local = 3.61801e-11, global = 2.77108e-21, cumulative = 2.77108e-21
[OGL LOG] matrix is stored and update of host matrix requested
[OGL LOG] exp_update_host_mtx : 7573333 mu s
update sys matrix
create view into values
overwrite device values
done
[OGL LOG] create_and_push_b : 103281 mu s
[OGL LOG] init_preconditioner : 3 mu s
[OGL LOG] solve : 165205037 mu s
nonehipGKOCG:  Solving for p, Initial residual = 0.840409, Final residual = 2.56285e-07, No Iterations 4733
linear solve p 175288810
time step continuity errors : sum local = 1.10874e-11, global = -1.2504e-22, cumulative = 2.64604e-21
ExecutionTime = 782.45 s  ClockTime = 774 s

Time = 0.0004

Courant Number mean: 0.021776 max: 0.906666
DILUPBiCGStab:  Solving for Ux, Initial residual = 0.0924312, Final residual = 0.0227954, No Iterations 5
DILUPBiCGStab:  Solving for Uy, Initial residual = 0.59403, Final residual = 0.151821, No Iterations 5
DILUPBiCGStab:  Solving for Uz, Initial residual = 0.998006, Final residual = 0.290618, No Iterations 5
linear solve U 125422081
[OGL LOG] matrix is stored and update of host matrix requested
[OGL LOG] exp_update_host_mtx : 8375365 mu s
update sys matrix
create view into values
overwrite device values
done
[OGL LOG] create_and_push_b : 236842 mu s
[OGL LOG] init_preconditioner : 3 mu s
[OGL LOG] solve : 166223096 mu s
nonehipGKOCG:  Solving for p, Initial residual = 0.944045, Final residual = 1.53864e-07, No Iterations 4726
linear solve p 177461600
time step continuity errors : sum local = 2.32387e-11, global = 2.02729e-22, cumulative = 2.84877e-21
[OGL LOG] matrix is stored and update of host matrix requested
[OGL LOG] exp_update_host_mtx : 8292714 mu s
update sys matrix
create view into values
overwrite device values
done
[OGL LOG] create_and_push_b : 247336 mu s
[OGL LOG] init_preconditioner : 2 mu s
[OGL LOG] solve : 168138221 mu s
nonehipGKOCG:  Solving for p, Initial residual = 0.901527, Final residual = 1.41697e-07, No Iterations 4726
linear solve p 179145206
time step continuity errors : sum local = 2.18247e-11, global = 2.38143e-22, cumulative = 3.08691e-21
ExecutionTime = 1371.22 s  ClockTime = 1357 s

Time = 0.0006

Courant Number mean: 0.0354967 max: 1.1418
DILUPBiCGStab:  Solving for Ux, Initial residual = 0.0615169, Final residual = 0.0128079, No Iterations 5
DILUPBiCGStab:  Solving for Uy, Initial residual = 0.471825, Final residual = 0.0714091, No Iterations 5
DILUPBiCGStab:  Solving for Uz, Initial residual = 0.898992, Final residual = 0.201594, No Iterations 5
linear solve U 126724873
[OGL LOG] matrix is stored and update of host matrix requested
[OGL LOG] exp_update_host_mtx : 6323627 mu s
update sys matrix
create view into values
overwrite device values
done
[OGL LOG] create_and_push_b : 100245 mu s
[OGL LOG] init_preconditioner : 3 mu s
[OGL LOG] solve : 157755414 mu s
nonehipGKOCG:  Solving for p, Initial residual = 0.975131, Final residual = 8.41187e-07, No Iterations 4537
linear solve p 165903915
time step continuity errors : sum local = 2.4282e-10, global = -6.80503e-22, cumulative = 2.40641e-21
[OGL LOG] matrix is stored and update of host matrix requested
[OGL LOG] exp_update_host_mtx : 8346075 mu s
update sys matrix
create view into values
overwrite device values
done
[OGL LOG] create_and_push_b : 119454 mu s
[OGL LOG] init_preconditioner : 3 mu s
[OGL LOG] solve : 158300102 mu s
nonehipGKOCG:  Solving for p, Initial residual = 0.939997, Final residual = 9.35557e-07, No Iterations 4526
linear solve p 169287962
time step continuity errors : sum local = 2.71659e-10, global = -3.7459e-22, cumulative = 2.03182e-21
ExecutionTime = 1933.2 s  ClockTime = 1913 s

End

================================================================================
