/*---------------------------------------------------------------------------*\
  =========                 |
  \\      /  F ield         | OpenFOAM: The Open Source CFD Toolbox
   \\    /   O peration     | Website:  https://openfoam.org
    \\  /    A nd           | Version:  8
     \\/     M anipulation  |
\*---------------------------------------------------------------------------*/
Build  : 8-ef60d22ea792
Exec   : icoFoam
Date   : Sep 15 2021
Time   : 14:59:23
Host   : "uc2n482.localdomain"
PID    : 3657548
I/O    : uncollated
Case   : /pfs/data5/home/kit/scc/nq7776/data/code/OBR/lidDrivenCavity3D/Variation_init/100/Variation_mesh/10/Variation_matrix_solver/IR_NoPrecond_CUDA/Variation_innerReductionFactor/0.001/1631710761
nProcs : 1
sigFpe : Enabling floating point exception trapping (FOAM_SIGFPE).
fileModificationChecking : Monitoring run-time modified files using timeStampMaster (fileModificationSkew 10)
allowSystemOperations : Allowing user-supplied system call operations

// * * * * * * * * * * * * * * * * * * * * * * * * * * * * * * * * * * * * * //
Create time

Create mesh for time = 0

Reading transportProperties

Reading field p

Reading field U

Reading/calculating face flux field phi


Starting time loop

Time = 0.01

Courant Number mean: 0.164367 max: 0.687382
DILUPBiCGStab:  Solving for Ux, Initial residual = 0.143876, Final residual = 4.90416e-10, No Iterations 5
DILUPBiCGStab:  Solving for Uy, Initial residual = 0.166383, Final residual = 9.49899e-10, No Iterations 5
DILUPBiCGStab:  Solving for Uz, Initial residual = 0.331866, Final residual = 6.25857e-09, No Iterations 5
linear solve U 889
[OGL LOG] init_host_sparsity_pattern : 0 ms
[OGL LOG] matrix not stored update host matrix
[OGL LOG] update_host_mtx : 0 ms
[OGL LOG] matrix is not yet sorted, compute sorting idxs
[OGL LOG] compute_sort : 5 ms
[OGL LOG] matrix is not yet sorted, sorting host matrix
[OGL LOG] sort_host_mtx_sparsity_pattern : 0 ms
[OGL LOG] sort_host_mtx : 0 ms
[OGL LOG] init_preconditioner : 0 ms
[OGL LOG] solve : 15 ms
nonecudaGKOIR:  Solving for p, Initial residual = 0.61492, Final residual = 1.29065e-09, No Iterations 3
linear solve p 770560
time step continuity errors : sum local = 3.95531e-11, global = 7.5931e-20, cumulative = 7.5931e-20
[OGL LOG] init_preconditioner : 0 ms
[OGL LOG] solve : 11 ms
nonecudaGKOIR:  Solving for p, Initial residual = 0.306169, Final residual = 4.07246e-07, No Iterations 2
linear solve p 11500
time step continuity errors : sum local = 6.99061e-09, global = 5.00719e-19, cumulative = 5.7665e-19
ExecutionTime = 0.82 s  ClockTime = 1 s

Time = 0.02

Courant Number mean: 0.168824 max: 0.675339
DILUPBiCGStab:  Solving for Ux, Initial residual = 0.0355474, Final residual = 1.50456e-09, No Iterations 5
DILUPBiCGStab:  Solving for Uy, Initial residual = 0.0400342, Final residual = 6.38425e-10, No Iterations 5
DILUPBiCGStab:  Solving for Uz, Initial residual = 0.103395, Final residual = 1.83532e-09, No Iterations 5
linear solve U 584
[OGL LOG] init_preconditioner : 0 ms
[OGL LOG] solve : 11 ms
nonecudaGKOIR:  Solving for p, Initial residual = 0.153464, Final residual = 2.01773e-07, No Iterations 2
linear solve p 11433
time step continuity errors : sum local = 2.73775e-05, global = 9.05266e-20, cumulative = 6.67176e-19
[OGL LOG] init_preconditioner : 0 ms
[OGL LOG] solve : 14 ms
nonecudaGKOIR:  Solving for p, Initial residual = 0.0682514, Final residual = 9.42509e-08, No Iterations 2
linear solve p 14353
time step continuity errors : sum local = 2.45612e-05, global = -4.97632e-20, cumulative = 6.17413e-19
ExecutionTime = 0.85 s  ClockTime = 1 s

Time = 0.03

Courant Number mean: 0.172125 max: 0.67452
DILUPBiCGStab:  Solving for Ux, Initial residual = 0.00786251, Final residual = 3.41258e-10, No Iterations 5
DILUPBiCGStab:  Solving for Uy, Initial residual = 0.0117526, Final residual = 1.81651e-10, No Iterations 5
DILUPBiCGStab:  Solving for Uz, Initial residual = 0.0329079, Final residual = 7.76906e-10, No Iterations 5
linear solve U 587
[OGL LOG] init_preconditioner : 0 ms
[OGL LOG] solve : 11 ms
nonecudaGKOIR:  Solving for p, Initial residual = 0.0151554, Final residual = 1.42216e-08, No Iterations 2
linear solve p 11869
time step continuity errors : sum local = 2.43582e-05, global = 1.4426e-19, cumulative = 7.61674e-19
[OGL LOG] init_preconditioner : 0 ms
[OGL LOG] solve : 11 ms
nonecudaGKOIR:  Solving for p, Initial residual = 0.00703048, Final residual = 4.84751e-09, No Iterations 2
linear solve p 11794
time step continuity errors : sum local = 2.43914e-05, global = -7.09787e-19, cumulative = 5.18865e-20
ExecutionTime = 0.87 s  ClockTime = 1 s

Time = 0.04

Courant Number mean: 0.174438 max: 0.676488
DILUPBiCGStab:  Solving for Ux, Initial residual = 0.00346888, Final residual = 8.54535e-11, No Iterations 5
DILUPBiCGStab:  Solving for Uy, Initial residual = 0.00573781, Final residual = 8.3066e-11, No Iterations 5
DILUPBiCGStab:  Solving for Uz, Initial residual = 0.010931, Final residual = 1.59209e-10, No Iterations 5
linear solve U 587
[OGL LOG] init_preconditioner : 0 ms
[OGL LOG] solve : 11 ms
nonecudaGKOIR:  Solving for p, Initial residual = 0.00633134, Final residual = 5.06661e-09, No Iterations 2
linear solve p 11782
time step continuity errors : sum local = 2.44224e-05, global = 1.62657e-19, cumulative = 2.14543e-19
[OGL LOG] init_preconditioner : 0 ms
[OGL LOG] solve : 11 ms
nonecudaGKOIR:  Solving for p, Initial residual = 0.00352261, Final residual = 2.56649e-09, No Iterations 2
linear solve p 11677
time step continuity errors : sum local = 2.43925e-05, global = 1.4426e-20, cumulative = 2.28969e-19
ExecutionTime = 0.9 s  ClockTime = 1 s

Time = 0.05

Courant Number mean: 0.17593 max: 0.67828
DILUPBiCGStab:  Solving for Ux, Initial residual = 0.0018732, Final residual = 4.14747e-11, No Iterations 5
DILUPBiCGStab:  Solving for Uy, Initial residual = 0.00338895, Final residual = 1.90904e-11, No Iterations 5
DILUPBiCGStab:  Solving for Uz, Initial residual = 0.0055943, Final residual = 7.95193e-11, No Iterations 5
linear solve U 619
[OGL LOG] init_preconditioner : 0 ms
[OGL LOG] solve : 11 ms
nonecudaGKOIR:  Solving for p, Initial residual = 0.00308555, Final residual = 2.39267e-09, No Iterations 2
linear solve p 12059
time step continuity errors : sum local = 2.43865e-05, global = 5.15764e-19, cumulative = 7.44733e-19
[OGL LOG] init_preconditioner : 0 ms
[OGL LOG] solve : 11 ms
nonecudaGKOIR:  Solving for p, Initial residual = 0.00176195, Final residual = 1.70696e-09, No Iterations 2
linear solve p 11382
time step continuity errors : sum local = 2.43851e-05, global = 4.20836e-19, cumulative = 1.16557e-18
ExecutionTime = 0.93 s  ClockTime = 1 s

Time = 0.06

Courant Number mean: 0.176864 max: 0.679468
DILUPBiCGStab:  Solving for Ux, Initial residual = 0.00111327, Final residual = 1.55544e-11, No Iterations 5
DILUPBiCGStab:  Solving for Uy, Initial residual = 0.0020947, Final residual = 1.01778e-11, No Iterations 5
DILUPBiCGStab:  Solving for Uz, Initial residual = 0.00302018, Final residual = 5.83517e-11, No Iterations 5
linear solve U 578
[OGL LOG] init_preconditioner : 0 ms
[OGL LOG] solve : 11 ms
nonecudaGKOIR:  Solving for p, Initial residual = 0.00188637, Final residual = 1.22522e-09, No Iterations 2
linear solve p 11447
time step continuity errors : sum local = 2.43796e-05, global = 7.80858e-21, cumulative = 1.17338e-18
[OGL LOG] init_preconditioner : 0 ms
[OGL LOG] solve : 11 ms
nonecudaGKOIR:  Solving for p, Initial residual = 0.00108252, Final residual = 1.00485e-09, No Iterations 2
linear solve p 11445
time step continuity errors : sum local = 2.43806e-05, global = 4.705e-20, cumulative = 1.22043e-18
ExecutionTime = 0.95 s  ClockTime = 1 s

Time = 0.07

Courant Number mean: 0.177444 max: 0.680222
DILUPBiCGStab:  Solving for Ux, Initial residual = 0.000680258, Final residual = 7.14903e-12, No Iterations 5
DILUPBiCGStab:  Solving for Uy, Initial residual = 0.0012978, Final residual = 6.10828e-12, No Iterations 5
DILUPBiCGStab:  Solving for Uz, Initial residual = 0.0017692, Final residual = 3.82659e-11, No Iterations 5
linear solve U 603
[OGL LOG] init_preconditioner : 0 ms
[OGL LOG] solve : 11 ms
nonecudaGKOIR:  Solving for p, Initial residual = 0.00115078, Final residual = 1.14367e-09, No Iterations 2
linear solve p 11511
time step continuity errors : sum local = 2.43767e-05, global = -1.16202e-19, cumulative = 1.10423e-18
[OGL LOG] init_preconditioner : 0 ms
[OGL LOG] solve : 6 ms
nonecudaGKOIR:  Solving for p, Initial residual = 0.00065628, Final residual = 6.8863e-07, No Iterations 1
linear solve p 7199
time step continuity errors : sum local = 2.43793e-05, global = -3.11814e-19, cumulative = 7.92412e-19
ExecutionTime = 0.97 s  ClockTime = 1 s

Time = 0.08

Courant Number mean: 0.177803 max: 0.680688
DILUPBiCGStab:  Solving for Ux, Initial residual = 0.000418543, Final residual = 3.53499e-12, No Iterations 5
DILUPBiCGStab:  Solving for Uy, Initial residual = 0.000805916, Final residual = 3.70923e-12, No Iterations 5
DILUPBiCGStab:  Solving for Uz, Initial residual = 0.0010645, Final residual = 2.42594e-11, No Iterations 5
linear solve U 605
[OGL LOG] init_preconditioner : 0 ms
[OGL LOG] solve : 7 ms
nonecudaGKOIR:  Solving for p, Initial residual = 0.000708142, Final residual = 6.04944e-07, No Iterations 1
linear solve p 7303
time step continuity errors : sum local = 2.43756e-05, global = -3.52114e-19, cumulative = 4.40297e-19
[OGL LOG] init_preconditioner : 0 ms
[OGL LOG] solve : 6 ms
nonecudaGKOIR:  Solving for p, Initial residual = 0.000403999, Final residual = 4.28005e-07, No Iterations 1
linear solve p 7181
time step continuity errors : sum local = 2.4377e-05, global = -2.73797e-19, cumulative = 1.66501e-19
ExecutionTime = 0.98 s  ClockTime = 1 s

Time = 0.09

Courant Number mean: 0.178025 max: 0.680973
DILUPBiCGStab:  Solving for Ux, Initial residual = 0.000258419, Final residual = 1.77492e-12, No Iterations 5
DILUPBiCGStab:  Solving for Uy, Initial residual = 0.000500314, Final residual = 2.2626e-12, No Iterations 5
DILUPBiCGStab:  Solving for Uz, Initial residual = 0.000648587, Final residual = 1.50301e-11, No Iterations 5
linear solve U 574
[OGL LOG] init_preconditioner : 0 ms
[OGL LOG] solve : 7 ms
nonecudaGKOIR:  Solving for p, Initial residual = 0.000436423, Final residual = 4.33266e-07, No Iterations 1
linear solve p 7234
time step continuity errors : sum local = 2.43752e-05, global = -3.35968e-19, cumulative = -1.69467e-19
[OGL LOG] init_preconditioner : 0 ms
[OGL LOG] solve : 7 ms
nonecudaGKOIR:  Solving for p, Initial residual = 0.000248764, Final residual = 2.19421e-07, No Iterations 1
linear solve p 7328
time step continuity errors : sum local = 2.43756e-05, global = -5.92923e-20, cumulative = -2.28759e-19
ExecutionTime = 1 s  ClockTime = 1 s

Time = 0.1

Courant Number mean: 0.178162 max: 0.681146
DILUPBiCGStab:  Solving for Ux, Initial residual = 0.00015982, Final residual = 8.84714e-13, No Iterations 5
DILUPBiCGStab:  Solving for Uy, Initial residual = 0.000310569, Final residual = 1.38653e-12, No Iterations 5
DILUPBiCGStab:  Solving for Uz, Initial residual = 0.000397924, Final residual = 9.10671e-12, No Iterations 5
linear solve U 596
[OGL LOG] init_preconditioner : 0 ms
[OGL LOG] solve : 7 ms
nonecudaGKOIR:  Solving for p, Initial residual = 0.000269243, Final residual = 2.34406e-07, No Iterations 1
linear solve p 7257
time step continuity errors : sum local = 2.43745e-05, global = 2.15067e-19, cumulative = -1.36924e-20
[OGL LOG] init_preconditioner : 0 ms
[OGL LOG] solve : 7 ms
nonecudaGKOIR:  Solving for p, Initial residual = 0.000153407, Final residual = 1.17135e-07, No Iterations 1
linear solve p 7396
time step continuity errors : sum local = 2.43749e-05, global = 1.33805e-19, cumulative = 1.20112e-19
ExecutionTime = 1.01 s  ClockTime = 1 s

End

