/*---------------------------------------------------------------------------*\
  =========                 |
  \\      /  F ield         | OpenFOAM: The Open Source CFD Toolbox
   \\    /   O peration     | Website:  https://openfoam.org
    \\  /    A nd           | Version:  8
     \\/     M anipulation  |
\*---------------------------------------------------------------------------*/
Build  : 8-ef60d22ea792
Exec   : icoFoam
Date   : Sep 15 2021
Time   : 13:07:12
Host   : "uc2n482.localdomain"
PID    : 3625441
I/O    : uncollated
Case   : /pfs/data5/home/kit/scc/nq7776/data/code/OBR/lidDrivenCavity3D/Variation_init/100/Variation_mesh/5/Variation_matrix_solver/CG_BJ_CUDA/Variation_maxBlockSize/16/1631704023
nProcs : 1
sigFpe : Enabling floating point exception trapping (FOAM_SIGFPE).
fileModificationChecking : Monitoring run-time modified files using timeStampMaster (fileModificationSkew 10)
allowSystemOperations : Allowing user-supplied system call operations

// * * * * * * * * * * * * * * * * * * * * * * * * * * * * * * * * * * * * * //
Create time

Create mesh for time = 0

Reading transportProperties

Reading field p

Reading field U

Reading/calculating face flux field phi


Starting time loop

Time = 0.02

Courant Number mean: 0.144178 max: 0.344046
DILUPBiCGStab:  Solving for Ux, Initial residual = 0.270102, Final residual = 1.39043e-14, No Iterations 5
DILUPBiCGStab:  Solving for Uy, Initial residual = 0.217087, Final residual = 1.19184e-13, No Iterations 5
DILUPBiCGStab:  Solving for Uz, Initial residual = 0.216079, Final residual = 2.72531e-14, No Iterations 5
linear solve U 203
[OGL LOG] init_host_sparsity_pattern : 0 ms
[OGL LOG] matrix not stored update host matrix
[OGL LOG] update_host_mtx : 0 ms
[OGL LOG] matrix is not yet sorted, compute sorting idxs
[OGL LOG] compute_sort : 0 ms
[OGL LOG] matrix is not yet sorted, sorting host matrix
[OGL LOG] sort_host_mtx_sparsity_pattern : 0 ms
[OGL LOG] sort_host_mtx : 0 ms
[OGL LOG] init_preconditioner : 0 ms
[OGL LOG] solve : 4 ms
BJcudaGKOCG:  Solving for p, Initial residual = 0.599316, Final residual = 9.21272e-07, No Iterations 27
linear solve p 747251
time step continuity errors : sum local = 7.67499e-08, global = -1.80921e-19, cumulative = -1.80921e-19
[OGL LOG] init_preconditioner : 0 ms
[OGL LOG] solve : 4 ms
BJcudaGKOCG:  Solving for p, Initial residual = 0.28832, Final residual = 9.28517e-07, No Iterations 26
linear solve p 4274
time step continuity errors : sum local = 4.04304e-08, global = -9.51655e-19, cumulative = -1.13258e-18
ExecutionTime = 0.78 s  ClockTime = 1 s

Time = 0.04

Courant Number mean: 0.143461 max: 0.370002
DILUPBiCGStab:  Solving for Ux, Initial residual = 0.0735166, Final residual = 6.10753e-14, No Iterations 5
DILUPBiCGStab:  Solving for Uy, Initial residual = 0.072579, Final residual = 1.60022e-13, No Iterations 5
DILUPBiCGStab:  Solving for Uz, Initial residual = 0.174731, Final residual = 2.48373e-13, No Iterations 5
linear solve U 112
[OGL LOG] init_preconditioner : 0 ms
[OGL LOG] solve : 3 ms
BJcudaGKOCG:  Solving for p, Initial residual = 0.212157, Final residual = 7.8055e-07, No Iterations 26
linear solve p 4109
time step continuity errors : sum local = 0.000264116, global = 1.00162e-18, cumulative = -1.30959e-19
[OGL LOG] init_preconditioner : 0 ms
[OGL LOG] solve : 3 ms
BJcudaGKOCG:  Solving for p, Initial residual = 0.0746229, Final residual = 4.80013e-07, No Iterations 25
linear solve p 3882
time step continuity errors : sum local = 0.000237014, global = 4.49986e-19, cumulative = 3.19027e-19
ExecutionTime = 0.79 s  ClockTime = 1 s

Time = 0.06

Courant Number mean: 0.145501 max: 0.37555
DILUPBiCGStab:  Solving for Ux, Initial residual = 0.0154115, Final residual = 1.49244e-15, No Iterations 5
DILUPBiCGStab:  Solving for Uy, Initial residual = 0.0201049, Final residual = 2.28394e-14, No Iterations 5
DILUPBiCGStab:  Solving for Uz, Initial residual = 0.0978131, Final residual = 1.16468e-13, No Iterations 5
linear solve U 95
[OGL LOG] init_preconditioner : 0 ms
[OGL LOG] solve : 3 ms
BJcudaGKOCG:  Solving for p, Initial residual = 0.0170456, Final residual = 6.48156e-07, No Iterations 23
linear solve p 3705
time step continuity errors : sum local = 0.000237529, global = 2.20229e-19, cumulative = 5.39256e-19
[OGL LOG] init_preconditioner : 0 ms
[OGL LOG] solve : 3 ms
BJcudaGKOCG:  Solving for p, Initial residual = 0.00365027, Final residual = 4.12568e-07, No Iterations 22
linear solve p 3483
time step continuity errors : sum local = 0.000237426, global = 2.15993e-19, cumulative = 7.55249e-19
ExecutionTime = 0.8 s  ClockTime = 1 s

Time = 0.08

Courant Number mean: 0.147029 max: 0.378253
DILUPBiCGStab:  Solving for Ux, Initial residual = 0.00478798, Final residual = 3.38633e-15, No Iterations 5
DILUPBiCGStab:  Solving for Uy, Initial residual = 0.00642998, Final residual = 1.20387e-14, No Iterations 5
DILUPBiCGStab:  Solving for Uz, Initial residual = 0.0284318, Final residual = 4.44033e-14, No Iterations 5
linear solve U 99
[OGL LOG] init_preconditioner : 0 ms
[OGL LOG] solve : 3 ms
BJcudaGKOCG:  Solving for p, Initial residual = 0.00482337, Final residual = 5.45283e-07, No Iterations 22
linear solve p 3531
time step continuity errors : sum local = 0.000237962, global = 3.854e-19, cumulative = 1.14065e-18
[OGL LOG] init_preconditioner : 0 ms
[OGL LOG] solve : 3 ms
BJcudaGKOCG:  Solving for p, Initial residual = 0.00114484, Final residual = 3.63482e-07, No Iterations 21
linear solve p 3341
time step continuity errors : sum local = 0.000237671, global = -5.0822e-19, cumulative = 6.32429e-19
ExecutionTime = 0.8 s  ClockTime = 1 s

Time = 0.1

Courant Number mean: 0.14778 max: 0.379477
DILUPBiCGStab:  Solving for Ux, Initial residual = 0.00171224, Final residual = 8.3065e-16, No Iterations 5
DILUPBiCGStab:  Solving for Uy, Initial residual = 0.00257352, Final residual = 2.28297e-15, No Iterations 5
DILUPBiCGStab:  Solving for Uz, Initial residual = 0.0107952, Final residual = 1.44945e-14, No Iterations 5
linear solve U 93
[OGL LOG] init_preconditioner : 0 ms
[OGL LOG] solve : 2 ms
BJcudaGKOCG:  Solving for p, Initial residual = 0.00160377, Final residual = 8.30628e-07, No Iterations 19
linear solve p 3117
time step continuity errors : sum local = 0.000237724, global = -2.26581e-19, cumulative = 4.05848e-19
[OGL LOG] init_preconditioner : 0 ms
[OGL LOG] solve : 2 ms
BJcudaGKOCG:  Solving for p, Initial residual = 0.000367467, Final residual = 5.20798e-07, No Iterations 18
linear solve p 2930
time step continuity errors : sum local = 0.00023767, global = 4.76456e-19, cumulative = 8.82304e-19
ExecutionTime = 0.81 s  ClockTime = 1 s

Time = 0.12

Courant Number mean: 0.148155 max: 0.380093
DILUPBiCGStab:  Solving for Ux, Initial residual = 0.000689989, Final residual = 3.07211e-16, No Iterations 5
DILUPBiCGStab:  Solving for Uy, Initial residual = 0.00109057, Final residual = 3.93293e-16, No Iterations 5
DILUPBiCGStab:  Solving for Uz, Initial residual = 0.00414576, Final residual = 5.02944e-15, No Iterations 5
linear solve U 99
[OGL LOG] init_preconditioner : 0 ms
[OGL LOG] solve : 2 ms
BJcudaGKOCG:  Solving for p, Initial residual = 0.000679599, Final residual = 8.1517e-07, No Iterations 18
linear solve p 2963
time step continuity errors : sum local = 0.000237676, global = -2.24464e-19, cumulative = 6.5784e-19
[OGL LOG] init_preconditioner : 0 ms
[OGL LOG] solve : 2 ms
BJcudaGKOCG:  Solving for p, Initial residual = 0.000161336, Final residual = 5.63837e-07, No Iterations 17
linear solve p 2806
time step continuity errors : sum local = 0.000237654, global = -5.65394e-19, cumulative = 9.24457e-20
ExecutionTime = 0.81 s  ClockTime = 1 s

Time = 0.14

Courant Number mean: 0.148339 max: 0.380409
DILUPBiCGStab:  Solving for Ux, Initial residual = 0.000300361, Final residual = 1.4529e-16, No Iterations 5
DILUPBiCGStab:  Solving for Uy, Initial residual = 0.000488828, Final residual = 2.03447e-16, No Iterations 5
DILUPBiCGStab:  Solving for Uz, Initial residual = 0.00166952, Final residual = 1.79811e-15, No Iterations 5
linear solve U 94
[OGL LOG] init_preconditioner : 0 ms
[OGL LOG] solve : 2 ms
BJcudaGKOCG:  Solving for p, Initial residual = 0.000315673, Final residual = 7.23222e-07, No Iterations 17
linear solve p 2826
time step continuity errors : sum local = 0.000237654, global = 1.41878e-19, cumulative = 2.34324e-19
[OGL LOG] init_preconditioner : 0 ms
[OGL LOG] solve : 1 ms
BJcudaGKOCG:  Solving for p, Initial residual = 7.19321e-05, Final residual = 7.84344e-07, No Iterations 8
linear solve p 1618
time step continuity errors : sum local = 0.000237668, global = 4.78574e-19, cumulative = 7.12897e-19
ExecutionTime = 0.82 s  ClockTime = 1 s

Time = 0.16

Courant Number mean: 0.148428 max: 0.380568
DILUPBiCGStab:  Solving for Ux, Initial residual = 0.000135332, Final residual = 6.76527e-17, No Iterations 5
DILUPBiCGStab:  Solving for Uy, Initial residual = 0.000229168, Final residual = 1.47912e-16, No Iterations 5
DILUPBiCGStab:  Solving for Uz, Initial residual = 0.000707847, Final residual = 6.25765e-16, No Iterations 5
linear solve U 97
[OGL LOG] init_preconditioner : 0 ms
[OGL LOG] solve : 1 ms
BJcudaGKOCG:  Solving for p, Initial residual = 0.000149308, Final residual = 6.09249e-07, No Iterations 8
linear solve p 1681
time step continuity errors : sum local = 0.000237645, global = -8.47033e-21, cumulative = 7.04427e-19
[OGL LOG] init_preconditioner : 0 ms
[OGL LOG] solve : 1 ms
BJcudaGKOCG:  Solving for p, Initial residual = 3.35314e-05, Final residual = 7.57909e-07, No Iterations 6
linear solve p 1349
time step continuity errors : sum local = 0.000237658, global = 9.95264e-19, cumulative = 1.69969e-18
ExecutionTime = 0.82 s  ClockTime = 1 s

Time = 0.18

Courant Number mean: 0.148472 max: 0.380648
DILUPBiCGStab:  Solving for Ux, Initial residual = 6.20401e-05, Final residual = 2.94602e-17, No Iterations 5
DILUPBiCGStab:  Solving for Uy, Initial residual = 0.000108556, Final residual = 7.7054e-17, No Iterations 5
DILUPBiCGStab:  Solving for Uz, Initial residual = 0.00031421, Final residual = 1.96531e-16, No Iterations 5
linear solve U 92
[OGL LOG] init_preconditioner : 0 ms
[OGL LOG] solve : 1 ms
BJcudaGKOCG:  Solving for p, Initial residual = 7.075e-05, Final residual = 5.18741e-07, No Iterations 7
linear solve p 1514
time step continuity errors : sum local = 0.000237637, global = -3.21873e-19, cumulative = 1.37782e-18
[OGL LOG] init_preconditioner : 0 ms
[OGL LOG] solve : 1 ms
BJcudaGKOCG:  Solving for p, Initial residual = 1.5926e-05, Final residual = 7.1072e-07, No Iterations 5
linear solve p 1224
time step continuity errors : sum local = 0.000237646, global = -1.33408e-19, cumulative = 1.24441e-18
ExecutionTime = 0.82 s  ClockTime = 1 s

Time = 0.2

Courant Number mean: 0.148493 max: 0.380688
DILUPBiCGStab:  Solving for Ux, Initial residual = 2.8651e-05, Final residual = 1.17142e-17, No Iterations 5
DILUPBiCGStab:  Solving for Uy, Initial residual = 5.15401e-05, Final residual = 3.68818e-17, No Iterations 5
DILUPBiCGStab:  Solving for Uz, Initial residual = 0.000144073, Final residual = 5.63545e-17, No Iterations 5
linear solve U 93
[OGL LOG] init_preconditioner : 0 ms
[OGL LOG] solve : 0 ms
BJcudaGKOCG:  Solving for p, Initial residual = 3.35225e-05, Final residual = 7.91033e-07, No Iterations 4
linear solve p 1108
time step continuity errors : sum local = 0.000237647, global = -3.59989e-19, cumulative = 8.84422e-19
[OGL LOG] init_preconditioner : 0 ms
[OGL LOG] solve : 0 ms
BJcudaGKOCG:  Solving for p, Initial residual = 7.38197e-06, Final residual = 3.79731e-07, No Iterations 3
linear solve p 972
time step continuity errors : sum local = 0.000237635, global = 2.24464e-19, cumulative = 1.10889e-18
ExecutionTime = 0.83 s  ClockTime = 1 s

End

