/*---------------------------------------------------------------------------*\
  =========                 |
  \\      /  F ield         | OpenFOAM: The Open Source CFD Toolbox
   \\    /   O peration     | Website:  https://openfoam.org
    \\  /    A nd           | Version:  8
     \\/     M anipulation  |
\*---------------------------------------------------------------------------*/
Build  : 8-ef60d22ea792
Exec   : icoFoam
Date   : Sep 15 2021
Time   : 14:05:31
Host   : "uc2n482.localdomain"
PID    : 3640786
I/O    : uncollated
Case   : /pfs/data5/home/kit/scc/nq7776/data/code/OBR/lidDrivenCavity3D/Variation_init/100/Variation_mesh/70/Variation_matrix_solver/CG_BJ_CUDA/Variation_maxBlockSize/4/1631707517
nProcs : 1
sigFpe : Enabling floating point exception trapping (FOAM_SIGFPE).
fileModificationChecking : Monitoring run-time modified files using timeStampMaster (fileModificationSkew 10)
allowSystemOperations : Allowing user-supplied system call operations

// * * * * * * * * * * * * * * * * * * * * * * * * * * * * * * * * * * * * * //
Create time

Create mesh for time = 0

Reading transportProperties

Reading field p

Reading field U

Reading/calculating face flux field phi


Starting time loop

Time = 0.00142857

Courant Number mean: 0.170837 max: 0.954853
DILUPBiCGStab:  Solving for Ux, Initial residual = 0.123158, Final residual = 4.78684e-05, No Iterations 5
DILUPBiCGStab:  Solving for Uy, Initial residual = 0.240191, Final residual = 8.17702e-05, No Iterations 5
DILUPBiCGStab:  Solving for Uz, Initial residual = 0.328596, Final residual = 0.000523545, No Iterations 5
linear solve U 369746
[OGL LOG] init_host_sparsity_pattern : 95 ms
[OGL LOG] matrix not stored update host matrix
[OGL LOG] update_host_mtx : 53 ms
[OGL LOG] matrix is not yet sorted, compute sorting idxs
[OGL LOG] compute_sort : 3082 ms
[OGL LOG] matrix is not yet sorted, sorting host matrix
[OGL LOG] sort_host_mtx_sparsity_pattern : 67 ms
[OGL LOG] sort_host_mtx : 37 ms
[OGL LOG] init_preconditioner : 37 ms
[OGL LOG] solve : 279 ms
BJcudaGKOCG:  Solving for p, Initial residual = 0.567453, Final residual = 9.81159e-07, No Iterations 483
linear solve p 4435268
time step continuity errors : sum local = 1.1797e-09, global = 1.95361e-20, cumulative = 1.95361e-20
[OGL LOG] init_preconditioner : 0 ms
[OGL LOG] solve : 280 ms
BJcudaGKOCG:  Solving for p, Initial residual = 0.279391, Final residual = 9.88627e-07, No Iterations 496
linear solve p 292505
time step continuity errors : sum local = 7.04055e-10, global = 2.04877e-21, cumulative = 2.15849e-20
ExecutionTime = 6.89 s  ClockTime = 7 s

Time = 0.00285714

Courant Number mean: 0.172875 max: 0.950141
DILUPBiCGStab:  Solving for Ux, Initial residual = 0.00605368, Final residual = 2.35601e-05, No Iterations 5
DILUPBiCGStab:  Solving for Uy, Initial residual = 0.0139616, Final residual = 4.53083e-05, No Iterations 5
DILUPBiCGStab:  Solving for Uz, Initial residual = 0.0507754, Final residual = 0.000286323, No Iterations 5
linear solve U 332429
[OGL LOG] init_preconditioner : 0 ms
[OGL LOG] solve : 297 ms
BJcudaGKOCG:  Solving for p, Initial residual = 0.261249, Final residual = 9.52849e-07, No Iterations 526
linear solve p 308296
time step continuity errors : sum local = 2.11675e-07, global = 4.97645e-21, cumulative = 2.65613e-20
[OGL LOG] init_preconditioner : 0 ms
[OGL LOG] solve : 293 ms
BJcudaGKOCG:  Solving for p, Initial residual = 0.183726, Final residual = 9.86791e-07, No Iterations 523
linear solve p 304741
time step continuity errors : sum local = 2.07479e-07, global = -2.50588e-20, cumulative = 1.50256e-21
ExecutionTime = 8.03 s  ClockTime = 8 s

Time = 0.00428571

Courant Number mean: 0.17465 max: 0.951231
DILUPBiCGStab:  Solving for Ux, Initial residual = 0.00280719, Final residual = 1.28905e-05, No Iterations 5
DILUPBiCGStab:  Solving for Uy, Initial residual = 0.00743898, Final residual = 2.49758e-05, No Iterations 5
DILUPBiCGStab:  Solving for Uz, Initial residual = 0.0269143, Final residual = 0.000161777, No Iterations 5
linear solve U 332055
[OGL LOG] init_preconditioner : 0 ms
[OGL LOG] solve : 278 ms
BJcudaGKOCG:  Solving for p, Initial residual = 0.167742, Final residual = 9.69331e-07, No Iterations 488
linear solve p 289327
time step continuity errors : sum local = 2.07239e-07, global = -4.11641e-20, cumulative = -3.96616e-20
[OGL LOG] init_preconditioner : 0 ms
[OGL LOG] solve : 277 ms
BJcudaGKOCG:  Solving for p, Initial residual = 0.122038, Final residual = 9.15882e-07, No Iterations 487
linear solve p 287864
time step continuity errors : sum local = 2.07062e-07, global = -9.64873e-21, cumulative = -4.93103e-20
ExecutionTime = 9.15 s  ClockTime = 9 s

Time = 0.00571429

Courant Number mean: 0.176201 max: 0.951516
DILUPBiCGStab:  Solving for Ux, Initial residual = 0.00217509, Final residual = 7.97231e-06, No Iterations 5
DILUPBiCGStab:  Solving for Uy, Initial residual = 0.00611262, Final residual = 1.44615e-05, No Iterations 5
DILUPBiCGStab:  Solving for Uz, Initial residual = 0.0192767, Final residual = 8.86706e-05, No Iterations 5
linear solve U 332931
[OGL LOG] init_preconditioner : 0 ms
[OGL LOG] solve : 263 ms
BJcudaGKOCG:  Solving for p, Initial residual = 0.120392, Final residual = 9.7452e-07, No Iterations 468
linear solve p 274421
time step continuity errors : sum local = 2.0728e-07, global = -3.1041e-20, cumulative = -8.03513e-20
[OGL LOG] init_preconditioner : 0 ms
[OGL LOG] solve : 268 ms
BJcudaGKOCG:  Solving for p, Initial residual = 0.0892151, Final residual = 9.66301e-07, No Iterations 467
linear solve p 278715
time step continuity errors : sum local = 2.07005e-07, global = 4.29436e-21, cumulative = -7.60569e-20
ExecutionTime = 10.23 s  ClockTime = 10 s

Time = 0.00714286

Courant Number mean: 0.177607 max: 0.951995
DILUPBiCGStab:  Solving for Ux, Initial residual = 0.00184423, Final residual = 6.05732e-06, No Iterations 5
DILUPBiCGStab:  Solving for Uy, Initial residual = 0.00509693, Final residual = 1.21905e-05, No Iterations 5
DILUPBiCGStab:  Solving for Uz, Initial residual = 0.0137066, Final residual = 5.49491e-05, No Iterations 5
linear solve U 330057
[OGL LOG] init_preconditioner : 0 ms
[OGL LOG] solve : 265 ms
BJcudaGKOCG:  Solving for p, Initial residual = 0.0867885, Final residual = 9.5298e-07, No Iterations 468
linear solve p 276246
time step continuity errors : sum local = 2.0717e-07, global = -2.25215e-21, cumulative = -7.83091e-20
[OGL LOG] init_preconditioner : 0 ms
[OGL LOG] solve : 266 ms
BJcudaGKOCG:  Solving for p, Initial residual = 0.0641272, Final residual = 9.80589e-07, No Iterations 466
linear solve p 277244
time step continuity errors : sum local = 2.07069e-07, global = 4.97324e-21, cumulative = -7.33358e-20
ExecutionTime = 11.31 s  ClockTime = 12 s

Time = 0.00857143

Courant Number mean: 0.178874 max: 0.952386
DILUPBiCGStab:  Solving for Ux, Initial residual = 0.00157906, Final residual = 4.2913e-06, No Iterations 5
DILUPBiCGStab:  Solving for Uy, Initial residual = 0.00443628, Final residual = 9.91226e-06, No Iterations 5
DILUPBiCGStab:  Solving for Uz, Initial residual = 0.011494, Final residual = 3.8778e-05, No Iterations 5
linear solve U 331479
[OGL LOG] init_preconditioner : 0 ms
[OGL LOG] solve : 265 ms
BJcudaGKOCG:  Solving for p, Initial residual = 0.0636324, Final residual = 9.28389e-07, No Iterations 464
linear solve p 275866
time step continuity errors : sum local = 2.06963e-07, global = 2.92462e-20, cumulative = -4.40897e-20
[OGL LOG] init_preconditioner : 0 ms
[OGL LOG] solve : 259 ms
BJcudaGKOCG:  Solving for p, Initial residual = 0.0474808, Final residual = 9.25738e-07, No Iterations 463
linear solve p 270346
time step continuity errors : sum local = 2.06983e-07, global = -8.56697e-21, cumulative = -5.26566e-20
ExecutionTime = 12.39 s  ClockTime = 13 s

Time = 0.01

Courant Number mean: 0.180014 max: 0.952713
DILUPBiCGStab:  Solving for Ux, Initial residual = 0.00137776, Final residual = 3.00469e-06, No Iterations 5
DILUPBiCGStab:  Solving for Uy, Initial residual = 0.00387064, Final residual = 8.11126e-06, No Iterations 5
DILUPBiCGStab:  Solving for Uz, Initial residual = 0.00901745, Final residual = 3.06616e-05, No Iterations 5
linear solve U 333736
[OGL LOG] init_preconditioner : 0 ms
[OGL LOG] solve : 263 ms
BJcudaGKOCG:  Solving for p, Initial residual = 0.0474038, Final residual = 9.65638e-07, No Iterations 460
linear solve p 274127
time step continuity errors : sum local = 2.07089e-07, global = -3.34443e-21, cumulative = -5.60011e-20
[OGL LOG] init_preconditioner : 0 ms
[OGL LOG] solve : 263 ms
BJcudaGKOCG:  Solving for p, Initial residual = 0.0355036, Final residual = 9.3804e-07, No Iterations 459
linear solve p 275048
time step continuity errors : sum local = 2.07023e-07, global = 2.61647e-20, cumulative = -2.98364e-20
ExecutionTime = 13.47 s  ClockTime = 14 s

Time = 0.0114286

Courant Number mean: 0.181045 max: 0.953038
DILUPBiCGStab:  Solving for Ux, Initial residual = 0.00121486, Final residual = 2.01117e-06, No Iterations 5
DILUPBiCGStab:  Solving for Uy, Initial residual = 0.00345407, Final residual = 6.14357e-06, No Iterations 5
DILUPBiCGStab:  Solving for Uz, Initial residual = 0.0078587, Final residual = 2.3184e-05, No Iterations 5
linear solve U 334731
[OGL LOG] init_preconditioner : 0 ms
[OGL LOG] solve : 256 ms
BJcudaGKOCG:  Solving for p, Initial residual = 0.0350943, Final residual = 9.62349e-07, No Iterations 458
linear solve p 267412
time step continuity errors : sum local = 2.06938e-07, global = -2.01723e-20, cumulative = -5.00087e-20
[OGL LOG] init_preconditioner : 0 ms
[OGL LOG] solve : 265 ms
BJcudaGKOCG:  Solving for p, Initial residual = 0.0265492, Final residual = 9.44741e-07, No Iterations 457
linear solve p 275972
time step continuity errors : sum local = 2.06986e-07, global = -1.34841e-20, cumulative = -6.34927e-20
ExecutionTime = 14.55 s  ClockTime = 15 s

Time = 0.0128571

Courant Number mean: 0.181976 max: 0.953292
DILUPBiCGStab:  Solving for Ux, Initial residual = 0.00107673, Final residual = 1.45058e-06, No Iterations 5
DILUPBiCGStab:  Solving for Uy, Initial residual = 0.00306255, Final residual = 4.45741e-06, No Iterations 5
DILUPBiCGStab:  Solving for Uz, Initial residual = 0.00652856, Final residual = 2.11558e-05, No Iterations 5
linear solve U 331203
[OGL LOG] init_preconditioner : 0 ms
[OGL LOG] solve : 257 ms
BJcudaGKOCG:  Solving for p, Initial residual = 0.0268322, Final residual = 9.35068e-07, No Iterations 455
linear solve p 268796
time step continuity errors : sum local = 2.07034e-07, global = 3.14476e-22, cumulative = -6.31783e-20
[OGL LOG] init_preconditioner : 0 ms
[OGL LOG] solve : 265 ms
BJcudaGKOCG:  Solving for p, Initial residual = 0.0204007, Final residual = 9.99e-07, No Iterations 453
linear solve p 275976
time step continuity errors : sum local = 2.07025e-07, global = -4.091e-21, cumulative = -6.72693e-20
ExecutionTime = 15.62 s  ClockTime = 16 s

Time = 0.0142857

Courant Number mean: 0.182821 max: 0.953549
DILUPBiCGStab:  Solving for Ux, Initial residual = 0.000963109, Final residual = 1.08079e-06, No Iterations 5
DILUPBiCGStab:  Solving for Uy, Initial residual = 0.0027721, Final residual = 3.39784e-06, No Iterations 5
DILUPBiCGStab:  Solving for Uz, Initial residual = 0.00580688, Final residual = 1.56182e-05, No Iterations 5
linear solve U 334119
[OGL LOG] init_preconditioner : 0 ms
[OGL LOG] solve : 254 ms
BJcudaGKOCG:  Solving for p, Initial residual = 0.0200687, Final residual = 9.66256e-07, No Iterations 452
linear solve p 264659
time step continuity errors : sum local = 2.06945e-07, global = 1.76124e-20, cumulative = -4.96569e-20
[OGL LOG] init_preconditioner : 0 ms
[OGL LOG] solve : 252 ms
BJcudaGKOCG:  Solving for p, Initial residual = 0.0154265, Final residual = 9.40429e-07, No Iterations 451
linear solve p 263440
time step continuity errors : sum local = 2.06991e-07, global = 3.04033e-20, cumulative = -1.92536e-20
ExecutionTime = 16.67 s  ClockTime = 17 s

End

