/*---------------------------------------------------------------------------*\
  =========                 |
  \\      /  F ield         | OpenFOAM: The Open Source CFD Toolbox
   \\    /   O peration     | Website:  https://openfoam.org
    \\  /    A nd           | Version:  8
     \\/     M anipulation  |
\*---------------------------------------------------------------------------*/
Build  : 8-ef60d22ea792
Exec   : icoFoam
Date   : Sep 15 2021
Time   : 14:02:40
Host   : "uc2n482.localdomain"
PID    : 3639359
I/O    : uncollated
Case   : /pfs/data5/home/kit/scc/nq7776/data/code/OBR/lidDrivenCavity3D/Variation_init/100/Variation_mesh/30/Variation_matrix_solver/CG_BJ_CUDA/Variation_maxBlockSize/2/1631707358
nProcs : 1
sigFpe : Enabling floating point exception trapping (FOAM_SIGFPE).
fileModificationChecking : Monitoring run-time modified files using timeStampMaster (fileModificationSkew 10)
allowSystemOperations : Allowing user-supplied system call operations

// * * * * * * * * * * * * * * * * * * * * * * * * * * * * * * * * * * * * * //
Create time

Create mesh for time = 0

Reading transportProperties

Reading field p

Reading field U

Reading/calculating face flux field phi


Starting time loop

Time = 0.00333333

Courant Number mean: 0.169907 max: 0.893517
DILUPBiCGStab:  Solving for Ux, Initial residual = 0.0911511, Final residual = 3.95829e-06, No Iterations 5
DILUPBiCGStab:  Solving for Uy, Initial residual = 0.158672, Final residual = 5.65407e-06, No Iterations 5
DILUPBiCGStab:  Solving for Uz, Initial residual = 0.266117, Final residual = 9.88141e-06, No Iterations 5
linear solve U 20119
[OGL LOG] init_host_sparsity_pattern : 7 ms
[OGL LOG] matrix not stored update host matrix
[OGL LOG] update_host_mtx : 3 ms
[OGL LOG] matrix is not yet sorted, compute sorting idxs
[OGL LOG] compute_sort : 200 ms
[OGL LOG] matrix is not yet sorted, sorting host matrix
[OGL LOG] sort_host_mtx_sparsity_pattern : 4 ms
[OGL LOG] sort_host_mtx : 3 ms
[OGL LOG] init_preconditioner : 3 ms
[OGL LOG] solve : 31 ms
BJcudaGKOCG:  Solving for p, Initial residual = 0.542954, Final residual = 9.93911e-07, No Iterations 219
linear solve p 1009583
time step continuity errors : sum local = 4.64516e-09, global = -2.68738e-20, cumulative = -2.68738e-20
[OGL LOG] init_preconditioner : 0 ms
[OGL LOG] solve : 30 ms
BJcudaGKOCG:  Solving for p, Initial residual = 0.318921, Final residual = 9.73343e-07, No Iterations 220
linear solve p 31778
time step continuity errors : sum local = 2.9888e-09, global = 9.38793e-20, cumulative = 6.70055e-20
ExecutionTime = 1.2 s  ClockTime = 2 s

Time = 0.00666667

Courant Number mean: 0.173776 max: 0.888266
DILUPBiCGStab:  Solving for Ux, Initial residual = 0.0119482, Final residual = 2.97167e-06, No Iterations 5
DILUPBiCGStab:  Solving for Uy, Initial residual = 0.0223252, Final residual = 3.40219e-06, No Iterations 5
DILUPBiCGStab:  Solving for Uz, Initial residual = 0.0596886, Final residual = 5.25618e-06, No Iterations 5
linear solve U 18082
[OGL LOG] init_preconditioner : 0 ms
[OGL LOG] solve : 30 ms
BJcudaGKOCG:  Solving for p, Initial residual = 0.156724, Final residual = 8.46791e-07, No Iterations 214
linear solve p 31499
time step continuity errors : sum local = 9.92716e-07, global = -8.70435e-21, cumulative = 5.83012e-20
[OGL LOG] init_preconditioner : 0 ms
[OGL LOG] solve : 33 ms
BJcudaGKOCG:  Solving for p, Initial residual = 0.0960175, Final residual = 9.83138e-07, No Iterations 211
linear solve p 33954
time step continuity errors : sum local = 8.86662e-07, global = 1.18496e-19, cumulative = 1.76797e-19
ExecutionTime = 1.3 s  ClockTime = 2 s

Time = 0.01

Courant Number mean: 0.176716 max: 0.888542
DILUPBiCGStab:  Solving for Ux, Initial residual = 0.00409282, Final residual = 6.70335e-07, No Iterations 5
DILUPBiCGStab:  Solving for Uy, Initial residual = 0.009642, Final residual = 1.18556e-06, No Iterations 5
DILUPBiCGStab:  Solving for Uz, Initial residual = 0.0232391, Final residual = 3.07758e-06, No Iterations 5
linear solve U 18302
[OGL LOG] init_preconditioner : 0 ms
[OGL LOG] solve : 29 ms
BJcudaGKOCG:  Solving for p, Initial residual = 0.0542663, Final residual = 9.12752e-07, No Iterations 207
linear solve p 30039
time step continuity errors : sum local = 8.68129e-07, global = 1.85478e-19, cumulative = 3.62275e-19
[OGL LOG] init_preconditioner : 0 ms
[OGL LOG] solve : 29 ms
BJcudaGKOCG:  Solving for p, Initial residual = 0.0362376, Final residual = 9.54967e-07, No Iterations 205
linear solve p 30505
time step continuity errors : sum local = 8.81072e-07, global = 1.15888e-20, cumulative = 3.73864e-19
ExecutionTime = 1.4 s  ClockTime = 2 s

Time = 0.0133333

Courant Number mean: 0.179156 max: 0.890256
DILUPBiCGStab:  Solving for Ux, Initial residual = 0.00297516, Final residual = 3.25967e-07, No Iterations 5
DILUPBiCGStab:  Solving for Uy, Initial residual = 0.00703809, Final residual = 6.19414e-07, No Iterations 5
DILUPBiCGStab:  Solving for Uz, Initial residual = 0.0128676, Final residual = 1.19915e-06, No Iterations 5
linear solve U 18419
[OGL LOG] init_preconditioner : 0 ms
[OGL LOG] solve : 28 ms
BJcudaGKOCG:  Solving for p, Initial residual = 0.0253463, Final residual = 8.81103e-07, No Iterations 203
linear solve p 29760
time step continuity errors : sum local = 8.83886e-07, global = 1.10049e-19, cumulative = 4.83912e-19
[OGL LOG] init_preconditioner : 0 ms
[OGL LOG] solve : 28 ms
BJcudaGKOCG:  Solving for p, Initial residual = 0.0181718, Final residual = 9.36752e-07, No Iterations 201
linear solve p 29749
time step continuity errors : sum local = 8.8196e-07, global = 6.30015e-20, cumulative = 5.46914e-19
ExecutionTime = 1.48 s  ClockTime = 2 s

Time = 0.0166667

Courant Number mean: 0.181129 max: 0.891457
DILUPBiCGStab:  Solving for Ux, Initial residual = 0.00228113, Final residual = 2.3743e-07, No Iterations 5
DILUPBiCGStab:  Solving for Uy, Initial residual = 0.0053429, Final residual = 4.69091e-07, No Iterations 5
DILUPBiCGStab:  Solving for Uz, Initial residual = 0.0092828, Final residual = 5.6483e-07, No Iterations 5
linear solve U 19057
[OGL LOG] init_preconditioner : 0 ms
[OGL LOG] solve : 28 ms
BJcudaGKOCG:  Solving for p, Initial residual = 0.014293, Final residual = 9.00405e-07, No Iterations 200
linear solve p 29295
time step continuity errors : sum local = 8.80646e-07, global = 5.0367e-20, cumulative = 5.97281e-19
[OGL LOG] init_preconditioner : 0 ms
[OGL LOG] solve : 28 ms
BJcudaGKOCG:  Solving for p, Initial residual = 0.0104793, Final residual = 9.89895e-07, No Iterations 198
linear solve p 29012
time step continuity errors : sum local = 8.81965e-07, global = 4.40784e-20, cumulative = 6.41359e-19
ExecutionTime = 1.58 s  ClockTime = 2 s

Time = 0.02

Courant Number mean: 0.182723 max: 0.892519
DILUPBiCGStab:  Solving for Ux, Initial residual = 0.00179241, Final residual = 1.43088e-07, No Iterations 5
DILUPBiCGStab:  Solving for Uy, Initial residual = 0.00435024, Final residual = 3.47661e-07, No Iterations 5
DILUPBiCGStab:  Solving for Uz, Initial residual = 0.00736145, Final residual = 4.40064e-07, No Iterations 5
linear solve U 17877
[OGL LOG] init_preconditioner : 0 ms
[OGL LOG] solve : 28 ms
BJcudaGKOCG:  Solving for p, Initial residual = 0.00820944, Final residual = 9.1574e-07, No Iterations 197
linear solve p 29147
time step continuity errors : sum local = 8.81401e-07, global = -9.26442e-21, cumulative = 6.32095e-19
[OGL LOG] init_preconditioner : 0 ms
[OGL LOG] solve : 26 ms
BJcudaGKOCG:  Solving for p, Initial residual = 0.00653739, Final residual = 9.97283e-07, No Iterations 195
linear solve p 27428
time step continuity errors : sum local = 8.81921e-07, global = -4.94044e-20, cumulative = 5.8269e-19
ExecutionTime = 1.67 s  ClockTime = 2 s

Time = 0.0233333

Courant Number mean: 0.184011 max: 0.893289
DILUPBiCGStab:  Solving for Ux, Initial residual = 0.00143715, Final residual = 1.09346e-07, No Iterations 5
DILUPBiCGStab:  Solving for Uy, Initial residual = 0.00347901, Final residual = 2.43272e-07, No Iterations 5
DILUPBiCGStab:  Solving for Uz, Initial residual = 0.00575675, Final residual = 2.57549e-07, No Iterations 5
linear solve U 17641
[OGL LOG] init_preconditioner : 0 ms
[OGL LOG] solve : 25 ms
BJcudaGKOCG:  Solving for p, Initial residual = 0.00545633, Final residual = 9.72395e-07, No Iterations 187
linear solve p 26461
time step continuity errors : sum local = 8.81624e-07, global = -2.4478e-20, cumulative = 5.58212e-19
[OGL LOG] init_preconditioner : 0 ms
[OGL LOG] solve : 30 ms
BJcudaGKOCG:  Solving for p, Initial residual = 0.00442823, Final residual = 9.35582e-07, No Iterations 186
linear solve p 31407
time step continuity errors : sum local = 8.81887e-07, global = -5.32454e-20, cumulative = 5.04967e-19
ExecutionTime = 1.75 s  ClockTime = 2 s

Time = 0.0266667

Courant Number mean: 0.185057 max: 0.893926
DILUPBiCGStab:  Solving for Ux, Initial residual = 0.00115894, Final residual = 5.42929e-08, No Iterations 5
DILUPBiCGStab:  Solving for Uy, Initial residual = 0.00285489, Final residual = 1.87668e-07, No Iterations 5
DILUPBiCGStab:  Solving for Uz, Initial residual = 0.00465609, Final residual = 2.32179e-07, No Iterations 5
linear solve U 18287
[OGL LOG] init_preconditioner : 0 ms
[OGL LOG] solve : 26 ms
BJcudaGKOCG:  Solving for p, Initial residual = 0.00385797, Final residual = 9.61149e-07, No Iterations 186
linear solve p 27072
time step continuity errors : sum local = 8.81707e-07, global = 4.69918e-20, cumulative = 5.51959e-19
[OGL LOG] init_preconditioner : 0 ms
[OGL LOG] solve : 26 ms
BJcudaGKOCG:  Solving for p, Initial residual = 0.00327621, Final residual = 9.70033e-07, No Iterations 185
linear solve p 27273
time step continuity errors : sum local = 8.82024e-07, global = 2.68162e-20, cumulative = 5.78775e-19
ExecutionTime = 1.84 s  ClockTime = 2 s

Time = 0.03

Courant Number mean: 0.185908 max: 0.894414
DILUPBiCGStab:  Solving for Ux, Initial residual = 0.000942617, Final residual = 5.13664e-08, No Iterations 5
DILUPBiCGStab:  Solving for Uy, Initial residual = 0.00232451, Final residual = 1.38077e-07, No Iterations 5
DILUPBiCGStab:  Solving for Uz, Initial residual = 0.00370708, Final residual = 1.70511e-07, No Iterations 5
linear solve U 18515
[OGL LOG] init_preconditioner : 0 ms
[OGL LOG] solve : 26 ms
BJcudaGKOCG:  Solving for p, Initial residual = 0.00291759, Final residual = 9.41272e-07, No Iterations 184
linear solve p 27039
time step continuity errors : sum local = 8.81782e-07, global = -3.27791e-20, cumulative = 5.45996e-19
[OGL LOG] init_preconditioner : 0 ms
[OGL LOG] solve : 25 ms
BJcudaGKOCG:  Solving for p, Initial residual = 0.0025162, Final residual = 9.14502e-07, No Iterations 183
linear solve p 26556
time step continuity errors : sum local = 8.81915e-07, global = 1.43984e-19, cumulative = 6.8998e-19
ExecutionTime = 1.92 s  ClockTime = 2 s

Time = 0.0333333

Courant Number mean: 0.186602 max: 0.894809
DILUPBiCGStab:  Solving for Ux, Initial residual = 0.000767536, Final residual = 2.95322e-08, No Iterations 5
DILUPBiCGStab:  Solving for Uy, Initial residual = 0.00191398, Final residual = 1.26308e-07, No Iterations 5
DILUPBiCGStab:  Solving for Uz, Initial residual = 0.0029946, Final residual = 1.45494e-07, No Iterations 5
linear solve U 17602
[OGL LOG] init_preconditioner : 0 ms
[OGL LOG] solve : 24 ms
BJcudaGKOCG:  Solving for p, Initial residual = 0.00225683, Final residual = 8.97284e-07, No Iterations 179
linear solve p 25426
time step continuity errors : sum local = 8.81824e-07, global = -1.58322e-20, cumulative = 6.74147e-19
[OGL LOG] init_preconditioner : 0 ms
[OGL LOG] solve : 24 ms
BJcudaGKOCG:  Solving for p, Initial residual = 0.00198019, Final residual = 9.52067e-07, No Iterations 177
linear solve p 25594
time step continuity errors : sum local = 8.81963e-07, global = -4.63225e-20, cumulative = 6.27825e-19
ExecutionTime = 2.01 s  ClockTime = 2 s

End

