/*---------------------------------------------------------------------------*\
  =========                 |
  \\      /  F ield         | OpenFOAM: The Open Source CFD Toolbox
   \\    /   O peration     | Website:  https://openfoam.org
    \\  /    A nd           | Version:  8
     \\/     M anipulation  |
\*---------------------------------------------------------------------------*/
Build  : 8-ef60d22ea792
Exec   : icoFoam
Date   : Sep 15 2021
Time   : 13:40:42
Host   : "uc2n482.localdomain"
PID    : 3635622
I/O    : uncollated
Case   : /pfs/data5/home/kit/scc/nq7776/data/code/OBR/lidDrivenCavity3D/Variation_init/100/Variation_mesh/65/Variation_matrix_solver/IR_NoPrecond_CUDA/Variation_innerReductionFactor/0.1/1631706030
nProcs : 1
sigFpe : Enabling floating point exception trapping (FOAM_SIGFPE).
fileModificationChecking : Monitoring run-time modified files using timeStampMaster (fileModificationSkew 10)
allowSystemOperations : Allowing user-supplied system call operations

// * * * * * * * * * * * * * * * * * * * * * * * * * * * * * * * * * * * * * //
Create time

Create mesh for time = 0

Reading transportProperties

Reading field p

Reading field U

Reading/calculating face flux field phi


Starting time loop

Time = 0.00153846

Courant Number mean: 0.17093 max: 0.953778
DILUPBiCGStab:  Solving for Ux, Initial residual = 0.112594, Final residual = 8.25037e-05, No Iterations 5
DILUPBiCGStab:  Solving for Uy, Initial residual = 0.214167, Final residual = 0.00019351, No Iterations 5
DILUPBiCGStab:  Solving for Uz, Initial residual = 0.265767, Final residual = 0.000360103, No Iterations 5
linear solve U 281068
[OGL LOG] init_host_sparsity_pattern : 77 ms
[OGL LOG] matrix not stored update host matrix
[OGL LOG] update_host_mtx : 43 ms
[OGL LOG] matrix is not yet sorted, compute sorting idxs
[OGL LOG] compute_sort : 2474 ms
[OGL LOG] matrix is not yet sorted, sorting host matrix
[OGL LOG] sort_host_mtx_sparsity_pattern : 53 ms
[OGL LOG] sort_host_mtx : 30 ms
[OGL LOG] init_preconditioner : 0 ms
[OGL LOG] solve : 147 ms
nonecudaGKOIR:  Solving for p, Initial residual = 0.554571, Final residual = 2.87803e-07, No Iterations 7
linear solve p 3599558
time step continuity errors : sum local = 3.84446e-10, global = 3.03148e-20, cumulative = 3.03148e-20
[OGL LOG] init_preconditioner : 0 ms
[OGL LOG] solve : 198 ms
nonecudaGKOIR:  Solving for p, Initial residual = 0.328964, Final residual = 1.35597e-07, No Iterations 7
linear solve p 207116
time step continuity errors : sum local = 1.09406e-10, global = -1.88872e-20, cumulative = 1.14276e-20
ExecutionTime = 5.54 s  ClockTime = 5 s

Time = 0.00307692

Courant Number mean: 0.173153 max: 0.946981
DILUPBiCGStab:  Solving for Ux, Initial residual = 0.00646103, Final residual = 2.91067e-05, No Iterations 5
DILUPBiCGStab:  Solving for Uy, Initial residual = 0.0152954, Final residual = 6.58731e-05, No Iterations 5
DILUPBiCGStab:  Solving for Uz, Initial residual = 0.0410359, Final residual = 0.000215681, No Iterations 5
linear solve U 254803
[OGL LOG] init_preconditioner : 0 ms
[OGL LOG] solve : 137 ms
nonecudaGKOIR:  Solving for p, Initial residual = 0.25902, Final residual = 4.82309e-07, No Iterations 6
linear solve p 145531
time step continuity errors : sum local = 2.57965e-07, global = 2.78242e-20, cumulative = 3.92518e-20
[OGL LOG] init_preconditioner : 0 ms
[OGL LOG] solve : 143 ms
nonecudaGKOIR:  Solving for p, Initial residual = 0.210446, Final residual = 3.87172e-07, No Iterations 6
linear solve p 151544
time step continuity errors : sum local = 2.47315e-07, global = 2.95638e-21, cumulative = 4.22082e-20
ExecutionTime = 6.25 s  ClockTime = 6 s

Time = 0.00461538

Courant Number mean: 0.174968 max: 0.947843
DILUPBiCGStab:  Solving for Ux, Initial residual = 0.00331104, Final residual = 1.28476e-05, No Iterations 5
DILUPBiCGStab:  Solving for Uy, Initial residual = 0.00810304, Final residual = 2.89737e-05, No Iterations 5
DILUPBiCGStab:  Solving for Uz, Initial residual = 0.0238031, Final residual = 0.000136599, No Iterations 5
linear solve U 255334
[OGL LOG] init_preconditioner : 0 ms
[OGL LOG] solve : 137 ms
nonecudaGKOIR:  Solving for p, Initial residual = 0.16804, Final residual = 2.43601e-07, No Iterations 6
linear solve p 146113
time step continuity errors : sum local = 2.46862e-07, global = -9.98658e-21, cumulative = 3.22216e-20
[OGL LOG] init_preconditioner : 0 ms
[OGL LOG] solve : 141 ms
nonecudaGKOIR:  Solving for p, Initial residual = 0.135522, Final residual = 1.8564e-07, No Iterations 6
linear solve p 150387
time step continuity errors : sum local = 2.46141e-07, global = -1.85634e-20, cumulative = 1.36582e-20
ExecutionTime = 6.97 s  ClockTime = 7 s

Time = 0.00615385

Courant Number mean: 0.176518 max: 0.947985
DILUPBiCGStab:  Solving for Ux, Initial residual = 0.00229887, Final residual = 8.48571e-06, No Iterations 5
DILUPBiCGStab:  Solving for Uy, Initial residual = 0.0067034, Final residual = 1.83234e-05, No Iterations 5
DILUPBiCGStab:  Solving for Uz, Initial residual = 0.0192835, Final residual = 8.40692e-05, No Iterations 5
linear solve U 252540
[OGL LOG] init_preconditioner : 0 ms
[OGL LOG] solve : 150 ms
nonecudaGKOIR:  Solving for p, Initial residual = 0.117474, Final residual = 1.56721e-07, No Iterations 6
linear solve p 158865
time step continuity errors : sum local = 2.46474e-07, global = -5.05163e-20, cumulative = -3.68581e-20
[OGL LOG] init_preconditioner : 0 ms
[OGL LOG] solve : 158 ms
nonecudaGKOIR:  Solving for p, Initial residual = 0.0952295, Final residual = 1.31911e-07, No Iterations 6
linear solve p 167412
time step continuity errors : sum local = 2.4634e-07, global = 4.3947e-20, cumulative = 7.08892e-21
ExecutionTime = 7.72 s  ClockTime = 8 s

Time = 0.00769231

Courant Number mean: 0.17797 max: 0.948443
DILUPBiCGStab:  Solving for Ux, Initial residual = 0.00194859, Final residual = 6.6008e-06, No Iterations 5
DILUPBiCGStab:  Solving for Uy, Initial residual = 0.00523608, Final residual = 1.35818e-05, No Iterations 5
DILUPBiCGStab:  Solving for Uz, Initial residual = 0.013723, Final residual = 5.09381e-05, No Iterations 5
linear solve U 254063
[OGL LOG] init_preconditioner : 0 ms
[OGL LOG] solve : 118 ms
nonecudaGKOIR:  Solving for p, Initial residual = 0.0839282, Final residual = 9.5386e-07, No Iterations 5
linear solve p 127319
time step continuity errors : sum local = 2.46914e-07, global = 1.21449e-20, cumulative = 1.92338e-20
[OGL LOG] init_preconditioner : 0 ms
[OGL LOG] solve : 113 ms
nonecudaGKOIR:  Solving for p, Initial residual = 0.0673242, Final residual = 8.2878e-07, No Iterations 5
linear solve p 122397
time step continuity errors : sum local = 2.46583e-07, global = -1.73871e-20, cumulative = 1.8467e-21
ExecutionTime = 8.4 s  ClockTime = 8 s

Time = 0.00923077

Courant Number mean: 0.179261 max: 0.948913
DILUPBiCGStab:  Solving for Ux, Initial residual = 0.00160217, Final residual = 5.24913e-06, No Iterations 5
DILUPBiCGStab:  Solving for Uy, Initial residual = 0.00455727, Final residual = 9.17096e-06, No Iterations 5
DILUPBiCGStab:  Solving for Uz, Initial residual = 0.0115548, Final residual = 3.57773e-05, No Iterations 5
linear solve U 255347
[OGL LOG] init_preconditioner : 0 ms
[OGL LOG] solve : 121 ms
nonecudaGKOIR:  Solving for p, Initial residual = 0.0613607, Final residual = 7.52644e-07, No Iterations 5
linear solve p 130294
time step continuity errors : sum local = 2.46542e-07, global = 4.31653e-21, cumulative = 6.16323e-21
[OGL LOG] init_preconditioner : 0 ms
[OGL LOG] solve : 121 ms
nonecudaGKOIR:  Solving for p, Initial residual = 0.0494902, Final residual = 5.90605e-07, No Iterations 5
linear solve p 130163
time step continuity errors : sum local = 2.46481e-07, global = -1.61267e-20, cumulative = -9.96345e-21
ExecutionTime = 9.07 s  ClockTime = 9 s

Time = 0.0107692

Courant Number mean: 0.180428 max: 0.949219
DILUPBiCGStab:  Solving for Ux, Initial residual = 0.00140693, Final residual = 4.23225e-06, No Iterations 5
DILUPBiCGStab:  Solving for Uy, Initial residual = 0.00391284, Final residual = 6.18776e-06, No Iterations 5
DILUPBiCGStab:  Solving for Uz, Initial residual = 0.009009, Final residual = 2.49681e-05, No Iterations 5
linear solve U 256497
[OGL LOG] init_preconditioner : 0 ms
[OGL LOG] solve : 124 ms
nonecudaGKOIR:  Solving for p, Initial residual = 0.0453743, Final residual = 4.77498e-07, No Iterations 5
linear solve p 133262
time step continuity errors : sum local = 2.4647e-07, global = -1.75364e-20, cumulative = -2.74998e-20
[OGL LOG] init_preconditioner : 0 ms
[OGL LOG] solve : 124 ms
nonecudaGKOIR:  Solving for p, Initial residual = 0.0363229, Final residual = 4.26977e-07, No Iterations 5
linear solve p 133344
time step continuity errors : sum local = 2.46404e-07, global = 2.80801e-20, cumulative = 5.8024e-22
ExecutionTime = 9.76 s  ClockTime = 10 s

Time = 0.0123077

Courant Number mean: 0.181475 max: 0.949601
DILUPBiCGStab:  Solving for Ux, Initial residual = 0.00121896, Final residual = 3.1419e-06, No Iterations 5
DILUPBiCGStab:  Solving for Uy, Initial residual = 0.0034701, Final residual = 4.46741e-06, No Iterations 5
DILUPBiCGStab:  Solving for Uz, Initial residual = 0.0077431, Final residual = 1.96926e-05, No Iterations 5
linear solve U 252987
[OGL LOG] init_preconditioner : 0 ms
[OGL LOG] solve : 125 ms
nonecudaGKOIR:  Solving for p, Initial residual = 0.033873, Final residual = 3.61359e-07, No Iterations 5
linear solve p 134001
time step continuity errors : sum local = 2.46381e-07, global = -2.56179e-20, cumulative = -2.50377e-20
[OGL LOG] init_preconditioner : 0 ms
[OGL LOG] solve : 128 ms
nonecudaGKOIR:  Solving for p, Initial residual = 0.0272785, Final residual = 3.21275e-07, No Iterations 5
linear solve p 137849
time step continuity errors : sum local = 2.46359e-07, global = 4.33525e-20, cumulative = 1.83148e-20
ExecutionTime = 10.46 s  ClockTime = 10 s

Time = 0.0138462

Courant Number mean: 0.182418 max: 0.949852
DILUPBiCGStab:  Solving for Ux, Initial residual = 0.00108409, Final residual = 2.39084e-06, No Iterations 5
DILUPBiCGStab:  Solving for Uy, Initial residual = 0.00306007, Final residual = 3.28905e-06, No Iterations 5
DILUPBiCGStab:  Solving for Uz, Initial residual = 0.00643067, Final residual = 1.61836e-05, No Iterations 5
linear solve U 255039
[OGL LOG] init_preconditioner : 0 ms
[OGL LOG] solve : 121 ms
nonecudaGKOIR:  Solving for p, Initial residual = 0.0254842, Final residual = 2.87491e-07, No Iterations 5
linear solve p 130418
time step continuity errors : sum local = 2.46348e-07, global = 1.04871e-20, cumulative = 2.88019e-20
[OGL LOG] init_preconditioner : 0 ms
[OGL LOG] solve : 123 ms
nonecudaGKOIR:  Solving for p, Initial residual = 0.0203997, Final residual = 2.34649e-07, No Iterations 5
linear solve p 132312
time step continuity errors : sum local = 2.46323e-07, global = 2.76909e-20, cumulative = 5.64928e-20
ExecutionTime = 11.14 s  ClockTime = 11 s

Time = 0.0153846

Courant Number mean: 0.183267 max: 0.95014
DILUPBiCGStab:  Solving for Ux, Initial residual = 0.00095893, Final residual = 1.6404e-06, No Iterations 5
DILUPBiCGStab:  Solving for Uy, Initial residual = 0.00274783, Final residual = 2.32662e-06, No Iterations 5
DILUPBiCGStab:  Solving for Uz, Initial residual = 0.00562601, Final residual = 1.26021e-05, No Iterations 5
linear solve U 255325
[OGL LOG] init_preconditioner : 0 ms
[OGL LOG] solve : 130 ms
nonecudaGKOIR:  Solving for p, Initial residual = 0.0193265, Final residual = 2.09066e-07, No Iterations 5
linear solve p 138942
time step continuity errors : sum local = 2.46318e-07, global = 2.23899e-20, cumulative = 7.88827e-20
[OGL LOG] init_preconditioner : 0 ms
[OGL LOG] solve : 125 ms
nonecudaGKOIR:  Solving for p, Initial residual = 0.0156221, Final residual = 1.65769e-07, No Iterations 5
linear solve p 134510
time step continuity errors : sum local = 2.46299e-07, global = -6.33542e-20, cumulative = 1.55285e-20
ExecutionTime = 11.83 s  ClockTime = 12 s

End

