/*---------------------------------------------------------------------------*\
  =========                 |
  \\      /  F ield         | OpenFOAM: The Open Source CFD Toolbox
   \\    /   O peration     | Website:  https://openfoam.org
    \\  /    A nd           | Version:  8
     \\/     M anipulation  |
\*---------------------------------------------------------------------------*/
Build  : 8-ef60d22ea792
Exec   : icoFoam
Date   : Sep 15 2021
Time   : 13:37:02
Host   : "uc2n482.localdomain"
PID    : 3634679
I/O    : uncollated
Case   : /pfs/data5/home/kit/scc/nq7776/data/code/OBR/lidDrivenCavity3D/Variation_init/100/Variation_mesh/65/Variation_matrix_solver/CG_BJ_CUDA/Variation_maxBlockSize/16/1631705810
nProcs : 1
sigFpe : Enabling floating point exception trapping (FOAM_SIGFPE).
fileModificationChecking : Monitoring run-time modified files using timeStampMaster (fileModificationSkew 10)
allowSystemOperations : Allowing user-supplied system call operations

// * * * * * * * * * * * * * * * * * * * * * * * * * * * * * * * * * * * * * //
Create time

Create mesh for time = 0

Reading transportProperties

Reading field p

Reading field U

Reading/calculating face flux field phi


Starting time loop

Time = 0.00153846

Courant Number mean: 0.17093 max: 0.953778
DILUPBiCGStab:  Solving for Ux, Initial residual = 0.112594, Final residual = 8.25037e-05, No Iterations 5
DILUPBiCGStab:  Solving for Uy, Initial residual = 0.214167, Final residual = 0.00019351, No Iterations 5
DILUPBiCGStab:  Solving for Uz, Initial residual = 0.265767, Final residual = 0.000360103, No Iterations 5
linear solve U 278455
[OGL LOG] init_host_sparsity_pattern : 77 ms
[OGL LOG] matrix not stored update host matrix
[OGL LOG] update_host_mtx : 43 ms
[OGL LOG] matrix is not yet sorted, compute sorting idxs
[OGL LOG] compute_sort : 2485 ms
[OGL LOG] matrix is not yet sorted, sorting host matrix
[OGL LOG] sort_host_mtx_sparsity_pattern : 55 ms
[OGL LOG] sort_host_mtx : 29 ms
[OGL LOG] init_preconditioner : 30 ms
[OGL LOG] solve : 253 ms
BJcudaGKOCG:  Solving for p, Initial residual = 0.554571, Final residual = 9.37541e-07, No Iterations 462
linear solve p 3739379
time step continuity errors : sum local = 1.24749e-09, global = 6.78066e-21, cumulative = 6.78066e-21
[OGL LOG] init_preconditioner : 0 ms
[OGL LOG] solve : 252 ms
BJcudaGKOCG:  Solving for p, Initial residual = 0.328964, Final residual = 9.89712e-07, No Iterations 475
linear solve p 260966
time step continuity errors : sum local = 7.98345e-10, global = 7.98054e-21, cumulative = 1.47612e-20
ExecutionTime = 5.73 s  ClockTime = 6 s

Time = 0.00307692

Courant Number mean: 0.173153 max: 0.946981
DILUPBiCGStab:  Solving for Ux, Initial residual = 0.00646101, Final residual = 2.91066e-05, No Iterations 5
DILUPBiCGStab:  Solving for Uy, Initial residual = 0.0152954, Final residual = 6.58731e-05, No Iterations 5
DILUPBiCGStab:  Solving for Uz, Initial residual = 0.0410354, Final residual = 0.000215682, No Iterations 5
linear solve U 255414
[OGL LOG] init_preconditioner : 0 ms
[OGL LOG] solve : 259 ms
BJcudaGKOCG:  Solving for p, Initial residual = 0.25902, Final residual = 9.56446e-07, No Iterations 491
linear solve p 267700
time step continuity errors : sum local = 2.58211e-07, global = 4.0225e-20, cumulative = 5.49862e-20
[OGL LOG] init_preconditioner : 0 ms
[OGL LOG] solve : 257 ms
BJcudaGKOCG:  Solving for p, Initial residual = 0.210446, Final residual = 9.66709e-07, No Iterations 489
linear solve p 265276
time step continuity errors : sum local = 2.47621e-07, global = -1.05569e-20, cumulative = 4.44293e-20
ExecutionTime = 6.67 s  ClockTime = 7 s

Time = 0.00461538

Courant Number mean: 0.174968 max: 0.947843
DILUPBiCGStab:  Solving for Ux, Initial residual = 0.00331102, Final residual = 1.28476e-05, No Iterations 5
DILUPBiCGStab:  Solving for Uy, Initial residual = 0.00810308, Final residual = 2.89739e-05, No Iterations 5
DILUPBiCGStab:  Solving for Uz, Initial residual = 0.0238042, Final residual = 0.0001366, No Iterations 5
linear solve U 254607
[OGL LOG] init_preconditioner : 0 ms
[OGL LOG] solve : 237 ms
BJcudaGKOCG:  Solving for p, Initial residual = 0.168039, Final residual = 9.99283e-07, No Iterations 447
linear solve p 245746
time step continuity errors : sum local = 2.47199e-07, global = 3.83704e-20, cumulative = 8.27998e-20
[OGL LOG] init_preconditioner : 0 ms
[OGL LOG] solve : 237 ms
BJcudaGKOCG:  Solving for p, Initial residual = 0.135521, Final residual = 9.85258e-07, No Iterations 442
linear solve p 246618
time step continuity errors : sum local = 2.46525e-07, global = -1.15698e-20, cumulative = 7.123e-20
ExecutionTime = 7.59 s  ClockTime = 8 s

Time = 0.00615385

Courant Number mean: 0.176518 max: 0.947985
DILUPBiCGStab:  Solving for Ux, Initial residual = 0.00229886, Final residual = 8.48563e-06, No Iterations 5
DILUPBiCGStab:  Solving for Uy, Initial residual = 0.00670338, Final residual = 1.83236e-05, No Iterations 5
DILUPBiCGStab:  Solving for Uz, Initial residual = 0.0192841, Final residual = 8.40739e-05, No Iterations 5
linear solve U 255753
[OGL LOG] init_preconditioner : 0 ms
[OGL LOG] solve : 234 ms
BJcudaGKOCG:  Solving for p, Initial residual = 0.117474, Final residual = 9.93341e-07, No Iterations 441
linear solve p 242824
time step continuity errors : sum local = 2.46853e-07, global = -1.68089e-20, cumulative = 5.4421e-20
[OGL LOG] init_preconditioner : 0 ms
[OGL LOG] solve : 232 ms
BJcudaGKOCG:  Solving for p, Initial residual = 0.0952293, Final residual = 9.67585e-07, No Iterations 440
linear solve p 240401
time step continuity errors : sum local = 2.4671e-07, global = 8.2182e-21, cumulative = 6.26392e-20
ExecutionTime = 8.49 s  ClockTime = 9 s

Time = 0.00769231

Courant Number mean: 0.17797 max: 0.948443
DILUPBiCGStab:  Solving for Ux, Initial residual = 0.00194859, Final residual = 6.60089e-06, No Iterations 5
DILUPBiCGStab:  Solving for Uy, Initial residual = 0.00523609, Final residual = 1.35815e-05, No Iterations 5
DILUPBiCGStab:  Solving for Uz, Initial residual = 0.013723, Final residual = 5.09325e-05, No Iterations 5
linear solve U 252349
[OGL LOG] init_preconditioner : 0 ms
[OGL LOG] solve : 225 ms
BJcudaGKOCG:  Solving for p, Initial residual = 0.0839271, Final residual = 9.82823e-07, No Iterations 423
linear solve p 234133
time step continuity errors : sum local = 2.46925e-07, global = -4.6357e-20, cumulative = 1.62823e-20
[OGL LOG] init_preconditioner : 0 ms
[OGL LOG] solve : 223 ms
BJcudaGKOCG:  Solving for p, Initial residual = 0.0673232, Final residual = 9.41463e-07, No Iterations 422
linear solve p 232098
time step continuity errors : sum local = 2.46636e-07, global = 8.64201e-21, cumulative = 2.49243e-20
ExecutionTime = 9.37 s  ClockTime = 10 s

Time = 0.00923077

Courant Number mean: 0.179261 max: 0.948913
DILUPBiCGStab:  Solving for Ux, Initial residual = 0.00160216, Final residual = 5.24913e-06, No Iterations 5
DILUPBiCGStab:  Solving for Uy, Initial residual = 0.00455725, Final residual = 9.17069e-06, No Iterations 5
DILUPBiCGStab:  Solving for Uz, Initial residual = 0.0115539, Final residual = 3.5779e-05, No Iterations 5
linear solve U 255551
[OGL LOG] init_preconditioner : 0 ms
[OGL LOG] solve : 140 ms
BJcudaGKOCG:  Solving for p, Initial residual = 0.0613604, Final residual = 9.94243e-07, No Iterations 262
linear solve p 148596
time step continuity errors : sum local = 2.46785e-07, global = -4.33467e-21, cumulative = 2.05896e-20
[OGL LOG] init_preconditioner : 0 ms
[OGL LOG] solve : 136 ms
BJcudaGKOCG:  Solving for p, Initial residual = 0.04949, Final residual = 9.21665e-07, No Iterations 254
linear solve p 144719
time step continuity errors : sum local = 2.46674e-07, global = -8.77209e-21, cumulative = 1.18175e-20
ExecutionTime = 10.08 s  ClockTime = 10 s

Time = 0.0107692

Courant Number mean: 0.180428 max: 0.949219
DILUPBiCGStab:  Solving for Ux, Initial residual = 0.00140674, Final residual = 4.23223e-06, No Iterations 5
DILUPBiCGStab:  Solving for Uy, Initial residual = 0.00391319, Final residual = 6.18797e-06, No Iterations 5
DILUPBiCGStab:  Solving for Uz, Initial residual = 0.00900427, Final residual = 2.49522e-05, No Iterations 5
linear solve U 263024
[OGL LOG] init_preconditioner : 0 ms
[OGL LOG] solve : 220 ms
BJcudaGKOCG:  Solving for p, Initial residual = 0.0453715, Final residual = 9.73969e-07, No Iterations 419
linear solve p 229094
time step continuity errors : sum local = 2.46694e-07, global = -1.15382e-20, cumulative = 2.79334e-22
[OGL LOG] init_preconditioner : 0 ms
[OGL LOG] solve : 220 ms
BJcudaGKOCG:  Solving for p, Initial residual = 0.0363195, Final residual = 9.72658e-07, No Iterations 418
linear solve p 228808
time step continuity errors : sum local = 2.46654e-07, global = 2.96985e-20, cumulative = 2.99779e-20
ExecutionTime = 10.96 s  ClockTime = 11 s

Time = 0.0123077

Courant Number mean: 0.181475 max: 0.949601
DILUPBiCGStab:  Solving for Ux, Initial residual = 0.00121892, Final residual = 3.14099e-06, No Iterations 5
DILUPBiCGStab:  Solving for Uy, Initial residual = 0.00346976, Final residual = 4.46604e-06, No Iterations 5
DILUPBiCGStab:  Solving for Uz, Initial residual = 0.00774245, Final residual = 1.96838e-05, No Iterations 5
linear solve U 253023
[OGL LOG] init_preconditioner : 0 ms
[OGL LOG] solve : 220 ms
BJcudaGKOCG:  Solving for p, Initial residual = 0.0338704, Final residual = 9.5013e-07, No Iterations 415
linear solve p 228739
time step continuity errors : sum local = 2.46639e-07, global = 7.19106e-21, cumulative = 3.71689e-20
[OGL LOG] init_preconditioner : 0 ms
[OGL LOG] solve : 220 ms
BJcudaGKOCG:  Solving for p, Initial residual = 0.0272761, Final residual = 9.43266e-07, No Iterations 414
linear solve p 228786
time step continuity errors : sum local = 2.46631e-07, global = 2.84213e-20, cumulative = 6.55902e-20
ExecutionTime = 11.84 s  ClockTime = 12 s

Time = 0.0138462

Courant Number mean: 0.182418 max: 0.949852
DILUPBiCGStab:  Solving for Ux, Initial residual = 0.00108408, Final residual = 2.39117e-06, No Iterations 5
DILUPBiCGStab:  Solving for Uy, Initial residual = 0.00306005, Final residual = 3.28798e-06, No Iterations 5
DILUPBiCGStab:  Solving for Uz, Initial residual = 0.00642631, Final residual = 1.61899e-05, No Iterations 5
linear solve U 256687
[OGL LOG] init_preconditioner : 0 ms
[OGL LOG] solve : 210 ms
BJcudaGKOCG:  Solving for p, Initial residual = 0.0254822, Final residual = 9.87472e-07, No Iterations 397
linear solve p 219278
time step continuity errors : sum local = 2.46651e-07, global = 6.73751e-21, cumulative = 7.23277e-20
[OGL LOG] init_preconditioner : 0 ms
[OGL LOG] solve : 209 ms
BJcudaGKOCG:  Solving for p, Initial residual = 0.0203981, Final residual = 9.88053e-07, No Iterations 396
linear solve p 218505
time step continuity errors : sum local = 2.4665e-07, global = -4.47733e-20, cumulative = 2.75544e-20
ExecutionTime = 12.69 s  ClockTime = 13 s

Time = 0.0153846

Courant Number mean: 0.183267 max: 0.95014
DILUPBiCGStab:  Solving for Ux, Initial residual = 0.000958916, Final residual = 1.63995e-06, No Iterations 5
DILUPBiCGStab:  Solving for Uy, Initial residual = 0.0027478, Final residual = 2.32635e-06, No Iterations 5
DILUPBiCGStab:  Solving for Uz, Initial residual = 0.00562844, Final residual = 1.25962e-05, No Iterations 5
linear solve U 252001
[OGL LOG] init_preconditioner : 0 ms
[OGL LOG] solve : 211 ms
BJcudaGKOCG:  Solving for p, Initial residual = 0.0193245, Final residual = 9.68688e-07, No Iterations 394
linear solve p 220002
time step continuity errors : sum local = 2.4664e-07, global = 2.80786e-20, cumulative = 5.5633e-20
[OGL LOG] init_preconditioner : 0 ms
[OGL LOG] solve : 207 ms
BJcudaGKOCG:  Solving for p, Initial residual = 0.0156203, Final residual = 9.76353e-07, No Iterations 393
linear solve p 215755
time step continuity errors : sum local = 2.4664e-07, global = 1.9402e-20, cumulative = 7.5035e-20
ExecutionTime = 13.54 s  ClockTime = 14 s

End

