/*---------------------------------------------------------------------------*\
  =========                 |
  \\      /  F ield         | OpenFOAM: The Open Source CFD Toolbox
   \\    /   O peration     | Website:  https://openfoam.org
    \\  /    A nd           | Version:  8
     \\/     M anipulation  |
\*---------------------------------------------------------------------------*/
Build  : 8-ef60d22ea792
Exec   : icoFoam
Date   : Sep 15 2021
Time   : 14:32:12
Host   : "uc2n438.localdomain"
PID    : 3551048
I/O    : uncollated
Case   : /pfs/data5/home/kit/scc/nq7776/data/code/OBR/lidDrivenCavity3D/Variation_init/100/Variation_mesh/50/Variation_matrix_solver/BiCGStab_NoPrecond_Serial/1631709125
nProcs : 1
sigFpe : Enabling floating point exception trapping (FOAM_SIGFPE).
fileModificationChecking : Monitoring run-time modified files using timeStampMaster (fileModificationSkew 10)
allowSystemOperations : Allowing user-supplied system call operations

// * * * * * * * * * * * * * * * * * * * * * * * * * * * * * * * * * * * * * //
Create time

Create mesh for time = 0

Reading transportProperties

Reading field p

Reading field U

Reading/calculating face flux field phi


Starting time loop

Time = 0.002

Courant Number mean: 0.171832 max: 0.950949
DILUPBiCGStab:  Solving for Ux, Initial residual = 0.170437, Final residual = 6.82397e-05, No Iterations 5
DILUPBiCGStab:  Solving for Uy, Initial residual = 0.34992, Final residual = 0.000142663, No Iterations 5
DILUPBiCGStab:  Solving for Uz, Initial residual = 0.557699, Final residual = 0.000189983, No Iterations 5
linear solve U 116903
nonePBiCGStab:  Solving for p, Initial residual = 0.678275, Final residual = 8.64169e-07, No Iterations 366
linear solve p 1095658
time step continuity errors : sum local = 5.1909e-09, global = 5.5381e-21, cumulative = 5.5381e-21
nonePBiCGStab:  Solving for p, Initial residual = 0.413586, Final residual = 5.03116e-07, No Iterations 365
linear solve p 1102651
time step continuity errors : sum local = 1.54697e-09, global = -4.8567e-20, cumulative = -4.30289e-20
ExecutionTime = 2.95 s  ClockTime = 3 s

Time = 0.004

Courant Number mean: 0.174856 max: 0.932415
DILUPBiCGStab:  Solving for Ux, Initial residual = 0.0115955, Final residual = 2.67474e-05, No Iterations 5
DILUPBiCGStab:  Solving for Uy, Initial residual = 0.0268844, Final residual = 4.92388e-05, No Iterations 5
DILUPBiCGStab:  Solving for Uz, Initial residual = 0.112854, Final residual = 0.000158086, No Iterations 5
linear solve U 104864
nonePBiCGStab:  Solving for p, Initial residual = 0.327315, Final residual = 9.23278e-07, No Iterations 344
linear solve p 1032648
time step continuity errors : sum local = 2.63752e-09, global = 6.28888e-21, cumulative = -3.674e-20
nonePBiCGStab:  Solving for p, Initial residual = 0.243032, Final residual = 9.14834e-07, No Iterations 341
linear solve p 1023353
time step continuity errors : sum local = 2.49117e-09, global = 2.08274e-20, cumulative = -1.59126e-20
ExecutionTime = 5.17 s  ClockTime = 5 s

Time = 0.006

Courant Number mean: 0.176823 max: 0.934846
DILUPBiCGStab:  Solving for Ux, Initial residual = 0.00529473, Final residual = 9.85168e-06, No Iterations 5
DILUPBiCGStab:  Solving for Uy, Initial residual = 0.0102204, Final residual = 2.29738e-05, No Iterations 5
DILUPBiCGStab:  Solving for Uz, Initial residual = 0.0484501, Final residual = 7.68527e-05, No Iterations 5
linear solve U 105747
nonePBiCGStab:  Solving for p, Initial residual = 0.17443, Final residual = 6.69396e-07, No Iterations 343
linear solve p 1028547
time step continuity errors : sum local = 1.65252e-09, global = 1.74407e-20, cumulative = 1.52813e-21
nonePBiCGStab:  Solving for p, Initial residual = 0.133063, Final residual = 3.76429e-07, No Iterations 342
linear solve p 1024150
time step continuity errors : sum local = 9.2846e-10, global = 3.03434e-20, cumulative = 3.18716e-20
ExecutionTime = 7.39 s  ClockTime = 7 s

Time = 0.008

Courant Number mean: 0.178238 max: 0.933359
DILUPBiCGStab:  Solving for Ux, Initial residual = 0.00289727, Final residual = 5.56879e-06, No Iterations 5
DILUPBiCGStab:  Solving for Uy, Initial residual = 0.00785899, Final residual = 1.00871e-05, No Iterations 5
DILUPBiCGStab:  Solving for Uz, Initial residual = 0.0260492, Final residual = 3.95501e-05, No Iterations 5
linear solve U 105357
nonePBiCGStab:  Solving for p, Initial residual = 0.105331, Final residual = 9.13413e-07, No Iterations 334
linear solve p 998349
time step continuity errors : sum local = 2.11081e-09, global = 4.45922e-21, cumulative = 3.63308e-20
nonePBiCGStab:  Solving for p, Initial residual = 0.0812437, Final residual = 9.93503e-07, No Iterations 332
linear solve p 995277
time step continuity errors : sum local = 2.28108e-09, global = -2.35207e-20, cumulative = 1.28101e-20
ExecutionTime = 9.54 s  ClockTime = 9 s

Time = 0.01

Courant Number mean: 0.179753 max: 0.9341
DILUPBiCGStab:  Solving for Ux, Initial residual = 0.00227079, Final residual = 4.01411e-06, No Iterations 5
DILUPBiCGStab:  Solving for Uy, Initial residual = 0.00527154, Final residual = 5.87768e-06, No Iterations 5
DILUPBiCGStab:  Solving for Uz, Initial residual = 0.0148534, Final residual = 2.08457e-05, No Iterations 5
linear solve U 104063
nonePBiCGStab:  Solving for p, Initial residual = 0.0676396, Final residual = 9.4449e-07, No Iterations 325
linear solve p 974317
time step continuity errors : sum local = 2.14615e-09, global = -1.17548e-20, cumulative = 1.0553e-21
nonePBiCGStab:  Solving for p, Initial residual = 0.0517311, Final residual = 7.48091e-07, No Iterations 145
linear solve p 436611
time step continuity errors : sum local = 1.12999e-09, global = -1.46352e-20, cumulative = -1.35799e-20
ExecutionTime = 11.12 s  ClockTime = 11 s

Time = 0.012

Courant Number mean: 0.181051 max: 0.934596
DILUPBiCGStab:  Solving for Ux, Initial residual = 0.00175635, Final residual = 1.90581e-06, No Iterations 5
DILUPBiCGStab:  Solving for Uy, Initial residual = 0.00453144, Final residual = 4.02045e-06, No Iterations 5
DILUPBiCGStab:  Solving for Uz, Initial residual = 0.0115873, Final residual = 1.25779e-05, No Iterations 5
linear solve U 105285
nonePBiCGStab:  Solving for p, Initial residual = 0.0447021, Final residual = 8.61114e-07, No Iterations 302
linear solve p 906158
time step continuity errors : sum local = 1.9229e-09, global = 2.04087e-21, cumulative = -1.1539e-20
nonePBiCGStab:  Solving for p, Initial residual = 0.0343959, Final residual = 8.42297e-07, No Iterations 301
linear solve p 899592
time step continuity errors : sum local = 1.87748e-09, global = 4.57581e-20, cumulative = 3.4219e-20
ExecutionTime = 13.09 s  ClockTime = 13 s

Time = 0.014

Courant Number mean: 0.182225 max: 0.93496
DILUPBiCGStab:  Solving for Ux, Initial residual = 0.00149019, Final residual = 9.93412e-07, No Iterations 5
DILUPBiCGStab:  Solving for Uy, Initial residual = 0.00374154, Final residual = 1.80499e-06, No Iterations 5
DILUPBiCGStab:  Solving for Uz, Initial residual = 0.00817765, Final residual = 8.53429e-06, No Iterations 5
linear solve U 107317
nonePBiCGStab:  Solving for p, Initial residual = 0.030382, Final residual = 9.93445e-07, No Iterations 309
linear solve p 926357
time step continuity errors : sum local = 2.12037e-09, global = -1.67103e-20, cumulative = 1.75087e-20
nonePBiCGStab:  Solving for p, Initial residual = 0.0232973, Final residual = 9.95466e-07, No Iterations 137
linear solve p 414936
time step continuity errors : sum local = 1.47344e-09, global = -5.2237e-20, cumulative = -3.47283e-20
ExecutionTime = 14.6 s  ClockTime = 14 s

Time = 0.016

Courant Number mean: 0.183255 max: 0.935382
DILUPBiCGStab:  Solving for Ux, Initial residual = 0.0012526, Final residual = 4.13653e-07, No Iterations 5
DILUPBiCGStab:  Solving for Uy, Initial residual = 0.00326576, Final residual = 1.01615e-06, No Iterations 5
DILUPBiCGStab:  Solving for Uz, Initial residual = 0.00695607, Final residual = 6.28466e-06, No Iterations 5
linear solve U 105395
nonePBiCGStab:  Solving for p, Initial residual = 0.020735, Final residual = 8.84785e-07, No Iterations 287
linear solve p 859475
time step continuity errors : sum local = 1.9554e-09, global = -9.31583e-22, cumulative = -3.56598e-20
nonePBiCGStab:  Solving for p, Initial residual = 0.016063, Final residual = 9.82046e-07, No Iterations 292
linear solve p 879156
time step continuity errors : sum local = 1.6407e-09, global = 6.08833e-21, cumulative = -2.95715e-20
ExecutionTime = 16.5 s  ClockTime = 16 s

Time = 0.018

Courant Number mean: 0.184168 max: 0.935681
DILUPBiCGStab:  Solving for Ux, Initial residual = 0.00108025, Final residual = 3.3222e-07, No Iterations 5
DILUPBiCGStab:  Solving for Uy, Initial residual = 0.00281738, Final residual = 1.04805e-06, No Iterations 5
DILUPBiCGStab:  Solving for Uz, Initial residual = 0.00553609, Final residual = 4.80032e-06, No Iterations 5
linear solve U 105003
nonePBiCGStab:  Solving for p, Initial residual = 0.0145, Final residual = 7.89976e-07, No Iterations 287
linear solve p 862643
time step continuity errors : sum local = 1.641e-09, global = -2.85193e-20, cumulative = -5.80909e-20
nonePBiCGStab:  Solving for p, Initial residual = 0.0112453, Final residual = 9.83158e-07, No Iterations 131
linear solve p 394855
time step continuity errors : sum local = 1.80862e-09, global = -1.2386e-20, cumulative = -7.04769e-20
ExecutionTime = 17.93 s  ClockTime = 18 s

Time = 0.02

Courant Number mean: 0.184973 max: 0.935987
DILUPBiCGStab:  Solving for Ux, Initial residual = 0.000929746, Final residual = 1.85643e-07, No Iterations 5
DILUPBiCGStab:  Solving for Uy, Initial residual = 0.00248329, Final residual = 5.76783e-07, No Iterations 5
DILUPBiCGStab:  Solving for Uz, Initial residual = 0.00483972, Final residual = 3.51761e-06, No Iterations 5
linear solve U 104301
nonePBiCGStab:  Solving for p, Initial residual = 0.0102183, Final residual = 8.80128e-07, No Iterations 285
linear solve p 855301
time step continuity errors : sum local = 1.33178e-09, global = 6.06433e-20, cumulative = -9.83363e-21
nonePBiCGStab:  Solving for p, Initial residual = 0.00807225, Final residual = 9.65888e-07, No Iterations 276
linear solve p 825904
time step continuity errors : sum local = 2.12772e-09, global = -6.40018e-20, cumulative = -7.38354e-20
ExecutionTime = 19.78 s  ClockTime = 20 s

End

