/*---------------------------------------------------------------------------*\
  =========                 |
  \\      /  F ield         | OpenFOAM: The Open Source CFD Toolbox
   \\    /   O peration     | Website:  https://openfoam.org
    \\  /    A nd           | Version:  8
     \\/     M anipulation  |
\*---------------------------------------------------------------------------*/
Build  : 8-ef60d22ea792
Exec   : icoFoam
Date   : Sep 15 2021
Time   : 13:59:51
Host   : "uc2n482.localdomain"
PID    : 3638757
I/O    : uncollated
Case   : /pfs/data5/home/kit/scc/nq7776/data/code/OBR/lidDrivenCavity3D/Variation_init/100/Variation_mesh/95/Variation_matrix_solver/CG_ILU_CUDA/1631707152
nProcs : 1
sigFpe : Enabling floating point exception trapping (FOAM_SIGFPE).
fileModificationChecking : Monitoring run-time modified files using timeStampMaster (fileModificationSkew 10)
allowSystemOperations : Allowing user-supplied system call operations

// * * * * * * * * * * * * * * * * * * * * * * * * * * * * * * * * * * * * * //
Create time

Create mesh for time = 0

Reading transportProperties

Reading field p

Reading field U

Reading/calculating face flux field phi


Starting time loop

Time = 0.00105263

Courant Number mean: 0.170953 max: 0.961002
DILUPBiCGStab:  Solving for Ux, Initial residual = 0.0461445, Final residual = 0.000180416, No Iterations 5
DILUPBiCGStab:  Solving for Uy, Initial residual = 0.0921486, Final residual = 0.000510127, No Iterations 5
DILUPBiCGStab:  Solving for Uz, Initial residual = 0.140517, Final residual = 0.000914824, No Iterations 5
linear solve U 932367
[OGL LOG] init_host_sparsity_pattern : 252 ms
[OGL LOG] matrix not stored update host matrix
[OGL LOG] update_host_mtx : 138 ms
[OGL LOG] matrix is not yet sorted, compute sorting idxs
[OGL LOG] compute_sort : 8058 ms
[OGL LOG] matrix is not yet sorted, sorting host matrix
[OGL LOG] sort_host_mtx_sparsity_pattern : 178 ms
[OGL LOG] sort_host_mtx : 104 ms
[OGL LOG] init_preconditioner : 353 ms
[OGL LOG] solve : 1751 ms
ILUcudaGKOCG:  Solving for p, Initial residual = 0.555784, Final residual = 9.0354e-07, No Iterations 253
linear solve p 11667256
time step continuity errors : sum local = 5.41975e-10, global = -4.4311e-21, cumulative = -4.4311e-21
[OGL LOG] init_preconditioner : 0 ms
[OGL LOG] solve : 1740 ms
ILUcudaGKOCG:  Solving for p, Initial residual = 0.409115, Final residual = 9.43287e-07, No Iterations 252
linear solve p 1772934
time step continuity errors : sum local = 5.59316e-10, global = 1.285e-20, cumulative = 8.41891e-21
ExecutionTime = 18.88 s  ClockTime = 19 s

Time = 0.00210526

Courant Number mean: 0.172907 max: 0.963527
DILUPBiCGStab:  Solving for Ux, Initial residual = 0.0057989, Final residual = 0.000102249, No Iterations 5
DILUPBiCGStab:  Solving for Uy, Initial residual = 0.0179524, Final residual = 0.000259399, No Iterations 5
DILUPBiCGStab:  Solving for Uz, Initial residual = 0.0487242, Final residual = 0.000750916, No Iterations 5
linear solve U 866965
[OGL LOG] init_preconditioner : 0 ms
[OGL LOG] solve : 1753 ms
ILUcudaGKOCG:  Solving for p, Initial residual = 0.503488, Final residual = 9.18253e-07, No Iterations 254
linear solve p 1782272
time step continuity errors : sum local = 4.67693e-08, global = 9.89515e-21, cumulative = 1.83141e-20
[OGL LOG] init_preconditioner : 0 ms
[OGL LOG] solve : 1747 ms
ILUcudaGKOCG:  Solving for p, Initial residual = 0.458977, Final residual = 9.17606e-07, No Iterations 253
linear solve p 1776143
time step continuity errors : sum local = 4.01307e-08, global = 1.83163e-21, cumulative = 2.01457e-20
ExecutionTime = 23.85 s  ClockTime = 24 s

Time = 0.00315789

Courant Number mean: 0.174172 max: 0.964644
DILUPBiCGStab:  Solving for Ux, Initial residual = 0.00445245, Final residual = 6.52289e-05, No Iterations 5
DILUPBiCGStab:  Solving for Uy, Initial residual = 0.012065, Final residual = 0.000168355, No Iterations 5
DILUPBiCGStab:  Solving for Uz, Initial residual = 0.0401152, Final residual = 0.000539585, No Iterations 5
linear solve U 845494
[OGL LOG] init_preconditioner : 0 ms
[OGL LOG] solve : 1755 ms
ILUcudaGKOCG:  Solving for p, Initial residual = 0.41668, Final residual = 9.4034e-07, No Iterations 254
linear solve p 1784942
time step continuity errors : sum local = 4.34127e-08, global = 1.71338e-21, cumulative = 2.18591e-20
[OGL LOG] init_preconditioner : 0 ms
[OGL LOG] solve : 1748 ms
ILUcudaGKOCG:  Solving for p, Initial residual = 0.362937, Final residual = 9.30876e-07, No Iterations 253
linear solve p 1775413
time step continuity errors : sum local = 3.97933e-08, global = 1.31313e-20, cumulative = 3.49904e-20
ExecutionTime = 28.79 s  ClockTime = 29 s

Time = 0.00421053

Courant Number mean: 0.175231 max: 0.964262
DILUPBiCGStab:  Solving for Ux, Initial residual = 0.00304048, Final residual = 4.39378e-05, No Iterations 5
DILUPBiCGStab:  Solving for Uy, Initial residual = 0.0100843, Final residual = 0.000118354, No Iterations 5
DILUPBiCGStab:  Solving for Uz, Initial residual = 0.0379147, Final residual = 0.000583587, No Iterations 5
linear solve U 852456
[OGL LOG] init_preconditioner : 0 ms
[OGL LOG] solve : 1749 ms
ILUcudaGKOCG:  Solving for p, Initial residual = 0.363931, Final residual = 9.47512e-07, No Iterations 253
linear solve p 1777893
time step continuity errors : sum local = 4.11796e-08, global = -2.40869e-20, cumulative = 1.09035e-20
[OGL LOG] init_preconditioner : 0 ms
[OGL LOG] solve : 1741 ms
ILUcudaGKOCG:  Solving for p, Initial residual = 0.315842, Final residual = 9.63121e-07, No Iterations 252
linear solve p 1769960
time step continuity errors : sum local = 3.99927e-08, global = -4.34291e-21, cumulative = 6.56056e-21
ExecutionTime = 33.71 s  ClockTime = 34 s

Time = 0.00526316

Courant Number mean: 0.176336 max: 0.964276
DILUPBiCGStab:  Solving for Ux, Initial residual = 0.0025878, Final residual = 2.67225e-05, No Iterations 5
DILUPBiCGStab:  Solving for Uy, Initial residual = 0.00746162, Final residual = 8.17534e-05, No Iterations 5
DILUPBiCGStab:  Solving for Uz, Initial residual = 0.0329229, Final residual = 0.000512662, No Iterations 5
linear solve U 854346
[OGL LOG] init_preconditioner : 0 ms
[OGL LOG] solve : 1740 ms
ILUcudaGKOCG:  Solving for p, Initial residual = 0.312116, Final residual = 9.11553e-07, No Iterations 252
linear solve p 1766901
time step continuity errors : sum local = 4.0738e-08, global = -1.21477e-20, cumulative = -5.58717e-21
[OGL LOG] init_preconditioner : 0 ms
[OGL LOG] solve : 1734 ms
ILUcudaGKOCG:  Solving for p, Initial residual = 0.265286, Final residual = 9.61282e-07, No Iterations 251
linear solve p 1764213
time step continuity errors : sum local = 3.98044e-08, global = 5.20069e-21, cumulative = -3.86473e-22
ExecutionTime = 38.6 s  ClockTime = 39 s

Time = 0.00631579

Courant Number mean: 0.177349 max: 0.964727
DILUPBiCGStab:  Solving for Ux, Initial residual = 0.00207791, Final residual = 1.8352e-05, No Iterations 5
DILUPBiCGStab:  Solving for Uy, Initial residual = 0.00661448, Final residual = 5.4786e-05, No Iterations 5
DILUPBiCGStab:  Solving for Uz, Initial residual = 0.0282997, Final residual = 0.000462608, No Iterations 5
linear solve U 848812
[OGL LOG] init_preconditioner : 0 ms
[OGL LOG] solve : 1727 ms
ILUcudaGKOCG:  Solving for p, Initial residual = 0.277544, Final residual = 9.11622e-07, No Iterations 250
linear solve p 1753730
time step continuity errors : sum local = 4.03028e-08, global = 2.62966e-20, cumulative = 2.59102e-20
[OGL LOG] init_preconditioner : 0 ms
[OGL LOG] solve : 1721 ms
ILUcudaGKOCG:  Solving for p, Initial residual = 0.236131, Final residual = 9.38195e-07, No Iterations 249
linear solve p 1748222
time step continuity errors : sum local = 3.99013e-08, global = -1.83991e-20, cumulative = 7.51103e-21
ExecutionTime = 43.47 s  ClockTime = 43 s

Time = 0.00736842

Courant Number mean: 0.178317 max: 0.96464
DILUPBiCGStab:  Solving for Ux, Initial residual = 0.00183606, Final residual = 1.33688e-05, No Iterations 5
DILUPBiCGStab:  Solving for Uy, Initial residual = 0.0054941, Final residual = 3.92327e-05, No Iterations 5
DILUPBiCGStab:  Solving for Uz, Initial residual = 0.0240653, Final residual = 0.000400188, No Iterations 5
linear solve U 852972
[OGL LOG] init_preconditioner : 0 ms
[OGL LOG] solve : 1725 ms
ILUcudaGKOCG:  Solving for p, Initial residual = 0.238906, Final residual = 8.60998e-07, No Iterations 249
linear solve p 1757319
time step continuity errors : sum local = 4.00671e-08, global = 1.78049e-20, cumulative = 2.5316e-20
[OGL LOG] init_preconditioner : 0 ms
[OGL LOG] solve : 1707 ms
ILUcudaGKOCG:  Solving for p, Initial residual = 0.200874, Final residual = 9.24622e-07, No Iterations 248
linear solve p 1739994
time step continuity errors : sum local = 3.97904e-08, global = 2.02175e-20, cumulative = 4.55335e-20
ExecutionTime = 48.44 s  ClockTime = 48 s

Time = 0.00842105

Courant Number mean: 0.179217 max: 0.96507
DILUPBiCGStab:  Solving for Ux, Initial residual = 0.00158208, Final residual = 1.00617e-05, No Iterations 5
DILUPBiCGStab:  Solving for Uy, Initial residual = 0.00491133, Final residual = 2.8989e-05, No Iterations 5
DILUPBiCGStab:  Solving for Uz, Initial residual = 0.0201126, Final residual = 0.000347256, No Iterations 5
linear solve U 868815
[OGL LOG] init_preconditioner : 0 ms
[OGL LOG] solve : 1709 ms
ILUcudaGKOCG:  Solving for p, Initial residual = 0.213067, Final residual = 9.65789e-07, No Iterations 247
linear solve p 1740946
time step continuity errors : sum local = 4.00997e-08, global = -1.26732e-20, cumulative = 3.28603e-20
[OGL LOG] init_preconditioner : 0 ms
[OGL LOG] solve : 1705 ms
ILUcudaGKOCG:  Solving for p, Initial residual = 0.179427, Final residual = 8.88248e-07, No Iterations 247
linear solve p 1737407
time step continuity errors : sum local = 3.98432e-08, global = -2.32326e-20, cumulative = 9.62771e-21
ExecutionTime = 53.45 s  ClockTime = 53 s

Time = 0.00947368

Courant Number mean: 0.180056 max: 0.965049
DILUPBiCGStab:  Solving for Ux, Initial residual = 0.00140545, Final residual = 8.05929e-06, No Iterations 5
DILUPBiCGStab:  Solving for Uy, Initial residual = 0.00428035, Final residual = 2.17268e-05, No Iterations 5
DILUPBiCGStab:  Solving for Uz, Initial residual = 0.0170699, Final residual = 0.000288362, No Iterations 5
linear solve U 853017
[OGL LOG] init_preconditioner : 0 ms
[OGL LOG] solve : 1704 ms
ILUcudaGKOCG:  Solving for p, Initial residual = 0.183708, Final residual = 8.75945e-07, No Iterations 246
linear solve p 1735424
time step continuity errors : sum local = 3.989e-08, global = -1.36148e-20, cumulative = -3.98709e-21
[OGL LOG] init_preconditioner : 0 ms
[OGL LOG] solve : 1695 ms
ILUcudaGKOCG:  Solving for p, Initial residual = 0.153458, Final residual = 9.46401e-07, No Iterations 245
linear solve p 1724954
time step continuity errors : sum local = 3.9795e-08, global = -9.6752e-21, cumulative = -1.36623e-20
ExecutionTime = 58.35 s  ClockTime = 58 s

Time = 0.0105263

Courant Number mean: 0.180839 max: 0.965378
DILUPBiCGStab:  Solving for Ux, Initial residual = 0.00124833, Final residual = 6.53037e-06, No Iterations 5
DILUPBiCGStab:  Solving for Uy, Initial residual = 0.00384669, Final residual = 1.73169e-05, No Iterations 5
DILUPBiCGStab:  Solving for Uz, Initial residual = 0.0143268, Final residual = 0.00024924, No Iterations 5
linear solve U 852448
[OGL LOG] init_preconditioner : 0 ms
[OGL LOG] solve : 1693 ms
ILUcudaGKOCG:  Solving for p, Initial residual = 0.16328, Final residual = 9.27624e-07, No Iterations 245
linear solve p 1724051
time step continuity errors : sum local = 3.99775e-08, global = -1.2897e-20, cumulative = -2.65593e-20
[OGL LOG] init_preconditioner : 0 ms
[OGL LOG] solve : 1695 ms
ILUcudaGKOCG:  Solving for p, Initial residual = 0.136562, Final residual = 8.40521e-07, No Iterations 245
linear solve p 1721850
time step continuity errors : sum local = 3.98014e-08, global = -1.08211e-20, cumulative = -3.73804e-20
ExecutionTime = 63.18 s  ClockTime = 63 s

End

