/*---------------------------------------------------------------------------*\
  =========                 |
  \\      /  F ield         | OpenFOAM: The Open Source CFD Toolbox
   \\    /   O peration     | Website:  https://openfoam.org
    \\  /    A nd           | Version:  8
     \\/     M anipulation  |
\*---------------------------------------------------------------------------*/
Build  : 8-ef60d22ea792
Exec   : icoFoam
Date   : Sep 15 2021
Time   : 14:16:38
Host   : "uc2n482.localdomain"
PID    : 3642879
I/O    : uncollated
Case   : /pfs/data5/home/kit/scc/nq7776/data/code/OBR/lidDrivenCavity3D/Variation_init/100/Variation_mesh/100/Variation_matrix_solver/CG_BJ_CUDA/Variation_maxBlockSize/4/1631708159
nProcs : 1
sigFpe : Enabling floating point exception trapping (FOAM_SIGFPE).
fileModificationChecking : Monitoring run-time modified files using timeStampMaster (fileModificationSkew 10)
allowSystemOperations : Allowing user-supplied system call operations

// * * * * * * * * * * * * * * * * * * * * * * * * * * * * * * * * * * * * * //
Create time

Create mesh for time = 0

Reading transportProperties

Reading field p

Reading field U

Reading/calculating face flux field phi


Starting time loop

Time = 0.001

Courant Number mean: 0.171005 max: 0.964718
DILUPBiCGStab:  Solving for Ux, Initial residual = 0.00221104, Final residual = 2.10455e-05, No Iterations 5
DILUPBiCGStab:  Solving for Uy, Initial residual = 0.00671465, Final residual = 5.53885e-05, No Iterations 5
DILUPBiCGStab:  Solving for Uz, Initial residual = 0.0303966, Final residual = 0.000635532, No Iterations 5
linear solve U 1104115
[OGL LOG] init_host_sparsity_pattern : 335 ms
[OGL LOG] matrix not stored update host matrix
[OGL LOG] update_host_mtx : 161 ms
[OGL LOG] matrix is not yet sorted, compute sorting idxs
[OGL LOG] compute_sort : 9604 ms
[OGL LOG] matrix is not yet sorted, sorting host matrix
[OGL LOG] sort_host_mtx_sparsity_pattern : 225 ms
[OGL LOG] sort_host_mtx : 165 ms
[OGL LOG] init_preconditioner : 130 ms
[OGL LOG] solve : 924 ms
BJcudaGKOCG:  Solving for p, Initial residual = 0.148074, Final residual = 9.84888e-07, No Iterations 713
linear solve p 12449620
time step continuity errors : sum local = 3.14717e-10, global = 3.61633e-21, cumulative = 3.61633e-21
[OGL LOG] init_preconditioner : 0 ms
[OGL LOG] solve : 917 ms
BJcudaGKOCG:  Solving for p, Initial residual = 0.126694, Final residual = 9.61046e-07, No Iterations 712
linear solve p 951027
time step continuity errors : sum local = 3.07626e-10, global = 8.02429e-21, cumulative = 1.16406e-20
ExecutionTime = 19.66 s  ClockTime = 19 s

Time = 0.002

Courant Number mean: 0.172431 max: 0.965079
DILUPBiCGStab:  Solving for Ux, Initial residual = 0.00200107, Final residual = 1.87329e-05, No Iterations 5
DILUPBiCGStab:  Solving for Uy, Initial residual = 0.00604334, Final residual = 4.75883e-05, No Iterations 5
DILUPBiCGStab:  Solving for Uz, Initial residual = 0.0264606, Final residual = 0.0005653, No Iterations 5
linear solve U 1093637
[OGL LOG] init_preconditioner : 0 ms
[OGL LOG] solve : 913 ms
BJcudaGKOCG:  Solving for p, Initial residual = 0.132747, Final residual = 9.78978e-07, No Iterations 708
linear solve p 952516
time step continuity errors : sum local = 4.05294e-08, global = 1.35079e-20, cumulative = 2.51485e-20
[OGL LOG] init_preconditioner : 0 ms
[OGL LOG] solve : 908 ms
BJcudaGKOCG:  Solving for p, Initial residual = 0.113614, Final residual = 9.99509e-07, No Iterations 706
linear solve p 943694
time step continuity errors : sum local = 4.06043e-08, global = 1.71242e-20, cumulative = 4.22727e-20
ExecutionTime = 23.33 s  ClockTime = 23 s

Time = 0.003

Courant Number mean: 0.173747 max: 0.965402
DILUPBiCGStab:  Solving for Ux, Initial residual = 0.00178539, Final residual = 1.36893e-05, No Iterations 5
DILUPBiCGStab:  Solving for Uy, Initial residual = 0.0054256, Final residual = 3.58977e-05, No Iterations 5
DILUPBiCGStab:  Solving for Uz, Initial residual = 0.0226267, Final residual = 0.000473516, No Iterations 5
linear solve U 1039553
[OGL LOG] init_preconditioner : 0 ms
[OGL LOG] solve : 911 ms
BJcudaGKOCG:  Solving for p, Initial residual = 0.115648, Final residual = 9.84098e-07, No Iterations 708
linear solve p 944401
time step continuity errors : sum local = 4.06605e-08, global = -2.25636e-20, cumulative = 1.97091e-20
[OGL LOG] init_preconditioner : 0 ms
[OGL LOG] solve : 904 ms
BJcudaGKOCG:  Solving for p, Initial residual = 0.0996552, Final residual = 9.83858e-07, No Iterations 706
linear solve p 937299
time step continuity errors : sum local = 4.06135e-08, global = -5.2246e-21, cumulative = 1.44845e-20
ExecutionTime = 26.87 s  ClockTime = 27 s

Time = 0.004

Courant Number mean: 0.174968 max: 0.965699
DILUPBiCGStab:  Solving for Ux, Initial residual = 0.00162105, Final residual = 1.17383e-05, No Iterations 5
DILUPBiCGStab:  Solving for Uy, Initial residual = 0.00491231, Final residual = 2.98292e-05, No Iterations 5
DILUPBiCGStab:  Solving for Uz, Initial residual = 0.019944, Final residual = 0.000417696, No Iterations 5
linear solve U 1084414
[OGL LOG] init_preconditioner : 0 ms
[OGL LOG] solve : 902 ms
BJcudaGKOCG:  Solving for p, Initial residual = 0.102853, Final residual = 9.88882e-07, No Iterations 699
linear solve p 936730
time step continuity errors : sum local = 4.05767e-08, global = -1.95015e-20, cumulative = -5.01698e-21
[OGL LOG] init_preconditioner : 0 ms
[OGL LOG] solve : 905 ms
BJcudaGKOCG:  Solving for p, Initial residual = 0.0887978, Final residual = 9.93584e-07, No Iterations 696
linear solve p 940111
time step continuity errors : sum local = 4.06032e-08, global = 5.73327e-21, cumulative = 7.16289e-22
ExecutionTime = 30.53 s  ClockTime = 30 s

Time = 0.005

Courant Number mean: 0.176093 max: 0.965959
DILUPBiCGStab:  Solving for Ux, Initial residual = 0.00147175, Final residual = 1.01481e-05, No Iterations 5
DILUPBiCGStab:  Solving for Uy, Initial residual = 0.004465, Final residual = 2.56133e-05, No Iterations 5
DILUPBiCGStab:  Solving for Uz, Initial residual = 0.0171706, Final residual = 0.000346343, No Iterations 5
linear solve U 1103014
[OGL LOG] init_preconditioner : 0 ms
[OGL LOG] solve : 904 ms
BJcudaGKOCG:  Solving for p, Initial residual = 0.0910048, Final residual = 9.64216e-07, No Iterations 699
linear solve p 939485
time step continuity errors : sum local = 4.06286e-08, global = 2.5799e-20, cumulative = 2.65153e-20
[OGL LOG] init_preconditioner : 0 ms
[OGL LOG] solve : 894 ms
BJcudaGKOCG:  Solving for p, Initial residual = 0.0783624, Final residual = 9.99706e-07, No Iterations 695
linear solve p 937627
time step continuity errors : sum local = 4.06112e-08, global = -2.72173e-21, cumulative = 2.37936e-20
ExecutionTime = 34.24 s  ClockTime = 34 s

Time = 0.006

Courant Number mean: 0.177137 max: 0.966208
DILUPBiCGStab:  Solving for Ux, Initial residual = 0.00134468, Final residual = 8.76469e-06, No Iterations 5
DILUPBiCGStab:  Solving for Uy, Initial residual = 0.00407362, Final residual = 2.15005e-05, No Iterations 5
DILUPBiCGStab:  Solving for Uz, Initial residual = 0.0152809, Final residual = 0.000303081, No Iterations 5
linear solve U 1076434
[OGL LOG] init_preconditioner : 0 ms
[OGL LOG] solve : 893 ms
BJcudaGKOCG:  Solving for p, Initial residual = 0.0807536, Final residual = 9.65031e-07, No Iterations 691
linear solve p 929533
time step continuity errors : sum local = 4.05741e-08, global = 2.91783e-21, cumulative = 2.67114e-20
[OGL LOG] init_preconditioner : 0 ms
[OGL LOG] solve : 892 ms
BJcudaGKOCG:  Solving for p, Initial residual = 0.0696001, Final residual = 9.79456e-07, No Iterations 689
linear solve p 925256
time step continuity errors : sum local = 4.05955e-08, global = -1.45218e-21, cumulative = 2.52592e-20
ExecutionTime = 37.92 s  ClockTime = 38 s

Time = 0.007

Courant Number mean: 0.178102 max: 0.966418
DILUPBiCGStab:  Solving for Ux, Initial residual = 0.00122639, Final residual = 7.64845e-06, No Iterations 5
DILUPBiCGStab:  Solving for Uy, Initial residual = 0.00371955, Final residual = 1.89636e-05, No Iterations 5
DILUPBiCGStab:  Solving for Uz, Initial residual = 0.0132336, Final residual = 0.000248084, No Iterations 5
linear solve U 1090965
[OGL LOG] init_preconditioner : 0 ms
[OGL LOG] solve : 884 ms
BJcudaGKOCG:  Solving for p, Initial residual = 0.0717597, Final residual = 9.70448e-07, No Iterations 690
linear solve p 919473
time step continuity errors : sum local = 4.06141e-08, global = 6.66398e-21, cumulative = 3.19232e-20
[OGL LOG] init_preconditioner : 0 ms
[OGL LOG] solve : 886 ms
BJcudaGKOCG:  Solving for p, Initial residual = 0.0617192, Final residual = 9.65731e-07, No Iterations 688
linear solve p 920689
time step continuity errors : sum local = 4.05951e-08, global = 4.47582e-23, cumulative = 3.1968e-20
ExecutionTime = 41.54 s  ClockTime = 41 s

Time = 0.008

Courant Number mean: 0.179 max: 0.966628
DILUPBiCGStab:  Solving for Ux, Initial residual = 0.00112589, Final residual = 6.62583e-06, No Iterations 5
DILUPBiCGStab:  Solving for Uy, Initial residual = 0.0034133, Final residual = 1.60711e-05, No Iterations 5
DILUPBiCGStab:  Solving for Uz, Initial residual = 0.011863, Final residual = 0.000215869, No Iterations 5
linear solve U 1069155
[OGL LOG] init_preconditioner : 0 ms
[OGL LOG] solve : 887 ms
BJcudaGKOCG:  Solving for p, Initial residual = 0.0635237, Final residual = 9.98464e-07, No Iterations 686
linear solve p 927811
time step continuity errors : sum local = 4.05881e-08, global = 7.54733e-21, cumulative = 3.95153e-20
[OGL LOG] init_preconditioner : 0 ms
[OGL LOG] solve : 880 ms
BJcudaGKOCG:  Solving for p, Initial residual = 0.0546623, Final residual = 9.57682e-07, No Iterations 685
linear solve p 913775
time step continuity errors : sum local = 4.05861e-08, global = -2.25914e-20, cumulative = 1.6924e-20
ExecutionTime = 45.1 s  ClockTime = 45 s

Time = 0.009

Courant Number mean: 0.17983 max: 0.966798
DILUPBiCGStab:  Solving for Ux, Initial residual = 0.00103086, Final residual = 5.80585e-06, No Iterations 5
DILUPBiCGStab:  Solving for Uy, Initial residual = 0.00312802, Final residual = 1.44161e-05, No Iterations 5
DILUPBiCGStab:  Solving for Uz, Initial residual = 0.0103345, Final residual = 0.000173956, No Iterations 5
linear solve U 1083689
[OGL LOG] init_preconditioner : 0 ms
[OGL LOG] solve : 877 ms
BJcudaGKOCG:  Solving for p, Initial residual = 0.0566853, Final residual = 9.77056e-07, No Iterations 683
linear solve p 908768
time step continuity errors : sum local = 4.06075e-08, global = 1.47563e-20, cumulative = 3.16803e-20
[OGL LOG] init_preconditioner : 0 ms
[OGL LOG] solve : 871 ms
BJcudaGKOCG:  Solving for p, Initial residual = 0.0487033, Final residual = 9.37173e-07, No Iterations 679
linear solve p 904038
time step continuity errors : sum local = 4.0583e-08, global = 3.02543e-21, cumulative = 3.47057e-20
ExecutionTime = 48.65 s  ClockTime = 48 s

Time = 0.01

Courant Number mean: 0.180604 max: 0.966976
DILUPBiCGStab:  Solving for Ux, Initial residual = 0.000950175, Final residual = 5.04522e-06, No Iterations 5
DILUPBiCGStab:  Solving for Uy, Initial residual = 0.00288479, Final residual = 1.23332e-05, No Iterations 5
DILUPBiCGStab:  Solving for Uz, Initial residual = 0.00931933, Final residual = 0.000151126, No Iterations 5
linear solve U 1070755
[OGL LOG] init_preconditioner : 0 ms
[OGL LOG] solve : 875 ms
BJcudaGKOCG:  Solving for p, Initial residual = 0.0500837, Final residual = 9.35356e-07, No Iterations 682
linear solve p 913543
time step continuity errors : sum local = 4.057e-08, global = -5.75233e-21, cumulative = 2.89533e-20
[OGL LOG] init_preconditioner : 0 ms
[OGL LOG] solve : 872 ms
BJcudaGKOCG:  Solving for p, Initial residual = 0.0430401, Final residual = 9.84439e-07, No Iterations 680
linear solve p 905609
time step continuity errors : sum local = 4.05924e-08, global = 2.38155e-20, cumulative = 5.27688e-20
ExecutionTime = 52.14 s  ClockTime = 52 s

End

