/*---------------------------------------------------------------------------*\
  =========                 |
  \\      /  F ield         | OpenFOAM: The Open Source CFD Toolbox
   \\    /   O peration     | Website:  https://openfoam.org
    \\  /    A nd           | Version:  8
     \\/     M anipulation  |
\*---------------------------------------------------------------------------*/
Build  : 8-ef60d22ea792
Exec   : icoFoam
Date   : Sep 15 2021
Time   : 14:18:10
Host   : "uc2n482.localdomain"
PID    : 3643100
I/O    : uncollated
Case   : /pfs/data5/home/kit/scc/nq7776/data/code/OBR/lidDrivenCavity3D/Variation_init/100/Variation_mesh/100/Variation_matrix_solver/CG_BJ_CUDA/Variation_maxBlockSize/1/1631708250
nProcs : 1
sigFpe : Enabling floating point exception trapping (FOAM_SIGFPE).
fileModificationChecking : Monitoring run-time modified files using timeStampMaster (fileModificationSkew 10)
allowSystemOperations : Allowing user-supplied system call operations

// * * * * * * * * * * * * * * * * * * * * * * * * * * * * * * * * * * * * * //
Create time

Create mesh for time = 0

Reading transportProperties

Reading field p

Reading field U

Reading/calculating face flux field phi


Starting time loop

Time = 0.001

Courant Number mean: 0.171005 max: 0.964718
DILUPBiCGStab:  Solving for Ux, Initial residual = 0.00221104, Final residual = 2.10455e-05, No Iterations 5
DILUPBiCGStab:  Solving for Uy, Initial residual = 0.00671465, Final residual = 5.53885e-05, No Iterations 5
DILUPBiCGStab:  Solving for Uz, Initial residual = 0.0303966, Final residual = 0.000635532, No Iterations 5
linear solve U 1092960
[OGL LOG] init_host_sparsity_pattern : 300 ms
[OGL LOG] matrix not stored update host matrix
[OGL LOG] update_host_mtx : 162 ms
[OGL LOG] matrix is not yet sorted, compute sorting idxs
[OGL LOG] compute_sort : 9519 ms
[OGL LOG] matrix is not yet sorted, sorting host matrix
[OGL LOG] sort_host_mtx_sparsity_pattern : 215 ms
[OGL LOG] sort_host_mtx : 133 ms
[OGL LOG] init_preconditioner : 2 ms
[OGL LOG] solve : 998 ms
BJcudaGKOCG:  Solving for p, Initial residual = 0.148074, Final residual = 9.8416e-07, No Iterations 826
linear solve p 12164396
time step continuity errors : sum local = 3.14483e-10, global = -5.05783e-21, cumulative = -5.05783e-21
[OGL LOG] init_preconditioner : 0 ms
[OGL LOG] solve : 980 ms
BJcudaGKOCG:  Solving for p, Initial residual = 0.126694, Final residual = 9.88348e-07, No Iterations 823
linear solve p 1013693
time step continuity errors : sum local = 3.16367e-10, global = 4.2158e-21, cumulative = -8.42026e-22
ExecutionTime = 19.25 s  ClockTime = 20 s

Time = 0.002

Courant Number mean: 0.172431 max: 0.965079
DILUPBiCGStab:  Solving for Ux, Initial residual = 0.00200106, Final residual = 1.87329e-05, No Iterations 5
DILUPBiCGStab:  Solving for Uy, Initial residual = 0.00604336, Final residual = 4.75883e-05, No Iterations 5
DILUPBiCGStab:  Solving for Uz, Initial residual = 0.0264607, Final residual = 0.000565303, No Iterations 5
linear solve U 1067537
[OGL LOG] init_preconditioner : 0 ms
[OGL LOG] solve : 971 ms
BJcudaGKOCG:  Solving for p, Initial residual = 0.132747, Final residual = 9.70043e-07, No Iterations 819
linear solve p 1003107
time step continuity errors : sum local = 4.05305e-08, global = 1.67057e-20, cumulative = 1.58637e-20
[OGL LOG] init_preconditioner : 0 ms
[OGL LOG] solve : 968 ms
BJcudaGKOCG:  Solving for p, Initial residual = 0.113614, Final residual = 9.93469e-07, No Iterations 815
linear solve p 1001489
time step continuity errors : sum local = 4.0604e-08, global = 2.2645e-20, cumulative = 3.85087e-20
ExecutionTime = 22.94 s  ClockTime = 23 s

Time = 0.003

Courant Number mean: 0.173747 max: 0.965402
DILUPBiCGStab:  Solving for Ux, Initial residual = 0.00178539, Final residual = 1.36893e-05, No Iterations 5
DILUPBiCGStab:  Solving for Uy, Initial residual = 0.0054256, Final residual = 3.5898e-05, No Iterations 5
DILUPBiCGStab:  Solving for Uz, Initial residual = 0.0226266, Final residual = 0.000473515, No Iterations 5
linear solve U 1010577
[OGL LOG] init_preconditioner : 0 ms
[OGL LOG] solve : 978 ms
BJcudaGKOCG:  Solving for p, Initial residual = 0.115649, Final residual = 9.89659e-07, No Iterations 817
linear solve p 1011728
time step continuity errors : sum local = 4.06639e-08, global = -1.15783e-20, cumulative = 2.69304e-20
[OGL LOG] init_preconditioner : 0 ms
[OGL LOG] solve : 969 ms
BJcudaGKOCG:  Solving for p, Initial residual = 0.0996556, Final residual = 9.73237e-07, No Iterations 815
linear solve p 1000294
time step continuity errors : sum local = 4.06104e-08, global = -4.70847e-21, cumulative = 2.22219e-20
ExecutionTime = 26.56 s  ClockTime = 27 s

Time = 0.004

Courant Number mean: 0.174968 max: 0.965699
DILUPBiCGStab:  Solving for Ux, Initial residual = 0.00162105, Final residual = 1.17383e-05, No Iterations 5
DILUPBiCGStab:  Solving for Uy, Initial residual = 0.00491231, Final residual = 2.98293e-05, No Iterations 5
DILUPBiCGStab:  Solving for Uz, Initial residual = 0.0199442, Final residual = 0.000417699, No Iterations 5
linear solve U 1009096
[OGL LOG] init_preconditioner : 0 ms
[OGL LOG] solve : 965 ms
BJcudaGKOCG:  Solving for p, Initial residual = 0.102854, Final residual = 9.82087e-07, No Iterations 806
linear solve p 998882
time step continuity errors : sum local = 4.05747e-08, global = 3.61639e-21, cumulative = 2.58383e-20
[OGL LOG] init_preconditioner : 0 ms
[OGL LOG] solve : 958 ms
BJcudaGKOCG:  Solving for p, Initial residual = 0.0887981, Final residual = 9.90547e-07, No Iterations 803
linear solve p 991986
time step continuity errors : sum local = 4.06016e-08, global = -6.43421e-21, cumulative = 1.94041e-20
ExecutionTime = 30.16 s  ClockTime = 31 s

Time = 0.005

Courant Number mean: 0.176093 max: 0.965959
DILUPBiCGStab:  Solving for Ux, Initial residual = 0.00147175, Final residual = 1.01481e-05, No Iterations 5
DILUPBiCGStab:  Solving for Uy, Initial residual = 0.004465, Final residual = 2.56139e-05, No Iterations 5
DILUPBiCGStab:  Solving for Uz, Initial residual = 0.0171706, Final residual = 0.000346344, No Iterations 5
linear solve U 1005681
[OGL LOG] init_preconditioner : 0 ms
[OGL LOG] solve : 958 ms
BJcudaGKOCG:  Solving for p, Initial residual = 0.0910051, Final residual = 9.80556e-07, No Iterations 806
linear solve p 992217
time step continuity errors : sum local = 4.06337e-08, global = -7.62283e-21, cumulative = 1.17813e-20
[OGL LOG] init_preconditioner : 0 ms
[OGL LOG] solve : 964 ms
BJcudaGKOCG:  Solving for p, Initial residual = 0.0783627, Final residual = 9.83445e-07, No Iterations 803
linear solve p 996069
time step continuity errors : sum local = 4.06069e-08, global = 1.80848e-20, cumulative = 2.9866e-20
ExecutionTime = 33.77 s  ClockTime = 34 s

Time = 0.006

Courant Number mean: 0.177137 max: 0.966208
DILUPBiCGStab:  Solving for Ux, Initial residual = 0.00134468, Final residual = 8.7647e-06, No Iterations 5
DILUPBiCGStab:  Solving for Uy, Initial residual = 0.00407363, Final residual = 2.15004e-05, No Iterations 5
DILUPBiCGStab:  Solving for Uz, Initial residual = 0.0152809, Final residual = 0.000303082, No Iterations 5
linear solve U 990044
[OGL LOG] init_preconditioner : 0 ms
[OGL LOG] solve : 956 ms
BJcudaGKOCG:  Solving for p, Initial residual = 0.0807542, Final residual = 9.38789e-07, No Iterations 798
linear solve p 987278
time step continuity errors : sum local = 4.05673e-08, global = 7.19442e-21, cumulative = 3.70604e-20
[OGL LOG] init_preconditioner : 0 ms
[OGL LOG] solve : 950 ms
BJcudaGKOCG:  Solving for p, Initial residual = 0.0696008, Final residual = 9.60839e-07, No Iterations 796
linear solve p 980840
time step continuity errors : sum local = 4.05895e-08, global = 7.7792e-21, cumulative = 4.48396e-20
ExecutionTime = 37.33 s  ClockTime = 38 s

Time = 0.007

Courant Number mean: 0.178102 max: 0.966418
DILUPBiCGStab:  Solving for Ux, Initial residual = 0.00122639, Final residual = 7.64848e-06, No Iterations 5
DILUPBiCGStab:  Solving for Uy, Initial residual = 0.00371955, Final residual = 1.89643e-05, No Iterations 5
DILUPBiCGStab:  Solving for Uz, Initial residual = 0.0132337, Final residual = 0.000248082, No Iterations 5
linear solve U 1010821
[OGL LOG] init_preconditioner : 0 ms
[OGL LOG] solve : 948 ms
BJcudaGKOCG:  Solving for p, Initial residual = 0.0717595, Final residual = 9.8766e-07, No Iterations 797
linear solve p 980647
time step continuity errors : sum local = 4.0619e-08, global = -5.9085e-21, cumulative = 3.89311e-20
[OGL LOG] init_preconditioner : 0 ms
[OGL LOG] solve : 941 ms
BJcudaGKOCG:  Solving for p, Initial residual = 0.061719, Final residual = 9.71098e-07, No Iterations 795
linear solve p 972462
time step continuity errors : sum local = 4.05972e-08, global = -7.50773e-22, cumulative = 3.81804e-20
ExecutionTime = 40.87 s  ClockTime = 41 s

Time = 0.008

Courant Number mean: 0.179 max: 0.966628
DILUPBiCGStab:  Solving for Ux, Initial residual = 0.00112589, Final residual = 6.62585e-06, No Iterations 5
DILUPBiCGStab:  Solving for Uy, Initial residual = 0.00341331, Final residual = 1.60708e-05, No Iterations 5
DILUPBiCGStab:  Solving for Uz, Initial residual = 0.0118629, Final residual = 0.000215864, No Iterations 5
linear solve U 1002382
[OGL LOG] init_preconditioner : 0 ms
[OGL LOG] solve : 946 ms
BJcudaGKOCG:  Solving for p, Initial residual = 0.0635236, Final residual = 9.56604e-07, No Iterations 793
linear solve p 979798
time step continuity errors : sum local = 4.05761e-08, global = -2.42739e-21, cumulative = 3.5753e-20
[OGL LOG] init_preconditioner : 0 ms
[OGL LOG] solve : 941 ms
BJcudaGKOCG:  Solving for p, Initial residual = 0.0546623, Final residual = 9.59734e-07, No Iterations 791
linear solve p 972058
time step continuity errors : sum local = 4.05872e-08, global = 1.73125e-21, cumulative = 3.74842e-20
ExecutionTime = 44.44 s  ClockTime = 45 s

Time = 0.009

Courant Number mean: 0.17983 max: 0.966798
DILUPBiCGStab:  Solving for Ux, Initial residual = 0.00103086, Final residual = 5.80593e-06, No Iterations 5
DILUPBiCGStab:  Solving for Uy, Initial residual = 0.00312802, Final residual = 1.44166e-05, No Iterations 5
DILUPBiCGStab:  Solving for Uz, Initial residual = 0.0103347, Final residual = 0.000173951, No Iterations 5
linear solve U 996525
[OGL LOG] init_preconditioner : 0 ms
[OGL LOG] solve : 944 ms
BJcudaGKOCG:  Solving for p, Initial residual = 0.0566847, Final residual = 9.78249e-07, No Iterations 791
linear solve p 975675
time step continuity errors : sum local = 4.06075e-08, global = 1.36123e-20, cumulative = 5.10965e-20
[OGL LOG] init_preconditioner : 0 ms
[OGL LOG] solve : 935 ms
BJcudaGKOCG:  Solving for p, Initial residual = 0.0487028, Final residual = 9.74317e-07, No Iterations 787
linear solve p 966682
time step continuity errors : sum local = 4.05936e-08, global = 1.93615e-20, cumulative = 7.0458e-20
ExecutionTime = 47.95 s  ClockTime = 48 s

Time = 0.01

Courant Number mean: 0.180604 max: 0.966976
DILUPBiCGStab:  Solving for Ux, Initial residual = 0.000950174, Final residual = 5.04528e-06, No Iterations 5
DILUPBiCGStab:  Solving for Uy, Initial residual = 0.00288482, Final residual = 1.23327e-05, No Iterations 5
DILUPBiCGStab:  Solving for Uz, Initial residual = 0.0093192, Final residual = 0.000151119, No Iterations 5
linear solve U 1000758
[OGL LOG] init_preconditioner : 0 ms
[OGL LOG] solve : 930 ms
BJcudaGKOCG:  Solving for p, Initial residual = 0.0500838, Final residual = 9.86244e-07, No Iterations 787
linear solve p 961170
time step continuity errors : sum local = 4.05856e-08, global = 2.54718e-21, cumulative = 7.30052e-20
[OGL LOG] init_preconditioner : 0 ms
[OGL LOG] solve : 939 ms
BJcudaGKOCG:  Solving for p, Initial residual = 0.0430403, Final residual = 9.23966e-07, No Iterations 786
linear solve p 971648
time step continuity errors : sum local = 4.05753e-08, global = -1.23322e-20, cumulative = 6.0673e-20
ExecutionTime = 51.49 s  ClockTime = 52 s

End

