/*---------------------------------------------------------------------------*\
  =========                 |
  \\      /  F ield         | OpenFOAM: The Open Source CFD Toolbox
   \\    /   O peration     | Website:  https://openfoam.org
    \\  /    A nd           | Version:  8
     \\/     M anipulation  |
\*---------------------------------------------------------------------------*/
Build  : 8-ef60d22ea792
Exec   : icoFoam
Date   : Sep 15 2021
Time   : 13:36:48
Host   : "uc2n482.localdomain"
PID    : 3634570
I/O    : uncollated
Case   : /pfs/data5/home/kit/scc/nq7776/data/code/OBR/lidDrivenCavity3D/Variation_init/100/Variation_mesh/25/Variation_matrix_solver/BiCGStab_BJ_CUDA/1631705805
nProcs : 1
sigFpe : Enabling floating point exception trapping (FOAM_SIGFPE).
fileModificationChecking : Monitoring run-time modified files using timeStampMaster (fileModificationSkew 10)
allowSystemOperations : Allowing user-supplied system call operations

// * * * * * * * * * * * * * * * * * * * * * * * * * * * * * * * * * * * * * //
Create time

Create mesh for time = 0

Reading transportProperties

Reading field p

Reading field U

Reading/calculating face flux field phi


Starting time loop

Time = 0.004

Courant Number mean: 0.169656 max: 0.889609
DILUPBiCGStab:  Solving for Ux, Initial residual = 0.143151, Final residual = 1.76454e-06, No Iterations 5
DILUPBiCGStab:  Solving for Uy, Initial residual = 0.204592, Final residual = 1.77082e-06, No Iterations 5
DILUPBiCGStab:  Solving for Uz, Initial residual = 0.476047, Final residual = 3.97645e-06, No Iterations 5
linear solve U 11670
[OGL LOG] init_host_sparsity_pattern : 4 ms
[OGL LOG] matrix not stored update host matrix
[OGL LOG] update_host_mtx : 2 ms
[OGL LOG] matrix is not yet sorted, compute sorting idxs
[OGL LOG] compute_sort : 111 ms
[OGL LOG] matrix is not yet sorted, sorting host matrix
[OGL LOG] sort_host_mtx_sparsity_pattern : 3 ms
[OGL LOG] sort_host_mtx : 1 ms
[OGL LOG] init_preconditioner : 2 ms
[OGL LOG] solve : 35 ms
BJcudaGKOBiCGStab:  Solving for p, Initial residual = 0.578841, Final residual = 9.23146e-07, No Iterations 131
linear solve p 920448
time step continuity errors : sum local = 7.22334e-09, global = 1.60081e-20, cumulative = 1.60081e-20
[OGL LOG] init_preconditioner : 0 ms
[OGL LOG] solve : 35 ms
BJcudaGKOBiCGStab:  Solving for p, Initial residual = 0.27554, Final residual = 8.57337e-07, No Iterations 136
linear solve p 36122
time step continuity errors : sum local = 4.01624e-09, global = 1.76158e-20, cumulative = 3.3624e-20
ExecutionTime = 1.07 s  ClockTime = 1 s

Time = 0.008

Courant Number mean: 0.173868 max: 0.868145
DILUPBiCGStab:  Solving for Ux, Initial residual = 0.0151889, Final residual = 1.22601e-06, No Iterations 5
DILUPBiCGStab:  Solving for Uy, Initial residual = 0.0247676, Final residual = 1.80796e-06, No Iterations 5
DILUPBiCGStab:  Solving for Uz, Initial residual = 0.0887877, Final residual = 3.82626e-06, No Iterations 5
linear solve U 9630
[OGL LOG] init_preconditioner : 0 ms
[OGL LOG] solve : 35 ms
BJcudaGKOBiCGStab:  Solving for p, Initial residual = 0.17531, Final residual = 7.29592e-07, No Iterations 133
linear solve p 36123
time step continuity errors : sum local = 3.28465e-06, global = -5.11793e-20, cumulative = -1.75554e-20
[OGL LOG] init_preconditioner : 0 ms
[OGL LOG] solve : 34 ms
BJcudaGKOBiCGStab:  Solving for p, Initial residual = 0.103192, Final residual = 9.60785e-07, No Iterations 133
linear solve p 35379
time step continuity errors : sum local = 3.05916e-06, global = -7.36025e-20, cumulative = -9.11579e-20
ExecutionTime = 1.15 s  ClockTime = 1 s

Time = 0.012

Courant Number mean: 0.177048 max: 0.867817
DILUPBiCGStab:  Solving for Ux, Initial residual = 0.00469188, Final residual = 2.96354e-07, No Iterations 5
DILUPBiCGStab:  Solving for Uy, Initial residual = 0.00998748, Final residual = 4.81124e-07, No Iterations 5
DILUPBiCGStab:  Solving for Uz, Initial residual = 0.0313818, Final residual = 1.53304e-06, No Iterations 5
linear solve U 9694
[OGL LOG] init_preconditioner : 0 ms
[OGL LOG] solve : 31 ms
BJcudaGKOBiCGStab:  Solving for p, Initial residual = 0.0491945, Final residual = 6.33679e-07, No Iterations 119
linear solve p 32304
time step continuity errors : sum local = 3.01817e-06, global = 4.72998e-20, cumulative = -4.3858e-20
[OGL LOG] init_preconditioner : 0 ms
[OGL LOG] solve : 30 ms
BJcudaGKOBiCGStab:  Solving for p, Initial residual = 0.0326514, Final residual = 9.22652e-07, No Iterations 114
linear solve p 30682
time step continuity errors : sum local = 3.04534e-06, global = 9.38916e-20, cumulative = 5.00336e-20
ExecutionTime = 1.24 s  ClockTime = 1 s

Time = 0.016

Courant Number mean: 0.179565 max: 0.869322
DILUPBiCGStab:  Solving for Ux, Initial residual = 0.00314069, Final residual = 1.45486e-07, No Iterations 5
DILUPBiCGStab:  Solving for Uy, Initial residual = 0.00681991, Final residual = 2.61182e-07, No Iterations 5
DILUPBiCGStab:  Solving for Uz, Initial residual = 0.0130993, Final residual = 5.60823e-07, No Iterations 5
linear solve U 9563
[OGL LOG] init_preconditioner : 0 ms
[OGL LOG] solve : 27 ms
BJcudaGKOBiCGStab:  Solving for p, Initial residual = 0.0194278, Final residual = 6.37046e-07, No Iterations 105
linear solve p 28206
time step continuity errors : sum local = 3.05055e-06, global = -4.73842e-20, cumulative = 2.64936e-21
[OGL LOG] init_preconditioner : 0 ms
[OGL LOG] solve : 27 ms
BJcudaGKOBiCGStab:  Solving for p, Initial residual = 0.0140378, Final residual = 7.49085e-07, No Iterations 103
linear solve p 28341
time step continuity errors : sum local = 3.04908e-06, global = -3.05676e-20, cumulative = -2.79183e-20
ExecutionTime = 1.3 s  ClockTime = 1 s

Time = 0.02

Courant Number mean: 0.181574 max: 0.870815
DILUPBiCGStab:  Solving for Ux, Initial residual = 0.00232653, Final residual = 9.81287e-08, No Iterations 5
DILUPBiCGStab:  Solving for Uy, Initial residual = 0.00517948, Final residual = 1.34545e-07, No Iterations 5
DILUPBiCGStab:  Solving for Uz, Initial residual = 0.00910572, Final residual = 2.68274e-07, No Iterations 5
linear solve U 9761
[OGL LOG] init_preconditioner : 0 ms
[OGL LOG] solve : 26 ms
BJcudaGKOBiCGStab:  Solving for p, Initial residual = 0.0100083, Final residual = 6.75297e-07, No Iterations 101
linear solve p 27359
time step continuity errors : sum local = 3.04525e-06, global = -6.18102e-20, cumulative = -8.97285e-20
[OGL LOG] init_preconditioner : 0 ms
[OGL LOG] solve : 27 ms
BJcudaGKOBiCGStab:  Solving for p, Initial residual = 0.00750947, Final residual = 8.97119e-07, No Iterations 104
linear solve p 27880
time step continuity errors : sum local = 3.04902e-06, global = -2.7603e-20, cumulative = -1.17332e-19
ExecutionTime = 1.38 s  ClockTime = 1 s

Time = 0.024

Courant Number mean: 0.183143 max: 0.871972
DILUPBiCGStab:  Solving for Ux, Initial residual = 0.00177563, Final residual = 5.92677e-08, No Iterations 5
DILUPBiCGStab:  Solving for Uy, Initial residual = 0.00408233, Final residual = 1.08309e-07, No Iterations 5
DILUPBiCGStab:  Solving for Uz, Initial residual = 0.0067574, Final residual = 1.9104e-07, No Iterations 5
linear solve U 9632
[OGL LOG] init_preconditioner : 0 ms
[OGL LOG] solve : 28 ms
BJcudaGKOBiCGStab:  Solving for p, Initial residual = 0.00619631, Final residual = 8.64189e-07, No Iterations 103
linear solve p 28680
time step continuity errors : sum local = 3.04741e-06, global = -7.4744e-20, cumulative = -1.92076e-19
[OGL LOG] init_preconditioner : 0 ms
[OGL LOG] solve : 28 ms
BJcudaGKOBiCGStab:  Solving for p, Initial residual = 0.00497392, Final residual = 9.51613e-07, No Iterations 105
linear solve p 28671
time step continuity errors : sum local = 3.04718e-06, global = 1.82873e-20, cumulative = -1.73788e-19
ExecutionTime = 1.45 s  ClockTime = 1 s

Time = 0.028

Courant Number mean: 0.184376 max: 0.872837
DILUPBiCGStab:  Solving for Ux, Initial residual = 0.00137868, Final residual = 4.34965e-08, No Iterations 5
DILUPBiCGStab:  Solving for Uy, Initial residual = 0.0032142, Final residual = 3.22232e-08, No Iterations 5
DILUPBiCGStab:  Solving for Uz, Initial residual = 0.00511486, Final residual = 9.39553e-08, No Iterations 5
linear solve U 9688
[OGL LOG] init_preconditioner : 0 ms
[OGL LOG] solve : 29 ms
BJcudaGKOBiCGStab:  Solving for p, Initial residual = 0.00396462, Final residual = 7.43844e-07, No Iterations 105
linear solve p 29810
time step continuity errors : sum local = 3.04527e-06, global = 7.01697e-20, cumulative = -1.03619e-19
[OGL LOG] init_preconditioner : 0 ms
[OGL LOG] solve : 29 ms
BJcudaGKOBiCGStab:  Solving for p, Initial residual = 0.00328949, Final residual = 6.31882e-07, No Iterations 107
linear solve p 29630
time step continuity errors : sum local = 3.04642e-06, global = 1.04627e-19, cumulative = 1.00823e-21
ExecutionTime = 1.53 s  ClockTime = 1 s

Time = 0.032

Courant Number mean: 0.185344 max: 0.873502
DILUPBiCGStab:  Solving for Ux, Initial residual = 0.00107787, Final residual = 2.89213e-08, No Iterations 5
DILUPBiCGStab:  Solving for Uy, Initial residual = 0.00254835, Final residual = 2.89852e-08, No Iterations 5
DILUPBiCGStab:  Solving for Uz, Initial residual = 0.00395319, Final residual = 7.91447e-08, No Iterations 5
linear solve U 9918
[OGL LOG] init_preconditioner : 0 ms
[OGL LOG] solve : 27 ms
BJcudaGKOBiCGStab:  Solving for p, Initial residual = 0.0030362, Final residual = 7.23682e-07, No Iterations 102
linear solve p 28012
time step continuity errors : sum local = 3.04642e-06, global = 1.53267e-19, cumulative = 1.54275e-19
[OGL LOG] init_preconditioner : 0 ms
[OGL LOG] solve : 27 ms
BJcudaGKOBiCGStab:  Solving for p, Initial residual = 0.00256233, Final residual = 9.73644e-07, No Iterations 101
linear solve p 27849
time step continuity errors : sum local = 3.04828e-06, global = 2.12403e-20, cumulative = 1.75515e-19
ExecutionTime = 1.6 s  ClockTime = 1 s

Time = 0.036

Courant Number mean: 0.186107 max: 0.874008
DILUPBiCGStab:  Solving for Ux, Initial residual = 0.000848105, Final residual = 2.26381e-08, No Iterations 5
DILUPBiCGStab:  Solving for Uy, Initial residual = 0.00202422, Final residual = 1.53611e-08, No Iterations 5
DILUPBiCGStab:  Solving for Uz, Initial residual = 0.00304358, Final residual = 5.73446e-08, No Iterations 5
linear solve U 10204
[OGL LOG] init_preconditioner : 0 ms
[OGL LOG] solve : 15 ms
BJcudaGKOBiCGStab:  Solving for p, Initial residual = 0.00227285, Final residual = 9.96889e-07, No Iterations 56
linear solve p 15937
time step continuity errors : sum local = 3.04983e-06, global = 1.45286e-20, cumulative = 1.90044e-19
[OGL LOG] init_preconditioner : 0 ms
[OGL LOG] solve : 12 ms
BJcudaGKOBiCGStab:  Solving for p, Initial residual = 0.00193345, Final residual = 9.58722e-07, No Iterations 44
linear solve p 12509
time step continuity errors : sum local = 3.04738e-06, global = 9.90433e-20, cumulative = 2.89087e-19
ExecutionTime = 1.65 s  ClockTime = 2 s

Time = 0.04

Courant Number mean: 0.186708 max: 0.874399
DILUPBiCGStab:  Solving for Ux, Initial residual = 0.000669361, Final residual = 1.63142e-08, No Iterations 5
DILUPBiCGStab:  Solving for Uy, Initial residual = 0.00161186, Final residual = 1.26814e-08, No Iterations 5
DILUPBiCGStab:  Solving for Uz, Initial residual = 0.00236924, Final residual = 4.33204e-08, No Iterations 5
linear solve U 9690
[OGL LOG] init_preconditioner : 0 ms
[OGL LOG] solve : 13 ms
BJcudaGKOBiCGStab:  Solving for p, Initial residual = 0.00179331, Final residual = 9.69857e-07, No Iterations 49
linear solve p 13732
time step continuity errors : sum local = 3.04976e-06, global = -1.27366e-19, cumulative = 1.61721e-19
[OGL LOG] init_preconditioner : 0 ms
[OGL LOG] solve : 13 ms
BJcudaGKOBiCGStab:  Solving for p, Initial residual = 0.00153392, Final residual = 9.92025e-07, No Iterations 51
linear solve p 14409
time step continuity errors : sum local = 3.04655e-06, global = -8.71319e-20, cumulative = 7.45893e-20
ExecutionTime = 1.69 s  ClockTime = 2 s

End

