/*---------------------------------------------------------------------------*\
  =========                 |
  \\      /  F ield         | OpenFOAM: The Open Source CFD Toolbox
   \\    /   O peration     | Website:  https://openfoam.org
    \\  /    A nd           | Version:  8
     \\/     M anipulation  |
\*---------------------------------------------------------------------------*/
Build  : 8-ef60d22ea792
Exec   : icoFoam
Date   : Sep 15 2021
Time   : 13:07:27
Host   : "uc2n438.localdomain"
PID    : 3539097
I/O    : uncollated
Case   : /pfs/data5/home/kit/scc/nq7776/data/code/OBR/lidDrivenCavity3D/Variation_init/100/Variation_mesh/15/Variation_matrix_solver/CG_DIC_Serial/1631704047
nProcs : 1
sigFpe : Enabling floating point exception trapping (FOAM_SIGFPE).
fileModificationChecking : Monitoring run-time modified files using timeStampMaster (fileModificationSkew 10)
allowSystemOperations : Allowing user-supplied system call operations

// * * * * * * * * * * * * * * * * * * * * * * * * * * * * * * * * * * * * * //
Create time

Create mesh for time = 0

Reading transportProperties

Reading field p

Reading field U

Reading/calculating face flux field phi


Starting time loop

Time = 0.00666667

Courant Number mean: 0.166422 max: 0.762393
DILUPBiCGStab:  Solving for Ux, Initial residual = 0.0879544, Final residual = 2.84443e-08, No Iterations 5
DILUPBiCGStab:  Solving for Uy, Initial residual = 0.126984, Final residual = 8.95339e-08, No Iterations 5
DILUPBiCGStab:  Solving for Uz, Initial residual = 0.181802, Final residual = 6.74481e-08, No Iterations 5
linear solve U 2998
DICPCG:  Solving for p, Initial residual = 0.516107, Final residual = 5.02952e-07, No Iterations 39
linear solve p 2849
time step continuity errors : sum local = 6.93313e-09, global = -2.13181e-19, cumulative = -2.13181e-19
DICPCG:  Solving for p, Initial residual = 0.271044, Final residual = 3.89411e-07, No Iterations 39
linear solve p 2797
time step continuity errors : sum local = 3.6958e-09, global = 3.06906e-19, cumulative = 9.3725e-20
ExecutionTime = 0.07 s  ClockTime = 1 s

Time = 0.0133333

Courant Number mean: 0.171844 max: 0.7773
DILUPBiCGStab:  Solving for Ux, Initial residual = 0.021091, Final residual = 3.34888e-08, No Iterations 5
DILUPBiCGStab:  Solving for Uy, Initial residual = 0.0294978, Final residual = 2.90928e-08, No Iterations 5
DILUPBiCGStab:  Solving for Uz, Initial residual = 0.0732071, Final residual = 9.43588e-08, No Iterations 5
linear solve U 2534
DICPCG:  Solving for p, Initial residual = 0.145366, Final residual = 5.93627e-07, No Iterations 38
linear solve p 2712
time step continuity errors : sum local = 5.90531e-09, global = -2.67903e-19, cumulative = -1.74178e-19
DICPCG:  Solving for p, Initial residual = 0.085193, Final residual = 8.44511e-07, No Iterations 37
linear solve p 2673
time step continuity errors : sum local = 8.72892e-09, global = 1.90405e-19, cumulative = 1.62278e-20
ExecutionTime = 0.08 s  ClockTime = 1 s

Time = 0.02

Courant Number mean: 0.175686 max: 0.781335
DILUPBiCGStab:  Solving for Ux, Initial residual = 0.00575258, Final residual = 1.22852e-08, No Iterations 5
DILUPBiCGStab:  Solving for Uy, Initial residual = 0.0110678, Final residual = 1.82257e-08, No Iterations 5
DILUPBiCGStab:  Solving for Uz, Initial residual = 0.0200847, Final residual = 1.31172e-08, No Iterations 5
linear solve U 2531
DICPCG:  Solving for p, Initial residual = 0.0225186, Final residual = 5.53774e-07, No Iterations 36
linear solve p 2590
time step continuity errors : sum local = 5.6402e-09, global = -1.70506e-19, cumulative = -1.54278e-19
DICPCG:  Solving for p, Initial residual = 0.0139178, Final residual = 6.55678e-07, No Iterations 35
linear solve p 2499
time step continuity errors : sum local = 6.69263e-09, global = -1.58021e-19, cumulative = -3.12299e-19
ExecutionTime = 0.09 s  ClockTime = 1 s

Time = 0.0266667

Courant Number mean: 0.178552 max: 0.784987
DILUPBiCGStab:  Solving for Ux, Initial residual = 0.00342755, Final residual = 5.11324e-09, No Iterations 5
DILUPBiCGStab:  Solving for Uy, Initial residual = 0.00658361, Final residual = 1.1383e-08, No Iterations 5
DILUPBiCGStab:  Solving for Uz, Initial residual = 0.00949629, Final residual = 9.59259e-09, No Iterations 5
linear solve U 2523
DICPCG:  Solving for p, Initial residual = 0.0101173, Final residual = 8.013e-07, No Iterations 34
linear solve p 2454
time step continuity errors : sum local = 8.16014e-09, global = -1.78326e-21, cumulative = -3.14083e-19
DICPCG:  Solving for p, Initial residual = 0.00719814, Final residual = 5.54506e-07, No Iterations 34
linear solve p 2447
time step continuity errors : sum local = 5.65195e-09, global = -2.90265e-19, cumulative = -6.04348e-19
ExecutionTime = 0.1 s  ClockTime = 1 s

Time = 0.0333333

Courant Number mean: 0.180501 max: 0.787346
DILUPBiCGStab:  Solving for Ux, Initial residual = 0.00221539, Final residual = 1.91437e-09, No Iterations 5
DILUPBiCGStab:  Solving for Uy, Initial residual = 0.00448363, Final residual = 2.89512e-09, No Iterations 5
DILUPBiCGStab:  Solving for Uz, Initial residual = 0.00629113, Final residual = 3.23012e-09, No Iterations 5
linear solve U 2552
DICPCG:  Solving for p, Initial residual = 0.00453513, Final residual = 9.24272e-07, No Iterations 31
linear solve p 2244
time step continuity errors : sum local = 9.45463e-09, global = 2.43808e-19, cumulative = -3.6054e-19
DICPCG:  Solving for p, Initial residual = 0.00321802, Final residual = 6.65768e-07, No Iterations 31
linear solve p 2269
time step continuity errors : sum local = 6.81878e-09, global = 2.03437e-19, cumulative = -1.57103e-19
ExecutionTime = 0.11 s  ClockTime = 1 s

Time = 0.04

Courant Number mean: 0.181845 max: 0.788821
DILUPBiCGStab:  Solving for Ux, Initial residual = 0.00152157, Final residual = 8.47986e-10, No Iterations 5
DILUPBiCGStab:  Solving for Uy, Initial residual = 0.00314048, Final residual = 2.02405e-09, No Iterations 5
DILUPBiCGStab:  Solving for Uz, Initial residual = 0.00421377, Final residual = 2.09031e-09, No Iterations 5
linear solve U 2528
DICPCG:  Solving for p, Initial residual = 0.00332501, Final residual = 6.20295e-07, No Iterations 31
linear solve p 2263
time step continuity errors : sum local = 6.34075e-09, global = -4.11724e-19, cumulative = -5.68827e-19
DICPCG:  Solving for p, Initial residual = 0.00243777, Final residual = 8.67839e-07, No Iterations 30
linear solve p 2178
time step continuity errors : sum local = 8.86407e-09, global = 3.53175e-19, cumulative = -2.15652e-19
ExecutionTime = 0.12 s  ClockTime = 1 s

Time = 0.0466667

Courant Number mean: 0.182778 max: 0.78982
DILUPBiCGStab:  Solving for Ux, Initial residual = 0.00104883, Final residual = 5.72212e-10, No Iterations 5
DILUPBiCGStab:  Solving for Uy, Initial residual = 0.00219905, Final residual = 1.09435e-09, No Iterations 5
DILUPBiCGStab:  Solving for Uz, Initial residual = 0.00292356, Final residual = 1.37853e-09, No Iterations 5
linear solve U 2531
DICPCG:  Solving for p, Initial residual = 0.00216691, Final residual = 8.7239e-07, No Iterations 30
linear solve p 2172
time step continuity errors : sum local = 8.91253e-09, global = 3.8545e-19, cumulative = 1.69798e-19
DICPCG:  Solving for p, Initial residual = 0.00157907, Final residual = 5.77901e-07, No Iterations 30
linear solve p 2168
time step continuity errors : sum local = 5.90787e-09, global = -1.12277e-19, cumulative = 5.75217e-20
ExecutionTime = 0.13 s  ClockTime = 1 s

Time = 0.0533333

Courant Number mean: 0.183428 max: 0.790487
DILUPBiCGStab:  Solving for Ux, Initial residual = 0.000730803, Final residual = 3.54007e-10, No Iterations 5
DILUPBiCGStab:  Solving for Uy, Initial residual = 0.00154845, Final residual = 6.38728e-10, No Iterations 5
DILUPBiCGStab:  Solving for Uz, Initial residual = 0.00201366, Final residual = 9.63675e-10, No Iterations 5
linear solve U 2531
DICPCG:  Solving for p, Initial residual = 0.00152836, Final residual = 5.81884e-07, No Iterations 30
linear solve p 2215
time step continuity errors : sum local = 5.94613e-09, global = -2.35347e-20, cumulative = 3.3987e-20
DICPCG:  Solving for p, Initial residual = 0.00111772, Final residual = 9.56157e-07, No Iterations 29
linear solve p 2113
time step continuity errors : sum local = 9.78136e-09, global = 7.04744e-20, cumulative = 1.04461e-19
ExecutionTime = 0.13 s  ClockTime = 1 s

Time = 0.06

Courant Number mean: 0.183881 max: 0.790942
DILUPBiCGStab:  Solving for Ux, Initial residual = 0.000512651, Final residual = 2.40635e-10, No Iterations 5
DILUPBiCGStab:  Solving for Uy, Initial residual = 0.00109131, Final residual = 3.82505e-10, No Iterations 5
DILUPBiCGStab:  Solving for Uz, Initial residual = 0.00138988, Final residual = 6.77971e-10, No Iterations 5
linear solve U 2528
DICPCG:  Solving for p, Initial residual = 0.00105866, Final residual = 9.5269e-07, No Iterations 29
linear solve p 2125
time step continuity errors : sum local = 9.74735e-09, global = 1.48072e-19, cumulative = 2.52534e-19
DICPCG:  Solving for p, Initial residual = 0.000774363, Final residual = 6.64491e-07, No Iterations 29
linear solve p 2029
time step continuity errors : sum local = 6.79823e-09, global = -7.93404e-20, cumulative = 1.73193e-19
ExecutionTime = 0.14 s  ClockTime = 1 s

Time = 0.0666667

Courant Number mean: 0.184198 max: 0.791252
DILUPBiCGStab:  Solving for Ux, Initial residual = 0.000360481, Final residual = 1.62784e-10, No Iterations 5
DILUPBiCGStab:  Solving for Uy, Initial residual = 0.000770426, Final residual = 2.42853e-10, No Iterations 5
DILUPBiCGStab:  Solving for Uz, Initial residual = 0.000960203, Final residual = 4.75223e-10, No Iterations 5
linear solve U 2382
DICPCG:  Solving for p, Initial residual = 0.000741448, Final residual = 6.53272e-07, No Iterations 29
linear solve p 1967
time step continuity errors : sum local = 6.68498e-09, global = 1.03999e-19, cumulative = 2.77193e-19
DICPCG:  Solving for p, Initial residual = 0.00054184, Final residual = 9.07006e-07, No Iterations 28
linear solve p 1899
time step continuity errors : sum local = 9.28861e-09, global = 5.86678e-20, cumulative = 3.3586e-19
ExecutionTime = 0.15 s  ClockTime = 1 s

End

