/*---------------------------------------------------------------------------*\
  =========                 |
  \\      /  F ield         | OpenFOAM: The Open Source CFD Toolbox
   \\    /   O peration     | Website:  https://openfoam.org
    \\  /    A nd           | Version:  8
     \\/     M anipulation  |
\*---------------------------------------------------------------------------*/
Build  : 8-ef60d22ea792
Exec   : icoFoam
Date   : Sep 15 2021
Time   : 13:27:11
Host   : "uc2n438.localdomain"
PID    : 3541866
I/O    : uncollated
Case   : /pfs/data5/home/kit/scc/nq7776/data/code/OBR/lidDrivenCavity3D/Variation_init/100/Variation_mesh/40/Variation_matrix_solver/BiCGStab_DIC_Serial/1631705229
nProcs : 1
sigFpe : Enabling floating point exception trapping (FOAM_SIGFPE).
fileModificationChecking : Monitoring run-time modified files using timeStampMaster (fileModificationSkew 10)
allowSystemOperations : Allowing user-supplied system call operations

// * * * * * * * * * * * * * * * * * * * * * * * * * * * * * * * * * * * * * //
Create time

Create mesh for time = 0

Reading transportProperties

Reading field p

Reading field U

Reading/calculating face flux field phi


Starting time loop

Time = 0.0025

Courant Number mean: 0.170274 max: 0.898977
DILUPBiCGStab:  Solving for Ux, Initial residual = 0.0777941, Final residual = 5.00153e-06, No Iterations 5
DILUPBiCGStab:  Solving for Uy, Initial residual = 0.123446, Final residual = 1.39078e-05, No Iterations 5
DILUPBiCGStab:  Solving for Uz, Initial residual = 0.127456, Final residual = 2.53141e-05, No Iterations 5
linear solve U 56242
DICPBiCGStab:  Solving for p, Initial residual = 0.406972, Final residual = 7.24117e-07, No Iterations 83
linear solve p 213850
time step continuity errors : sum local = 1.73594e-09, global = 1.99241e-20, cumulative = 1.99241e-20
DICPBiCGStab:  Solving for p, Initial residual = 0.212572, Final residual = 6.46542e-07, No Iterations 74
linear solve p 189912
time step continuity errors : sum local = 2.02065e-09, global = 2.53045e-20, cumulative = 4.52286e-20
ExecutionTime = 0.81 s  ClockTime = 1 s

Time = 0.005

Courant Number mean: 0.173472 max: 0.913614
DILUPBiCGStab:  Solving for Ux, Initial residual = 0.00786557, Final residual = 6.97733e-06, No Iterations 5
DILUPBiCGStab:  Solving for Uy, Initial residual = 0.0156858, Final residual = 1.02474e-05, No Iterations 5
DILUPBiCGStab:  Solving for Uz, Initial residual = 0.0331138, Final residual = 1.78751e-05, No Iterations 5
linear solve U 49865
DICPBiCGStab:  Solving for p, Initial residual = 0.146663, Final residual = 9.10042e-07, No Iterations 78
linear solve p 201681
time step continuity errors : sum local = 1.99467e-09, global = 5.89578e-20, cumulative = 1.04186e-19
DICPBiCGStab:  Solving for p, Initial residual = 0.104781, Final residual = 8.38991e-07, No Iterations 74
linear solve p 188997
time step continuity errors : sum local = 1.78865e-09, global = 5.78853e-20, cumulative = 1.62072e-19
ExecutionTime = 1.28 s  ClockTime = 1 s

Time = 0.0075

Courant Number mean: 0.17602 max: 0.915377
DILUPBiCGStab:  Solving for Ux, Initial residual = 0.00346346, Final residual = 3.30874e-06, No Iterations 5
DILUPBiCGStab:  Solving for Uy, Initial residual = 0.00930432, Final residual = 5.91336e-06, No Iterations 5
DILUPBiCGStab:  Solving for Uz, Initial residual = 0.0178714, Final residual = 9.65443e-06, No Iterations 5
linear solve U 50788
DICPBiCGStab:  Solving for p, Initial residual = 0.0595605, Final residual = 5.16303e-07, No Iterations 70
linear solve p 174280
time step continuity errors : sum local = 1.27447e-09, global = 8.11035e-20, cumulative = 2.43175e-19
DICPBiCGStab:  Solving for p, Initial residual = 0.0435514, Final residual = 8.14956e-07, No Iterations 73
linear solve p 188503
time step continuity errors : sum local = 1.53964e-09, global = -2.0116e-20, cumulative = 2.23059e-19
ExecutionTime = 1.72 s  ClockTime = 2 s

Time = 0.01

Courant Number mean: 0.178224 max: 0.916801
DILUPBiCGStab:  Solving for Ux, Initial residual = 0.00264591, Final residual = 1.0753e-06, No Iterations 5
DILUPBiCGStab:  Solving for Uy, Initial residual = 0.00687916, Final residual = 2.61876e-06, No Iterations 5
DILUPBiCGStab:  Solving for Uz, Initial residual = 0.0130813, Final residual = 5.07916e-06, No Iterations 5
linear solve U 48683
DICPBiCGStab:  Solving for p, Initial residual = 0.0322215, Final residual = 8.20882e-07, No Iterations 66
linear solve p 164152
time step continuity errors : sum local = 2.6748e-09, global = -6.67927e-20, cumulative = 1.56266e-19
DICPBiCGStab:  Solving for p, Initial residual = 0.0246072, Final residual = 9.54417e-07, No Iterations 65
linear solve p 168178
time step continuity errors : sum local = 3.12972e-09, global = 5.8509e-20, cumulative = 2.14775e-19
ExecutionTime = 2.14 s  ClockTime = 2 s

Time = 0.0125

Courant Number mean: 0.180054 max: 0.917664
DILUPBiCGStab:  Solving for Ux, Initial residual = 0.002108, Final residual = 6.86867e-07, No Iterations 5
DILUPBiCGStab:  Solving for Uy, Initial residual = 0.0054139, Final residual = 9.63363e-07, No Iterations 5
DILUPBiCGStab:  Solving for Uz, Initial residual = 0.00993691, Final residual = 2.84341e-06, No Iterations 5
linear solve U 48439
DICPBiCGStab:  Solving for p, Initial residual = 0.0202278, Final residual = 6.61036e-07, No Iterations 73
linear solve p 182274
time step continuity errors : sum local = 1.55095e-09, global = -1.94531e-20, cumulative = 1.95322e-19
DICPBiCGStab:  Solving for p, Initial residual = 0.0155695, Final residual = 9.52394e-07, No Iterations 65
linear solve p 167635
time step continuity errors : sum local = 3.19821e-09, global = 9.18761e-20, cumulative = 2.87198e-19
ExecutionTime = 2.57 s  ClockTime = 3 s

Time = 0.015

Courant Number mean: 0.181609 max: 0.918509
DILUPBiCGStab:  Solving for Ux, Initial residual = 0.00174153, Final residual = 3.59512e-07, No Iterations 5
DILUPBiCGStab:  Solving for Uy, Initial residual = 0.0045764, Final residual = 8.59388e-07, No Iterations 5
DILUPBiCGStab:  Solving for Uz, Initial residual = 0.00840776, Final residual = 2.27312e-06, No Iterations 5
linear solve U 48639
DICPBiCGStab:  Solving for p, Initial residual = 0.0124371, Final residual = 6.57188e-07, No Iterations 64
linear solve p 159171
time step continuity errors : sum local = 1.69112e-09, global = -3.56339e-20, cumulative = 2.51565e-19
DICPBiCGStab:  Solving for p, Initial residual = 0.00997398, Final residual = 9.80784e-07, No Iterations 65
linear solve p 167977
time step continuity errors : sum local = 2.39081e-09, global = 1.22055e-20, cumulative = 2.6377e-19
ExecutionTime = 2.97 s  ClockTime = 3 s

Time = 0.0175

Courant Number mean: 0.182919 max: 0.919116
DILUPBiCGStab:  Solving for Ux, Initial residual = 0.00145861, Final residual = 2.82491e-07, No Iterations 5
DILUPBiCGStab:  Solving for Uy, Initial residual = 0.00377528, Final residual = 5.35477e-07, No Iterations 5
DILUPBiCGStab:  Solving for Uz, Initial residual = 0.00672655, Final residual = 1.35338e-06, No Iterations 5
linear solve U 48998
DICPBiCGStab:  Solving for p, Initial residual = 0.00873585, Final residual = 9.03198e-07, No Iterations 62
linear solve p 154069
time step continuity errors : sum local = 2.63623e-09, global = -5.07134e-20, cumulative = 2.13057e-19
DICPBiCGStab:  Solving for p, Initial residual = 0.00701366, Final residual = 9.58177e-07, No Iterations 62
linear solve p 161652
time step continuity errors : sum local = 2.82883e-09, global = -1.55699e-20, cumulative = 1.97487e-19
ExecutionTime = 3.37 s  ClockTime = 3 s

Time = 0.02

Courant Number mean: 0.184033 max: 0.919668
DILUPBiCGStab:  Solving for Ux, Initial residual = 0.0012275, Final residual = 1.57219e-07, No Iterations 5
DILUPBiCGStab:  Solving for Uy, Initial residual = 0.00323371, Final residual = 5.24175e-07, No Iterations 5
DILUPBiCGStab:  Solving for Uz, Initial residual = 0.00574398, Final residual = 1.23893e-06, No Iterations 5
linear solve U 49219
DICPBiCGStab:  Solving for p, Initial residual = 0.00586075, Final residual = 9.97127e-07, No Iterations 36
linear solve p 91143
time step continuity errors : sum local = 2.38721e-09, global = -3.07965e-20, cumulative = 1.6669e-19
DICPBiCGStab:  Solving for p, Initial residual = 0.00492036, Final residual = 9.69056e-07, No Iterations 36
linear solve p 92479
time step continuity errors : sum local = 2.71984e-09, global = 1.3775e-20, cumulative = 1.80465e-19
ExecutionTime = 3.63 s  ClockTime = 4 s

Time = 0.0225

Courant Number mean: 0.184978 max: 0.920093
DILUPBiCGStab:  Solving for Ux, Initial residual = 0.00104029, Final residual = 1.36327e-07, No Iterations 5
DILUPBiCGStab:  Solving for Uy, Initial residual = 0.00272573, Final residual = 3.77194e-07, No Iterations 5
DILUPBiCGStab:  Solving for Uz, Initial residual = 0.0047409, Final residual = 9.02461e-07, No Iterations 5
linear solve U 49294
DICPBiCGStab:  Solving for p, Initial residual = 0.00446348, Final residual = 9.49665e-07, No Iterations 39
linear solve p 98379
time step continuity errors : sum local = 2.92345e-09, global = 3.84629e-20, cumulative = 2.18928e-19
DICPBiCGStab:  Solving for p, Initial residual = 0.00379917, Final residual = 4.13568e-07, No Iterations 32
linear solve p 83265
time step continuity errors : sum local = 1.33679e-09, global = -1.00535e-20, cumulative = 2.08875e-19
ExecutionTime = 3.9 s  ClockTime = 4 s

Time = 0.025

Courant Number mean: 0.185785 max: 0.920464
DILUPBiCGStab:  Solving for Ux, Initial residual = 0.000883914, Final residual = 9.1728e-08, No Iterations 5
DILUPBiCGStab:  Solving for Uy, Initial residual = 0.00234141, Final residual = 4.82472e-07, No Iterations 5
DILUPBiCGStab:  Solving for Uz, Initial residual = 0.00402594, Final residual = 7.991e-07, No Iterations 5
linear solve U 49562
DICPBiCGStab:  Solving for p, Initial residual = 0.00328807, Final residual = 9.8323e-07, No Iterations 35
linear solve p 87723
time step continuity errors : sum local = 2.21338e-09, global = 2.48709e-20, cumulative = 2.33745e-19
DICPBiCGStab:  Solving for p, Initial residual = 0.00289346, Final residual = 8.79374e-07, No Iterations 32
linear solve p 82772
time step continuity errors : sum local = 2.10284e-09, global = -1.59382e-20, cumulative = 2.17807e-19
ExecutionTime = 4.15 s  ClockTime = 4 s

End

