/*---------------------------------------------------------------------------*\
  =========                 |
  \\      /  F ield         | OpenFOAM: The Open Source CFD Toolbox
   \\    /   O peration     | Website:  https://openfoam.org
    \\  /    A nd           | Version:  8
     \\/     M anipulation  |
\*---------------------------------------------------------------------------*/
Build  : 8-ef60d22ea792
Exec   : icoFoam
Date   : Sep 15 2021
Time   : 14:35:53
Host   : "uc2n482.localdomain"
PID    : 3651703
I/O    : uncollated
Case   : /pfs/data5/home/kit/scc/nq7776/data/code/OBR/lidDrivenCavity3D/Variation_init/100/Variation_mesh/80/Variation_matrix_solver/CG_BJ_CUDA/Variation_maxBlockSize/2/1631709332
nProcs : 1
sigFpe : Enabling floating point exception trapping (FOAM_SIGFPE).
fileModificationChecking : Monitoring run-time modified files using timeStampMaster (fileModificationSkew 10)
allowSystemOperations : Allowing user-supplied system call operations

// * * * * * * * * * * * * * * * * * * * * * * * * * * * * * * * * * * * * * //
Create time

Create mesh for time = 0

Reading transportProperties

Reading field p

Reading field U

Reading/calculating face flux field phi


Starting time loop

Time = 0.00125

Courant Number mean: 0.170872 max: 0.956305
DILUPBiCGStab:  Solving for Ux, Initial residual = 0.0907333, Final residual = 0.00013873, No Iterations 5
DILUPBiCGStab:  Solving for Uy, Initial residual = 0.175752, Final residual = 0.000395244, No Iterations 5
DILUPBiCGStab:  Solving for Uz, Initial residual = 0.2223, Final residual = 0.000391641, No Iterations 5
linear solve U 547795
[OGL LOG] init_host_sparsity_pattern : 144 ms
[OGL LOG] matrix not stored update host matrix
[OGL LOG] update_host_mtx : 80 ms
[OGL LOG] matrix is not yet sorted, compute sorting idxs
[OGL LOG] compute_sort : 4669 ms
[OGL LOG] matrix is not yet sorted, sorting host matrix
[OGL LOG] sort_host_mtx_sparsity_pattern : 104 ms
[OGL LOG] sort_host_mtx : 65 ms
[OGL LOG] init_preconditioner : 56 ms
[OGL LOG] solve : 442 ms
BJcudaGKOCG:  Solving for p, Initial residual = 0.619793, Final residual = 9.57031e-07, No Iterations 593
linear solve p 6364125
time step continuity errors : sum local = 7.90379e-10, global = 1.34795e-20, cumulative = 1.34795e-20
[OGL LOG] init_preconditioner : 0 ms
[OGL LOG] solve : 443 ms
BJcudaGKOCG:  Solving for p, Initial residual = 0.305886, Final residual = 9.95111e-07, No Iterations 594
linear solve p 459209
time step continuity errors : sum local = 6.56203e-10, global = 2.34927e-20, cumulative = 3.69722e-20
ExecutionTime = 9.95 s  ClockTime = 10 s

Time = 0.0025

Courant Number mean: 0.172587 max: 0.956625
DILUPBiCGStab:  Solving for Ux, Initial residual = 0.00609836, Final residual = 2.52816e-05, No Iterations 5
DILUPBiCGStab:  Solving for Uy, Initial residual = 0.0152778, Final residual = 8.34404e-05, No Iterations 5
DILUPBiCGStab:  Solving for Uz, Initial residual = 0.0343265, Final residual = 0.000455123, No Iterations 5
linear solve U 500415
[OGL LOG] init_preconditioner : 0 ms
[OGL LOG] solve : 445 ms
BJcudaGKOCG:  Solving for p, Initial residual = 0.304274, Final residual = 9.85924e-07, No Iterations 596
linear solve p 460718
time step continuity errors : sum local = 7.92476e-08, global = 8.23252e-21, cumulative = 4.52047e-20
[OGL LOG] init_preconditioner : 0 ms
[OGL LOG] solve : 448 ms
BJcudaGKOCG:  Solving for p, Initial residual = 0.186321, Final residual = 9.72115e-07, No Iterations 595
linear solve p 464708
time step continuity errors : sum local = 7.67067e-08, global = -1.49938e-20, cumulative = 3.02109e-20
ExecutionTime = 11.67 s  ClockTime = 11 s

Time = 0.00375

Courant Number mean: 0.174167 max: 0.956979
DILUPBiCGStab:  Solving for Ux, Initial residual = 0.00272596, Final residual = 1.98741e-05, No Iterations 5
DILUPBiCGStab:  Solving for Uy, Initial residual = 0.00797016, Final residual = 4.87004e-05, No Iterations 5
DILUPBiCGStab:  Solving for Uz, Initial residual = 0.0231327, Final residual = 0.000236744, No Iterations 5
linear solve U 502799
[OGL LOG] init_preconditioner : 0 ms
[OGL LOG] solve : 445 ms
BJcudaGKOCG:  Solving for p, Initial residual = 0.175565, Final residual = 9.70276e-07, No Iterations 595
linear solve p 462337
time step continuity errors : sum local = 7.814e-08, global = -8.55554e-21, cumulative = 2.16554e-20
[OGL LOG] init_preconditioner : 0 ms
[OGL LOG] solve : 442 ms
BJcudaGKOCG:  Solving for p, Initial residual = 0.128458, Final residual = 9.66787e-07, No Iterations 593
linear solve p 458663
time step continuity errors : sum local = 7.64787e-08, global = 1.64468e-20, cumulative = 3.81022e-20
ExecutionTime = 13.41 s  ClockTime = 13 s

Time = 0.005

Courant Number mean: 0.175607 max: 0.957347
DILUPBiCGStab:  Solving for Ux, Initial residual = 0.00209245, Final residual = 1.42153e-05, No Iterations 5
DILUPBiCGStab:  Solving for Uy, Initial residual = 0.00664958, Final residual = 3.32674e-05, No Iterations 5
DILUPBiCGStab:  Solving for Uz, Initial residual = 0.0198723, Final residual = 0.000186916, No Iterations 5
linear solve U 504365
[OGL LOG] init_preconditioner : 0 ms
[OGL LOG] solve : 439 ms
BJcudaGKOCG:  Solving for p, Initial residual = 0.131209, Final residual = 9.93414e-07, No Iterations 585
linear solve p 458058
time step continuity errors : sum local = 7.56765e-08, global = -3.88256e-21, cumulative = 3.42196e-20
[OGL LOG] init_preconditioner : 0 ms
[OGL LOG] solve : 432 ms
BJcudaGKOCG:  Solving for p, Initial residual = 0.103884, Final residual = 9.83936e-07, No Iterations 583
linear solve p 448455
time step continuity errors : sum local = 7.65549e-08, global = -1.95142e-20, cumulative = 1.47054e-20
ExecutionTime = 15.14 s  ClockTime = 15 s

Time = 0.00625

Courant Number mean: 0.176919 max: 0.957715
DILUPBiCGStab:  Solving for Ux, Initial residual = 0.00180829, Final residual = 1.12382e-05, No Iterations 5
DILUPBiCGStab:  Solving for Uy, Initial residual = 0.005466, Final residual = 2.38178e-05, No Iterations 5
DILUPBiCGStab:  Solving for Uz, Initial residual = 0.0155374, Final residual = 0.00013609, No Iterations 5
linear solve U 505417
[OGL LOG] init_preconditioner : 0 ms
[OGL LOG] solve : 433 ms
BJcudaGKOCG:  Solving for p, Initial residual = 0.102547, Final residual = 9.56435e-07, No Iterations 580
linear solve p 448869
time step continuity errors : sum local = 7.72541e-08, global = 2.02186e-21, cumulative = 1.67273e-20
[OGL LOG] init_preconditioner : 0 ms
[OGL LOG] solve : 429 ms
BJcudaGKOCG:  Solving for p, Initial residual = 0.0820779, Final residual = 9.51578e-07, No Iterations 578
linear solve p 445596
time step continuity errors : sum local = 7.6516e-08, global = 5.1292e-21, cumulative = 2.18565e-20
ExecutionTime = 16.83 s  ClockTime = 16 s

Time = 0.0075

Courant Number mean: 0.178117 max: 0.95808
DILUPBiCGStab:  Solving for Ux, Initial residual = 0.00156865, Final residual = 9.33962e-06, No Iterations 5
DILUPBiCGStab:  Solving for Uy, Initial residual = 0.00480632, Final residual = 1.83351e-05, No Iterations 5
DILUPBiCGStab:  Solving for Uz, Initial residual = 0.0133348, Final residual = 9.97803e-05, No Iterations 5
linear solve U 497515
[OGL LOG] init_preconditioner : 0 ms
[OGL LOG] solve : 429 ms
BJcudaGKOCG:  Solving for p, Initial residual = 0.084109, Final residual = 9.63951e-07, No Iterations 575
linear solve p 445510
time step continuity errors : sum local = 7.61381e-08, global = 8.4571e-21, cumulative = 3.03136e-20
[OGL LOG] init_preconditioner : 0 ms
[OGL LOG] solve : 429 ms
BJcudaGKOCG:  Solving for p, Initial residual = 0.0682267, Final residual = 9.1985e-07, No Iterations 574
linear solve p 445550
time step continuity errors : sum local = 7.65125e-08, global = -2.76333e-21, cumulative = 2.75502e-20
ExecutionTime = 18.52 s  ClockTime = 18 s

Time = 0.00875

Courant Number mean: 0.179203 max: 0.958354
DILUPBiCGStab:  Solving for Ux, Initial residual = 0.00137904, Final residual = 7.58833e-06, No Iterations 5
DILUPBiCGStab:  Solving for Uy, Initial residual = 0.00418586, Final residual = 1.49317e-05, No Iterations 5
DILUPBiCGStab:  Solving for Uz, Initial residual = 0.0107648, Final residual = 6.69068e-05, No Iterations 5
linear solve U 503724
[OGL LOG] init_preconditioner : 0 ms
[OGL LOG] solve : 421 ms
BJcudaGKOCG:  Solving for p, Initial residual = 0.0688138, Final residual = 9.94398e-07, No Iterations 567
linear solve p 438168
time step continuity errors : sum local = 7.68157e-08, global = 1.99978e-20, cumulative = 4.7548e-20
[OGL LOG] init_preconditioner : 0 ms
[OGL LOG] solve : 422 ms
BJcudaGKOCG:  Solving for p, Initial residual = 0.0558628, Final residual = 9.38021e-07, No Iterations 568
linear solve p 438153
time step continuity errors : sum local = 7.65162e-08, global = -4.42532e-21, cumulative = 4.31227e-20
ExecutionTime = 20.21 s  ClockTime = 20 s

Time = 0.01

Courant Number mean: 0.180199 max: 0.958646
DILUPBiCGStab:  Solving for Ux, Initial residual = 0.00123651, Final residual = 6.644e-06, No Iterations 5
DILUPBiCGStab:  Solving for Uy, Initial residual = 0.00372451, Final residual = 1.06872e-05, No Iterations 5
DILUPBiCGStab:  Solving for Uz, Initial residual = 0.00938573, Final residual = 5.11734e-05, No Iterations 5
linear solve U 505520
[OGL LOG] init_preconditioner : 0 ms
[OGL LOG] solve : 422 ms
BJcudaGKOCG:  Solving for p, Initial residual = 0.0568354, Final residual = 9.97162e-07, No Iterations 567
linear solve p 440542
time step continuity errors : sum local = 7.63872e-08, global = -1.6555e-20, cumulative = 2.65677e-20
[OGL LOG] init_preconditioner : 0 ms
[OGL LOG] solve : 421 ms
BJcudaGKOCG:  Solving for p, Initial residual = 0.0464013, Final residual = 9.70791e-07, No Iterations 566
linear solve p 437435
time step continuity errors : sum local = 7.65164e-08, global = 2.63412e-20, cumulative = 5.29089e-20
ExecutionTime = 21.91 s  ClockTime = 22 s

Time = 0.01125

Courant Number mean: 0.181104 max: 0.958866
DILUPBiCGStab:  Solving for Ux, Initial residual = 0.00109737, Final residual = 5.11435e-06, No Iterations 5
DILUPBiCGStab:  Solving for Uy, Initial residual = 0.00332112, Final residual = 9.68071e-06, No Iterations 5
DILUPBiCGStab:  Solving for Uz, Initial residual = 0.00777852, Final residual = 3.55578e-05, No Iterations 5
linear solve U 502306
[OGL LOG] init_preconditioner : 0 ms
[OGL LOG] solve : 423 ms
BJcudaGKOCG:  Solving for p, Initial residual = 0.0471998, Final residual = 9.42076e-07, No Iterations 566
linear solve p 438987
time step continuity errors : sum local = 7.6618e-08, global = 2.59024e-20, cumulative = 7.88113e-20
[OGL LOG] init_preconditioner : 0 ms
[OGL LOG] solve : 421 ms
BJcudaGKOCG:  Solving for p, Initial residual = 0.0385705, Final residual = 9.63736e-07, No Iterations 564
linear solve p 437590
time step continuity errors : sum local = 7.65147e-08, global = 6.06566e-21, cumulative = 8.48769e-20
ExecutionTime = 23.58 s  ClockTime = 23 s

Time = 0.0125

Courant Number mean: 0.181936 max: 0.959099
DILUPBiCGStab:  Solving for Ux, Initial residual = 0.000997478, Final residual = 4.78119e-06, No Iterations 5
DILUPBiCGStab:  Solving for Uy, Initial residual = 0.00298585, Final residual = 6.76313e-06, No Iterations 5
DILUPBiCGStab:  Solving for Uz, Initial residual = 0.00690888, Final residual = 2.94019e-05, No Iterations 5
linear solve U 498500
[OGL LOG] init_preconditioner : 0 ms
[OGL LOG] solve : 247 ms
BJcudaGKOCG:  Solving for p, Initial residual = 0.0390472, Final residual = 9.50534e-07, No Iterations 330
linear solve p 263623
time step continuity errors : sum local = 7.64768e-08, global = 1.35515e-20, cumulative = 9.84284e-20
[OGL LOG] init_preconditioner : 0 ms
[OGL LOG] solve : 247 ms
BJcudaGKOCG:  Solving for p, Initial residual = 0.0320093, Final residual = 9.8534e-07, No Iterations 329
linear solve p 263303
time step continuity errors : sum local = 7.65506e-08, global = -3.80632e-21, cumulative = 9.46221e-20
ExecutionTime = 24.89 s  ClockTime = 25 s

End

