/*---------------------------------------------------------------------------*\
  =========                 |
  \\      /  F ield         | OpenFOAM: The Open Source CFD Toolbox
   \\    /   O peration     | Website:  https://openfoam.org
    \\  /    A nd           | Version:  8
     \\/     M anipulation  |
\*---------------------------------------------------------------------------*/
Build  : 8-ef60d22ea792
Exec   : icoFoam
Date   : Sep 15 2021
Time   : 14:04:59
Host   : "uc2n482.localdomain"
PID    : 3640655
I/O    : uncollated
Case   : /pfs/data5/home/kit/scc/nq7776/data/code/OBR/lidDrivenCavity3D/Variation_init/100/Variation_mesh/70/Variation_matrix_solver/CG_BJ_CUDA/Variation_maxBlockSize/2/1631707485
nProcs : 1
sigFpe : Enabling floating point exception trapping (FOAM_SIGFPE).
fileModificationChecking : Monitoring run-time modified files using timeStampMaster (fileModificationSkew 10)
allowSystemOperations : Allowing user-supplied system call operations

// * * * * * * * * * * * * * * * * * * * * * * * * * * * * * * * * * * * * * //
Create time

Create mesh for time = 0

Reading transportProperties

Reading field p

Reading field U

Reading/calculating face flux field phi


Starting time loop

Time = 0.00142857

Courant Number mean: 0.170837 max: 0.954853
DILUPBiCGStab:  Solving for Ux, Initial residual = 0.123158, Final residual = 4.78684e-05, No Iterations 5
DILUPBiCGStab:  Solving for Uy, Initial residual = 0.240191, Final residual = 8.17702e-05, No Iterations 5
DILUPBiCGStab:  Solving for Uz, Initial residual = 0.328596, Final residual = 0.000523545, No Iterations 5
linear solve U 363236
[OGL LOG] init_host_sparsity_pattern : 104 ms
[OGL LOG] matrix not stored update host matrix
[OGL LOG] update_host_mtx : 60 ms
[OGL LOG] matrix is not yet sorted, compute sorting idxs
[OGL LOG] compute_sort : 3088 ms
[OGL LOG] matrix is not yet sorted, sorting host matrix
[OGL LOG] sort_host_mtx_sparsity_pattern : 68 ms
[OGL LOG] sort_host_mtx : 37 ms
[OGL LOG] init_preconditioner : 44 ms
[OGL LOG] solve : 300 ms
BJcudaGKOCG:  Solving for p, Initial residual = 0.567453, Final residual = 9.68946e-07, No Iterations 512
linear solve p 4480887
time step continuity errors : sum local = 1.16491e-09, global = -1.65434e-20, cumulative = -1.65434e-20
[OGL LOG] init_preconditioner : 0 ms
[OGL LOG] solve : 289 ms
BJcudaGKOCG:  Solving for p, Initial residual = 0.279391, Final residual = 9.90063e-07, No Iterations 515
linear solve p 300085
time step continuity errors : sum local = 7.05017e-10, global = 2.66796e-20, cumulative = 1.01362e-20
ExecutionTime = 6.94 s  ClockTime = 7 s

Time = 0.00285714

Courant Number mean: 0.172875 max: 0.950141
DILUPBiCGStab:  Solving for Ux, Initial residual = 0.00605369, Final residual = 2.35599e-05, No Iterations 5
DILUPBiCGStab:  Solving for Uy, Initial residual = 0.0139616, Final residual = 4.53084e-05, No Iterations 5
DILUPBiCGStab:  Solving for Uz, Initial residual = 0.0507766, Final residual = 0.000286308, No Iterations 5
linear solve U 337788
[OGL LOG] init_preconditioner : 0 ms
[OGL LOG] solve : 290 ms
BJcudaGKOCG:  Solving for p, Initial residual = 0.261249, Final residual = 9.45571e-07, No Iterations 513
linear solve p 301404
time step continuity errors : sum local = 2.11677e-07, global = -6.7755e-21, cumulative = 3.36069e-21
[OGL LOG] init_preconditioner : 0 ms
[OGL LOG] solve : 297 ms
BJcudaGKOCG:  Solving for p, Initial residual = 0.183725, Final residual = 9.42989e-07, No Iterations 511
linear solve p 308401
time step continuity errors : sum local = 2.07446e-07, global = -2.21848e-20, cumulative = -1.88241e-20
ExecutionTime = 8.08 s  ClockTime = 9 s

Time = 0.00428571

Courant Number mean: 0.17465 max: 0.951231
DILUPBiCGStab:  Solving for Ux, Initial residual = 0.00280721, Final residual = 1.28905e-05, No Iterations 5
DILUPBiCGStab:  Solving for Uy, Initial residual = 0.00743889, Final residual = 2.49756e-05, No Iterations 5
DILUPBiCGStab:  Solving for Uz, Initial residual = 0.0269118, Final residual = 0.00016177, No Iterations 5
linear solve U 324695
[OGL LOG] init_preconditioner : 0 ms
[OGL LOG] solve : 296 ms
BJcudaGKOCG:  Solving for p, Initial residual = 0.167742, Final residual = 9.92349e-07, No Iterations 508
linear solve p 308835
time step continuity errors : sum local = 2.07237e-07, global = 1.6957e-20, cumulative = -1.86709e-21
[OGL LOG] init_preconditioner : 0 ms
[OGL LOG] solve : 298 ms
BJcudaGKOCG:  Solving for p, Initial residual = 0.122039, Final residual = 9.2167e-07, No Iterations 507
linear solve p 308970
time step continuity errors : sum local = 2.07059e-07, global = 9.88115e-21, cumulative = 8.01406e-21
ExecutionTime = 9.23 s  ClockTime = 10 s

Time = 0.00571429

Courant Number mean: 0.176201 max: 0.951516
DILUPBiCGStab:  Solving for Ux, Initial residual = 0.00217509, Final residual = 7.97246e-06, No Iterations 5
DILUPBiCGStab:  Solving for Uy, Initial residual = 0.00611261, Final residual = 1.44612e-05, No Iterations 5
DILUPBiCGStab:  Solving for Uz, Initial residual = 0.0192789, Final residual = 8.86772e-05, No Iterations 5
linear solve U 332679
[OGL LOG] init_preconditioner : 0 ms
[OGL LOG] solve : 296 ms
BJcudaGKOCG:  Solving for p, Initial residual = 0.120391, Final residual = 9.16925e-07, No Iterations 502
linear solve p 307550
time step continuity errors : sum local = 2.07253e-07, global = 1.13468e-20, cumulative = 1.93609e-20
[OGL LOG] init_preconditioner : 0 ms
[OGL LOG] solve : 290 ms
BJcudaGKOCG:  Solving for p, Initial residual = 0.0892149, Final residual = 9.72605e-07, No Iterations 500
linear solve p 300652
time step continuity errors : sum local = 2.07007e-07, global = 2.29916e-21, cumulative = 2.166e-20
ExecutionTime = 10.36 s  ClockTime = 11 s

Time = 0.00714286

Courant Number mean: 0.177607 max: 0.951995
DILUPBiCGStab:  Solving for Ux, Initial residual = 0.00184423, Final residual = 6.05735e-06, No Iterations 5
DILUPBiCGStab:  Solving for Uy, Initial residual = 0.00509689, Final residual = 1.219e-05, No Iterations 5
DILUPBiCGStab:  Solving for Uz, Initial residual = 0.0137054, Final residual = 5.49538e-05, No Iterations 5
linear solve U 324612
[OGL LOG] init_preconditioner : 0 ms
[OGL LOG] solve : 287 ms
BJcudaGKOCG:  Solving for p, Initial residual = 0.0867887, Final residual = 9.91467e-07, No Iterations 498
linear solve p 298402
time step continuity errors : sum local = 2.07182e-07, global = 1.5279e-20, cumulative = 3.6939e-20
[OGL LOG] init_preconditioner : 0 ms
[OGL LOG] solve : 295 ms
BJcudaGKOCG:  Solving for p, Initial residual = 0.0641276, Final residual = 9.97821e-07, No Iterations 497
linear solve p 306575
time step continuity errors : sum local = 2.07077e-07, global = 4.72294e-20, cumulative = 8.41684e-20
ExecutionTime = 11.49 s  ClockTime = 12 s

Time = 0.00857143

Courant Number mean: 0.178874 max: 0.952386
DILUPBiCGStab:  Solving for Ux, Initial residual = 0.00157905, Final residual = 4.29114e-06, No Iterations 5
DILUPBiCGStab:  Solving for Uy, Initial residual = 0.0044363, Final residual = 9.91238e-06, No Iterations 5
DILUPBiCGStab:  Solving for Uz, Initial residual = 0.0114959, Final residual = 3.87767e-05, No Iterations 5
linear solve U 334865
[OGL LOG] init_preconditioner : 0 ms
[OGL LOG] solve : 286 ms
BJcudaGKOCG:  Solving for p, Initial residual = 0.0636323, Final residual = 9.37669e-07, No Iterations 494
linear solve p 297339
time step continuity errors : sum local = 2.06973e-07, global = 2.59338e-20, cumulative = 1.10102e-19
[OGL LOG] init_preconditioner : 0 ms
[OGL LOG] solve : 283 ms
BJcudaGKOCG:  Solving for p, Initial residual = 0.0474809, Final residual = 9.16903e-07, No Iterations 493
linear solve p 294403
time step continuity errors : sum local = 2.06983e-07, global = -5.55548e-21, cumulative = 1.04547e-19
ExecutionTime = 12.61 s  ClockTime = 13 s

Time = 0.01

Courant Number mean: 0.180014 max: 0.952713
DILUPBiCGStab:  Solving for Ux, Initial residual = 0.00137776, Final residual = 3.00484e-06, No Iterations 5
DILUPBiCGStab:  Solving for Uy, Initial residual = 0.00387062, Final residual = 8.11104e-06, No Iterations 5
DILUPBiCGStab:  Solving for Uz, Initial residual = 0.0090172, Final residual = 3.06625e-05, No Iterations 5
linear solve U 325731
[OGL LOG] init_preconditioner : 0 ms
[OGL LOG] solve : 289 ms
BJcudaGKOCG:  Solving for p, Initial residual = 0.0474037, Final residual = 9.82645e-07, No Iterations 491
linear solve p 301036
time step continuity errors : sum local = 2.07103e-07, global = -1.16161e-20, cumulative = 9.29306e-20
[OGL LOG] init_preconditioner : 0 ms
[OGL LOG] solve : 287 ms
BJcudaGKOCG:  Solving for p, Initial residual = 0.0355036, Final residual = 9.50472e-07, No Iterations 490
linear solve p 298111
time step continuity errors : sum local = 2.0703e-07, global = 1.62248e-20, cumulative = 1.09155e-19
ExecutionTime = 13.72 s  ClockTime = 14 s

Time = 0.0114286

Courant Number mean: 0.181045 max: 0.953038
DILUPBiCGStab:  Solving for Ux, Initial residual = 0.00121485, Final residual = 2.01097e-06, No Iterations 5
DILUPBiCGStab:  Solving for Uy, Initial residual = 0.00345407, Final residual = 6.14384e-06, No Iterations 5
DILUPBiCGStab:  Solving for Uz, Initial residual = 0.00785984, Final residual = 2.31839e-05, No Iterations 5
linear solve U 331634
[OGL LOG] init_preconditioner : 0 ms
[OGL LOG] solve : 290 ms
BJcudaGKOCG:  Solving for p, Initial residual = 0.0350941, Final residual = 9.72539e-07, No Iterations 489
linear solve p 303059
time step continuity errors : sum local = 2.06943e-07, global = 2.69126e-20, cumulative = 1.36068e-19
[OGL LOG] init_preconditioner : 0 ms
[OGL LOG] solve : 281 ms
BJcudaGKOCG:  Solving for p, Initial residual = 0.0265492, Final residual = 9.72522e-07, No Iterations 488
linear solve p 292314
time step continuity errors : sum local = 2.07004e-07, global = 1.14645e-20, cumulative = 1.47532e-19
ExecutionTime = 14.86 s  ClockTime = 15 s

Time = 0.0128571

Courant Number mean: 0.181976 max: 0.953292
DILUPBiCGStab:  Solving for Ux, Initial residual = 0.00107674, Final residual = 1.45081e-06, No Iterations 5
DILUPBiCGStab:  Solving for Uy, Initial residual = 0.00306254, Final residual = 4.4569e-06, No Iterations 5
DILUPBiCGStab:  Solving for Uz, Initial residual = 0.00652941, Final residual = 2.1158e-05, No Iterations 5
linear solve U 325589
[OGL LOG] init_preconditioner : 0 ms
[OGL LOG] solve : 280 ms
BJcudaGKOCG:  Solving for p, Initial residual = 0.0268318, Final residual = 9.6461e-07, No Iterations 484
linear solve p 290917
time step continuity errors : sum local = 2.07045e-07, global = 5.99355e-20, cumulative = 2.07468e-19
[OGL LOG] init_preconditioner : 0 ms
[OGL LOG] solve : 286 ms
BJcudaGKOCG:  Solving for p, Initial residual = 0.0204003, Final residual = 9.58032e-07, No Iterations 483
linear solve p 297232
time step continuity errors : sum local = 2.0702e-07, global = 8.19256e-21, cumulative = 2.15661e-19
ExecutionTime = 15.97 s  ClockTime = 16 s

Time = 0.0142857

Courant Number mean: 0.182821 max: 0.953549
DILUPBiCGStab:  Solving for Ux, Initial residual = 0.000963107, Final residual = 1.0808e-06, No Iterations 5
DILUPBiCGStab:  Solving for Uy, Initial residual = 0.0027721, Final residual = 3.39807e-06, No Iterations 5
DILUPBiCGStab:  Solving for Uz, Initial residual = 0.00580752, Final residual = 1.56217e-05, No Iterations 5
linear solve U 331427
[OGL LOG] init_preconditioner : 0 ms
[OGL LOG] solve : 279 ms
BJcudaGKOCG:  Solving for p, Initial residual = 0.0200689, Final residual = 9.73339e-07, No Iterations 482
linear solve p 290147
time step continuity errors : sum local = 2.06957e-07, global = -1.35829e-20, cumulative = 2.02078e-19
[OGL LOG] init_preconditioner : 0 ms
[OGL LOG] solve : 277 ms
BJcudaGKOCG:  Solving for p, Initial residual = 0.0154267, Final residual = 9.5793e-07, No Iterations 480
linear solve p 287907
time step continuity errors : sum local = 2.07002e-07, global = 3.12837e-20, cumulative = 2.33361e-19
ExecutionTime = 17.07 s  ClockTime = 18 s

End

