/*---------------------------------------------------------------------------*\
  =========                 |
  \\      /  F ield         | OpenFOAM: The Open Source CFD Toolbox
   \\    /   O peration     | Website:  https://openfoam.org
    \\  /    A nd           | Version:  8
     \\/     M anipulation  |
\*---------------------------------------------------------------------------*/
Build  : 8-ef60d22ea792
Exec   : icoFoam
Date   : Sep 15 2021
Time   : 13:53:48
Host   : "uc2n482.localdomain"
PID    : 3637821
I/O    : uncollated
Case   : /pfs/data5/home/kit/scc/nq7776/data/code/OBR/lidDrivenCavity3D/Variation_init/100/Variation_mesh/95/Variation_matrix_solver/CG_NoPrecond_CUDA/1631706793
nProcs : 1
sigFpe : Enabling floating point exception trapping (FOAM_SIGFPE).
fileModificationChecking : Monitoring run-time modified files using timeStampMaster (fileModificationSkew 10)
allowSystemOperations : Allowing user-supplied system call operations

// * * * * * * * * * * * * * * * * * * * * * * * * * * * * * * * * * * * * * //
Create time

Create mesh for time = 0

Reading transportProperties

Reading field p

Reading field U

Reading/calculating face flux field phi


Starting time loop

Time = 0.00105263

Courant Number mean: 0.170953 max: 0.961002
DILUPBiCGStab:  Solving for Ux, Initial residual = 0.0461445, Final residual = 0.000180416, No Iterations 5
DILUPBiCGStab:  Solving for Uy, Initial residual = 0.0921486, Final residual = 0.000510127, No Iterations 5
DILUPBiCGStab:  Solving for Uz, Initial residual = 0.140517, Final residual = 0.000914824, No Iterations 5
linear solve U 935064
[OGL LOG] init_host_sparsity_pattern : 246 ms
[OGL LOG] matrix not stored update host matrix
[OGL LOG] update_host_mtx : 134 ms
[OGL LOG] matrix is not yet sorted, compute sorting idxs
[OGL LOG] compute_sort : 8054 ms
[OGL LOG] matrix is not yet sorted, sorting host matrix
[OGL LOG] sort_host_mtx_sparsity_pattern : 175 ms
[OGL LOG] sort_host_mtx : 104 ms
[OGL LOG] init_preconditioner : 0 ms
[OGL LOG] solve : 864 ms
nonecudaGKOCG:  Solving for p, Initial residual = 0.555784, Final residual = 9.98947e-07, No Iterations 798
linear solve p 10402830
time step continuity errors : sum local = 5.9919e-10, global = -1.75936e-21, cumulative = -1.75936e-21
[OGL LOG] init_preconditioner : 0 ms
[OGL LOG] solve : 857 ms
nonecudaGKOCG:  Solving for p, Initial residual = 0.409115, Final residual = 9.90616e-07, No Iterations 794
linear solve p 883885
time step continuity errors : sum local = 5.87355e-10, global = -1.18999e-20, cumulative = -1.36592e-20
ExecutionTime = 16.73 s  ClockTime = 16 s

Time = 0.00210526

Courant Number mean: 0.172907 max: 0.963527
DILUPBiCGStab:  Solving for Ux, Initial residual = 0.00579889, Final residual = 0.00010225, No Iterations 5
DILUPBiCGStab:  Solving for Uy, Initial residual = 0.0179524, Final residual = 0.000259398, No Iterations 5
DILUPBiCGStab:  Solving for Uz, Initial residual = 0.048725, Final residual = 0.000750972, No Iterations 5
linear solve U 895667
[OGL LOG] init_preconditioner : 0 ms
[OGL LOG] solve : 861 ms
nonecudaGKOCG:  Solving for p, Initial residual = 0.503488, Final residual = 9.98671e-07, No Iterations 804
linear solve p 890335
time step continuity errors : sum local = 4.68179e-08, global = 6.26208e-22, cumulative = -1.3033e-20
[OGL LOG] init_preconditioner : 0 ms
[OGL LOG] solve : 865 ms
nonecudaGKOCG:  Solving for p, Initial residual = 0.458977, Final residual = 9.81061e-07, No Iterations 801
linear solve p 892491
time step continuity errors : sum local = 4.01712e-08, global = -1.40466e-20, cumulative = -2.70796e-20
ExecutionTime = 19.92 s  ClockTime = 20 s

Time = 0.00315789

Courant Number mean: 0.174172 max: 0.964644
DILUPBiCGStab:  Solving for Ux, Initial residual = 0.00445245, Final residual = 6.52288e-05, No Iterations 5
DILUPBiCGStab:  Solving for Uy, Initial residual = 0.012065, Final residual = 0.000168355, No Iterations 5
DILUPBiCGStab:  Solving for Uz, Initial residual = 0.0401141, Final residual = 0.000539549, No Iterations 5
linear solve U 867142
[OGL LOG] init_preconditioner : 0 ms
[OGL LOG] solve : 864 ms
nonecudaGKOCG:  Solving for p, Initial residual = 0.416682, Final residual = 9.92801e-07, No Iterations 803
linear solve p 891697
time step continuity errors : sum local = 4.34499e-08, global = 1.67886e-20, cumulative = -1.0291e-20
[OGL LOG] init_preconditioner : 0 ms
[OGL LOG] solve : 879 ms
nonecudaGKOCG:  Solving for p, Initial residual = 0.362939, Final residual = 9.98266e-07, No Iterations 800
linear solve p 906521
time step continuity errors : sum local = 3.98401e-08, global = 4.574e-21, cumulative = -5.71696e-21
ExecutionTime = 23.11 s  ClockTime = 23 s

Time = 0.00421053

Courant Number mean: 0.175231 max: 0.964262
DILUPBiCGStab:  Solving for Ux, Initial residual = 0.00304048, Final residual = 4.39378e-05, No Iterations 5
DILUPBiCGStab:  Solving for Uy, Initial residual = 0.0100843, Final residual = 0.000118352, No Iterations 5
DILUPBiCGStab:  Solving for Uz, Initial residual = 0.0379148, Final residual = 0.000583591, No Iterations 5
linear solve U 862524
[OGL LOG] init_preconditioner : 0 ms
[OGL LOG] solve : 867 ms
nonecudaGKOCG:  Solving for p, Initial residual = 0.363933, Final residual = 9.70728e-07, No Iterations 802
linear solve p 895264
time step continuity errors : sum local = 4.1205e-08, global = -6.98441e-21, cumulative = -1.27014e-20
[OGL LOG] init_preconditioner : 0 ms
[OGL LOG] solve : 866 ms
nonecudaGKOCG:  Solving for p, Initial residual = 0.315844, Final residual = 9.74404e-07, No Iterations 800
linear solve p 895323
time step continuity errors : sum local = 3.99982e-08, global = 9.57561e-21, cumulative = -3.12577e-21
ExecutionTime = 26.28 s  ClockTime = 26 s

Time = 0.00526316

Courant Number mean: 0.176336 max: 0.964276
DILUPBiCGStab:  Solving for Ux, Initial residual = 0.00258778, Final residual = 2.67226e-05, No Iterations 5
DILUPBiCGStab:  Solving for Uy, Initial residual = 0.00746158, Final residual = 8.1752e-05, No Iterations 5
DILUPBiCGStab:  Solving for Uz, Initial residual = 0.0329219, Final residual = 0.000512668, No Iterations 5
linear solve U 860710
[OGL LOG] init_preconditioner : 0 ms
[OGL LOG] solve : 857 ms
nonecudaGKOCG:  Solving for p, Initial residual = 0.312118, Final residual = 9.82849e-07, No Iterations 796
linear solve p 886297
time step continuity errors : sum local = 4.07719e-08, global = -1.33161e-20, cumulative = -1.64418e-20
[OGL LOG] init_preconditioner : 0 ms
[OGL LOG] solve : 871 ms
nonecudaGKOCG:  Solving for p, Initial residual = 0.265289, Final residual = 9.6069e-07, No Iterations 795
linear solve p 899809
time step continuity errors : sum local = 3.98121e-08, global = 3.59779e-21, cumulative = -1.2844e-20
ExecutionTime = 29.45 s  ClockTime = 29 s

Time = 0.00631579

Courant Number mean: 0.177349 max: 0.964727
DILUPBiCGStab:  Solving for Ux, Initial residual = 0.00207791, Final residual = 1.8352e-05, No Iterations 5
DILUPBiCGStab:  Solving for Uy, Initial residual = 0.00661444, Final residual = 5.47844e-05, No Iterations 5
DILUPBiCGStab:  Solving for Uz, Initial residual = 0.0282987, Final residual = 0.000462582, No Iterations 5
linear solve U 861354
[OGL LOG] init_preconditioner : 0 ms
[OGL LOG] solve : 867 ms
nonecudaGKOCG:  Solving for p, Initial residual = 0.277546, Final residual = 9.77452e-07, No Iterations 794
linear solve p 895174
time step continuity errors : sum local = 4.03281e-08, global = -2.60765e-20, cumulative = -3.89205e-20
[OGL LOG] init_preconditioner : 0 ms
[OGL LOG] solve : 864 ms
nonecudaGKOCG:  Solving for p, Initial residual = 0.236133, Final residual = 9.81053e-07, No Iterations 792
linear solve p 891486
time step continuity errors : sum local = 3.99266e-08, global = 5.57939e-22, cumulative = -3.83626e-20
ExecutionTime = 32.61 s  ClockTime = 32 s

Time = 0.00736842

Courant Number mean: 0.178317 max: 0.96464
DILUPBiCGStab:  Solving for Ux, Initial residual = 0.00183604, Final residual = 1.33687e-05, No Iterations 5
DILUPBiCGStab:  Solving for Uy, Initial residual = 0.00549405, Final residual = 3.92318e-05, No Iterations 5
DILUPBiCGStab:  Solving for Uz, Initial residual = 0.024064, Final residual = 0.000400176, No Iterations 5
linear solve U 877226
[OGL LOG] init_preconditioner : 0 ms
[OGL LOG] solve : 859 ms
nonecudaGKOCG:  Solving for p, Initial residual = 0.238907, Final residual = 9.82894e-07, No Iterations 788
linear solve p 886731
time step continuity errors : sum local = 4.01117e-08, global = -8.95125e-21, cumulative = -4.73138e-20
[OGL LOG] init_preconditioner : 0 ms
[OGL LOG] solve : 862 ms
nonecudaGKOCG:  Solving for p, Initial residual = 0.200876, Final residual = 9.92236e-07, No Iterations 786
linear solve p 890040
time step continuity errors : sum local = 3.9822e-08, global = -1.41289e-21, cumulative = -4.87267e-20
ExecutionTime = 35.78 s  ClockTime = 35 s

Time = 0.00842105

Courant Number mean: 0.179217 max: 0.96507
DILUPBiCGStab:  Solving for Ux, Initial residual = 0.00158209, Final residual = 1.00619e-05, No Iterations 5
DILUPBiCGStab:  Solving for Uy, Initial residual = 0.00491128, Final residual = 2.89875e-05, No Iterations 5
DILUPBiCGStab:  Solving for Uz, Initial residual = 0.0201112, Final residual = 0.000347234, No Iterations 5
linear solve U 859069
[OGL LOG] init_preconditioner : 0 ms
[OGL LOG] solve : 849 ms
nonecudaGKOCG:  Solving for p, Initial residual = 0.213068, Final residual = 9.78436e-07, No Iterations 776
linear solve p 877233
time step continuity errors : sum local = 4.01127e-08, global = -1.1477e-20, cumulative = -6.02037e-20
[OGL LOG] init_preconditioner : 0 ms
[OGL LOG] solve : 841 ms
nonecudaGKOCG:  Solving for p, Initial residual = 0.179428, Final residual = 9.98251e-07, No Iterations 773
linear solve p 868820
time step continuity errors : sum local = 3.98834e-08, global = -2.45739e-20, cumulative = -8.47776e-20
ExecutionTime = 38.89 s  ClockTime = 39 s

Time = 0.00947368

Courant Number mean: 0.180056 max: 0.965049
DILUPBiCGStab:  Solving for Ux, Initial residual = 0.00140544, Final residual = 8.05937e-06, No Iterations 5
DILUPBiCGStab:  Solving for Uy, Initial residual = 0.0042803, Final residual = 2.17268e-05, No Iterations 5
DILUPBiCGStab:  Solving for Uz, Initial residual = 0.0170679, Final residual = 0.00028833, No Iterations 5
linear solve U 880523
[OGL LOG] init_preconditioner : 0 ms
[OGL LOG] solve : 843 ms
nonecudaGKOCG:  Solving for p, Initial residual = 0.183708, Final residual = 9.81118e-07, No Iterations 772
linear solve p 871471
time step continuity errors : sum local = 3.99296e-08, global = -1.23832e-22, cumulative = -8.49014e-20
[OGL LOG] init_preconditioner : 0 ms
[OGL LOG] solve : 844 ms
nonecudaGKOCG:  Solving for p, Initial residual = 0.153458, Final residual = 9.80481e-07, No Iterations 770
linear solve p 872422
time step continuity errors : sum local = 3.9812e-08, global = 4.01833e-21, cumulative = -8.08831e-20
ExecutionTime = 42.02 s  ClockTime = 42 s

Time = 0.0105263

Courant Number mean: 0.180839 max: 0.965378
DILUPBiCGStab:  Solving for Ux, Initial residual = 0.00124833, Final residual = 6.53059e-06, No Iterations 5
DILUPBiCGStab:  Solving for Uy, Initial residual = 0.00384665, Final residual = 1.7316e-05, No Iterations 5
DILUPBiCGStab:  Solving for Uz, Initial residual = 0.0143253, Final residual = 0.000249235, No Iterations 5
linear solve U 856025
[OGL LOG] init_preconditioner : 0 ms
[OGL LOG] solve : 839 ms
nonecudaGKOCG:  Solving for p, Initial residual = 0.163279, Final residual = 9.36454e-07, No Iterations 767
linear solve p 866410
time step continuity errors : sum local = 3.99884e-08, global = 1.24397e-20, cumulative = -6.84435e-20
[OGL LOG] init_preconditioner : 0 ms
[OGL LOG] solve : 824 ms
nonecudaGKOCG:  Solving for p, Initial residual = 0.136561, Final residual = 9.26762e-07, No Iterations 766
linear solve p 852659
time step continuity errors : sum local = 3.9832e-08, global = 7.99019e-21, cumulative = -6.04533e-20
ExecutionTime = 45.1 s  ClockTime = 45 s

End

