/*---------------------------------------------------------------------------*\
  =========                 |
  \\      /  F ield         | OpenFOAM: The Open Source CFD Toolbox
   \\    /   O peration     | Website:  https://openfoam.org
    \\  /    A nd           | Version:  8
     \\/     M anipulation  |
\*---------------------------------------------------------------------------*/
Build  : 8-ef60d22ea792
Exec   : icoFoam
Date   : Sep 15 2021
Time   : 14:06:37
Host   : "uc2n482.localdomain"
PID    : 3641035
I/O    : uncollated
Case   : /pfs/data5/home/kit/scc/nq7776/data/code/OBR/lidDrivenCavity3D/Variation_init/100/Variation_mesh/70/Variation_matrix_solver/BiCGStab_ILU_CUDA/1631707580
nProcs : 1
sigFpe : Enabling floating point exception trapping (FOAM_SIGFPE).
fileModificationChecking : Monitoring run-time modified files using timeStampMaster (fileModificationSkew 10)
allowSystemOperations : Allowing user-supplied system call operations

// * * * * * * * * * * * * * * * * * * * * * * * * * * * * * * * * * * * * * //
Create time

Create mesh for time = 0

Reading transportProperties

Reading field p

Reading field U

Reading/calculating face flux field phi


Starting time loop

Time = 0.00142857

Courant Number mean: 0.170837 max: 0.954853
DILUPBiCGStab:  Solving for Ux, Initial residual = 0.123158, Final residual = 4.78684e-05, No Iterations 5
DILUPBiCGStab:  Solving for Uy, Initial residual = 0.240191, Final residual = 8.17702e-05, No Iterations 5
DILUPBiCGStab:  Solving for Uz, Initial residual = 0.328596, Final residual = 0.000523545, No Iterations 5
linear solve U 364398
[OGL LOG] init_host_sparsity_pattern : 98 ms
[OGL LOG] matrix not stored update host matrix
[OGL LOG] update_host_mtx : 53 ms
[OGL LOG] matrix is not yet sorted, compute sorting idxs
[OGL LOG] compute_sort : 3077 ms
[OGL LOG] matrix is not yet sorted, sorting host matrix
[OGL LOG] sort_host_mtx_sparsity_pattern : 68 ms
[OGL LOG] sort_host_mtx : 38 ms
[OGL LOG] init_preconditioner : 141 ms
[OGL LOG] solve : 723 ms
ILUcudaGKOBiCGStab:  Solving for p, Initial residual = 0.567453, Final residual = 8.67684e-07, No Iterations 117
linear solve p 4982986
time step continuity errors : sum local = 1.0915e-05, global = 4.06268e-21, cumulative = 4.06268e-21
[OGL LOG] init_preconditioner : 0 ms
[OGL LOG] solve : 864 ms
ILUcudaGKOBiCGStab:  Solving for p, Initial residual = 0.290514, Final residual = 6.34018e-07, No Iterations 143
linear solve p 875813
time step continuity errors : sum local = 4.99621e-10, global = -2.03008e-20, cumulative = -1.62381e-20
ExecutionTime = 8.02 s  ClockTime = 8 s

Time = 0.00285714

Courant Number mean: 0.172875 max: 0.950127
DILUPBiCGStab:  Solving for Ux, Initial residual = 0.00605405, Final residual = 2.35583e-05, No Iterations 5
DILUPBiCGStab:  Solving for Uy, Initial residual = 0.0139627, Final residual = 4.53463e-05, No Iterations 5
DILUPBiCGStab:  Solving for Uz, Initial residual = 0.0740168, Final residual = 0.000661203, No Iterations 5
linear solve U 341685
[OGL LOG] init_preconditioner : 0 ms
[OGL LOG] solve : 873 ms
ILUcudaGKOBiCGStab:  Solving for p, Initial residual = 0.296705, Final residual = 9.28514e-07, No Iterations 143
linear solve p 884413
time step continuity errors : sum local = 4.00281e-06, global = 1.55691e-20, cumulative = -6.68998e-22
[OGL LOG] init_preconditioner : 0 ms
[OGL LOG] solve : 873 ms
ILUcudaGKOBiCGStab:  Solving for p, Initial residual = 0.217156, Final residual = 5.96665e-07, No Iterations 143
linear solve p 883894
time step continuity errors : sum local = 6.4097e-06, global = -1.77556e-20, cumulative = -1.84246e-20
ExecutionTime = 10.34 s  ClockTime = 10 s

Time = 0.00428571

Courant Number mean: 0.174657 max: 0.951783
DILUPBiCGStab:  Solving for Ux, Initial residual = 0.00281214, Final residual = 1.28974e-05, No Iterations 5
DILUPBiCGStab:  Solving for Uy, Initial residual = 0.00748914, Final residual = 2.53113e-05, No Iterations 5
DILUPBiCGStab:  Solving for Uz, Initial residual = 0.0721849, Final residual = 0.000692685, No Iterations 5
linear solve U 339740
[OGL LOG] init_preconditioner : 0 ms
[OGL LOG] solve : 856 ms
ILUcudaGKOBiCGStab:  Solving for p, Initial residual = 0.250408, Final residual = 4.3064e-07, No Iterations 140
linear solve p 867844
time step continuity errors : sum local = 8.65042e-06, global = -3.30803e-20, cumulative = -5.15049e-20
[OGL LOG] init_preconditioner : 0 ms
[OGL LOG] solve : 816 ms
ILUcudaGKOBiCGStab:  Solving for p, Initial residual = 0.186574, Final residual = 6.32396e-07, No Iterations 134
linear solve p 827532
time step continuity errors : sum local = 6.77283e-06, global = -3.61603e-21, cumulative = -5.51209e-20
ExecutionTime = 12.58 s  ClockTime = 13 s

Time = 0.00571429

Courant Number mean: 0.17621 max: 0.952283
DILUPBiCGStab:  Solving for Ux, Initial residual = 0.00219464, Final residual = 7.98828e-06, No Iterations 5
DILUPBiCGStab:  Solving for Uy, Initial residual = 0.00621933, Final residual = 1.53867e-05, No Iterations 5
DILUPBiCGStab:  Solving for Uz, Initial residual = 0.0916704, Final residual = 0.000941603, No Iterations 5
linear solve U 345438
[OGL LOG] init_preconditioner : 0 ms
[OGL LOG] solve : 847 ms
ILUcudaGKOBiCGStab:  Solving for p, Initial residual = 0.266332, Final residual = 4.84592e-07, No Iterations 139
linear solve p 859720
time step continuity errors : sum local = 7.53766e-06, global = 3.92948e-22, cumulative = -5.47279e-20
[OGL LOG] init_preconditioner : 0 ms
[OGL LOG] solve : 810 ms
ILUcudaGKOBiCGStab:  Solving for p, Initial residual = 0.206769, Final residual = 9.75323e-07, No Iterations 133
linear solve p 822306
time step continuity errors : sum local = 2.57566e-06, global = 3.46667e-20, cumulative = -2.00613e-20
ExecutionTime = 14.81 s  ClockTime = 15 s

Time = 0.00714286

Courant Number mean: 0.177621 max: 0.953135
DILUPBiCGStab:  Solving for Ux, Initial residual = 0.00189194, Final residual = 5.86008e-06, No Iterations 5
DILUPBiCGStab:  Solving for Uy, Initial residual = 0.00531565, Final residual = 1.24557e-05, No Iterations 5
DILUPBiCGStab:  Solving for Uz, Initial residual = 0.101736, Final residual = 0.000874663, No Iterations 5
linear solve U 337796
[OGL LOG] init_preconditioner : 0 ms
[OGL LOG] solve : 813 ms
ILUcudaGKOBiCGStab:  Solving for p, Initial residual = 0.247429, Final residual = 6.8855e-07, No Iterations 133
linear solve p 823893
time step continuity errors : sum local = 4.95079e-06, global = -1.80213e-20, cumulative = -3.80826e-20
[OGL LOG] init_preconditioner : 0 ms
[OGL LOG] solve : 785 ms
ILUcudaGKOBiCGStab:  Solving for p, Initial residual = 0.197622, Final residual = 7.90182e-07, No Iterations 129
linear solve p 796443
time step continuity errors : sum local = 4.24953e-06, global = 6.44765e-21, cumulative = -3.16349e-20
ExecutionTime = 16.96 s  ClockTime = 17 s

Time = 0.00857143

Courant Number mean: 0.178885 max: 0.953404
DILUPBiCGStab:  Solving for Ux, Initial residual = 0.0016352, Final residual = 4.29741e-06, No Iterations 5
DILUPBiCGStab:  Solving for Uy, Initial residual = 0.0046594, Final residual = 1.02396e-05, No Iterations 5
DILUPBiCGStab:  Solving for Uz, Initial residual = 0.102206, Final residual = 0.00081131, No Iterations 5
linear solve U 339512
[OGL LOG] init_preconditioner : 0 ms
[OGL LOG] solve : 736 ms
ILUcudaGKOBiCGStab:  Solving for p, Initial residual = 0.242139, Final residual = 5.17703e-07, No Iterations 120
linear solve p 748526
time step continuity errors : sum local = 2.44275e-05, global = -4.06958e-20, cumulative = -7.23307e-20
[OGL LOG] init_preconditioner : 0 ms
[OGL LOG] solve : 744 ms
ILUcudaGKOBiCGStab:  Solving for p, Initial residual = 0.197461, Final residual = 7.69289e-07, No Iterations 122
linear solve p 755224
time step continuity errors : sum local = 5.91251e-06, global = 2.43342e-20, cumulative = -4.79965e-20
ExecutionTime = 19.01 s  ClockTime = 19 s

Time = 0.01

Courant Number mean: 0.180024 max: 0.953818
DILUPBiCGStab:  Solving for Ux, Initial residual = 0.00143883, Final residual = 3.43405e-06, No Iterations 5
DILUPBiCGStab:  Solving for Uy, Initial residual = 0.00414171, Final residual = 1.30349e-05, No Iterations 5
DILUPBiCGStab:  Solving for Uz, Initial residual = 0.134843, Final residual = 0.00142725, No Iterations 5
linear solve U 342428
[OGL LOG] init_preconditioner : 0 ms
[OGL LOG] solve : 774 ms
ILUcudaGKOBiCGStab:  Solving for p, Initial residual = 0.319527, Final residual = 9.09623e-07, No Iterations 127
linear solve p 785205
time step continuity errors : sum local = 2.59535e-06, global = -1.58017e-20, cumulative = -6.37983e-20
[OGL LOG] init_preconditioner : 0 ms
[OGL LOG] solve : 756 ms
ILUcudaGKOBiCGStab:  Solving for p, Initial residual = 0.268364, Final residual = 7.18627e-07, No Iterations 124
linear solve p 767590
time step continuity errors : sum local = 5.67227e-06, global = -9.68289e-21, cumulative = -7.34812e-20
ExecutionTime = 21.09 s  ClockTime = 21 s

Time = 0.0114286

Courant Number mean: 0.181074 max: 0.955029
DILUPBiCGStab:  Solving for Ux, Initial residual = 0.0013623, Final residual = 3.8901e-06, No Iterations 5
DILUPBiCGStab:  Solving for Uy, Initial residual = 0.00398979, Final residual = 1.18731e-05, No Iterations 5
DILUPBiCGStab:  Solving for Uz, Initial residual = 0.145172, Final residual = 0.00104214, No Iterations 5
linear solve U 347453
[OGL LOG] init_preconditioner : 0 ms
[OGL LOG] solve : 786 ms
ILUcudaGKOBiCGStab:  Solving for p, Initial residual = 0.301541, Final residual = 1.13214e-07, No Iterations 129
linear solve p 797374
time step continuity errors : sum local = 1.51405e-05, global = 3.1988e-20, cumulative = -4.14931e-20
[OGL LOG] init_preconditioner : 0 ms
[OGL LOG] solve : 777 ms
ILUcudaGKOBiCGStab:  Solving for p, Initial residual = 0.235785, Final residual = 7.24033e-07, No Iterations 128
linear solve p 788848
time step continuity errors : sum local = 2.0734e-07, global = 2.78508e-20, cumulative = -1.36423e-20
ExecutionTime = 23.24 s  ClockTime = 23 s

Time = 0.0128571

Courant Number mean: 0.181989 max: 0.954675
DILUPBiCGStab:  Solving for Ux, Initial residual = 0.00120252, Final residual = 4.02013e-06, No Iterations 5
DILUPBiCGStab:  Solving for Uy, Initial residual = 0.00353861, Final residual = 1.11071e-05, No Iterations 5
DILUPBiCGStab:  Solving for Uz, Initial residual = 0.140598, Final residual = 0.00107528, No Iterations 5
linear solve U 339944
[OGL LOG] init_preconditioner : 0 ms
[OGL LOG] solve : 780 ms
ILUcudaGKOBiCGStab:  Solving for p, Initial residual = 0.299998, Final residual = 9.74066e-07, No Iterations 128
linear solve p 791566
time step continuity errors : sum local = 3.45384e-06, global = -1.39398e-20, cumulative = -2.75821e-20
[OGL LOG] init_preconditioner : 0 ms
[OGL LOG] solve : 781 ms
ILUcudaGKOBiCGStab:  Solving for p, Initial residual = 0.25198, Final residual = 8.75607e-07, No Iterations 128
linear solve p 792476
time step continuity errors : sum local = 4.27421e-06, global = -3.12955e-21, cumulative = -3.07116e-20
ExecutionTime = 25.35 s  ClockTime = 26 s

Time = 0.0142857

Courant Number mean: 0.182837 max: 0.955022
DILUPBiCGStab:  Solving for Ux, Initial residual = 0.00110064, Final residual = 3.83141e-06, No Iterations 5
DILUPBiCGStab:  Solving for Uy, Initial residual = 0.00324848, Final residual = 9.8673e-06, No Iterations 5
DILUPBiCGStab:  Solving for Uz, Initial residual = 0.13458, Final residual = 0.000847546, No Iterations 5
linear solve U 347445
[OGL LOG] init_preconditioner : 0 ms
[OGL LOG] solve : 761 ms
ILUcudaGKOBiCGStab:  Solving for p, Initial residual = 0.285821, Final residual = 7.36568e-07, No Iterations 125
linear solve p 772500
time step continuity errors : sum local = 6.4564e-06, global = -1.50824e-21, cumulative = -3.22198e-20
[OGL LOG] init_preconditioner : 0 ms
[OGL LOG] solve : 806 ms
ILUcudaGKOBiCGStab:  Solving for p, Initial residual = 0.231854, Final residual = 7.38127e-07, No Iterations 132
linear solve p 816855
time step continuity errors : sum local = 2.45398e-05, global = -3.15516e-20, cumulative = -6.37714e-20
ExecutionTime = 27.49 s  ClockTime = 28 s

End

