/*---------------------------------------------------------------------------*\
  =========                 |
  \\      /  F ield         | OpenFOAM: The Open Source CFD Toolbox
   \\    /   O peration     | Website:  https://openfoam.org
    \\  /    A nd           | Version:  8
     \\/     M anipulation  |
\*---------------------------------------------------------------------------*/
Build  : 8-ef60d22ea792
Exec   : icoFoam
Date   : Sep 15 2021
Time   : 13:08:27
Host   : "uc2n482.localdomain"
PID    : 3627407
I/O    : uncollated
Case   : /pfs/data5/home/kit/scc/nq7776/data/code/OBR/lidDrivenCavity3D/Variation_init/100/Variation_mesh/15/Variation_matrix_solver/IR_NoPrecond_CUDA/Variation_innerReductionFactor/0.05/1631704105
nProcs : 1
sigFpe : Enabling floating point exception trapping (FOAM_SIGFPE).
fileModificationChecking : Monitoring run-time modified files using timeStampMaster (fileModificationSkew 10)
allowSystemOperations : Allowing user-supplied system call operations

// * * * * * * * * * * * * * * * * * * * * * * * * * * * * * * * * * * * * * //
Create time

Create mesh for time = 0

Reading transportProperties

Reading field p

Reading field U

Reading/calculating face flux field phi


Starting time loop

Time = 0.00666667

Courant Number mean: 0.166422 max: 0.762393
DILUPBiCGStab:  Solving for Ux, Initial residual = 0.0879544, Final residual = 2.84443e-08, No Iterations 5
DILUPBiCGStab:  Solving for Uy, Initial residual = 0.126984, Final residual = 8.95339e-08, No Iterations 5
DILUPBiCGStab:  Solving for Uz, Initial residual = 0.181802, Final residual = 6.74481e-08, No Iterations 5
linear solve U 2503
[OGL LOG] init_host_sparsity_pattern : 0 ms
[OGL LOG] matrix not stored update host matrix
[OGL LOG] update_host_mtx : 0 ms
[OGL LOG] matrix is not yet sorted, compute sorting idxs
[OGL LOG] compute_sort : 20 ms
[OGL LOG] matrix is not yet sorted, sorting host matrix
[OGL LOG] sort_host_mtx_sparsity_pattern : 0 ms
[OGL LOG] sort_host_mtx : 0 ms
[OGL LOG] init_preconditioner : 0 ms
[OGL LOG] solve : 20 ms
nonecudaGKOIR:  Solving for p, Initial residual = 0.516107, Final residual = 3.90592e-07, No Iterations 5
linear solve p 778864
time step continuity errors : sum local = 7.16555e-09, global = -2.04717e-19, cumulative = -2.04717e-19
[OGL LOG] init_preconditioner : 0 ms
[OGL LOG] solve : 21 ms
nonecudaGKOIR:  Solving for p, Initial residual = 0.271044, Final residual = 1.52282e-07, No Iterations 5
linear solve p 21713
time step continuity errors : sum local = 1.63938e-09, global = 2.10998e-19, cumulative = 6.28149e-21
ExecutionTime = 0.85 s  ClockTime = 1 s

Time = 0.0133333

Courant Number mean: 0.171844 max: 0.7773
DILUPBiCGStab:  Solving for Ux, Initial residual = 0.0210909, Final residual = 3.34907e-08, No Iterations 5
DILUPBiCGStab:  Solving for Uy, Initial residual = 0.029498, Final residual = 2.90875e-08, No Iterations 5
DILUPBiCGStab:  Solving for Uz, Initial residual = 0.0732066, Final residual = 9.46224e-08, No Iterations 5
linear solve U 1896
[OGL LOG] init_preconditioner : 0 ms
[OGL LOG] solve : 20 ms
nonecudaGKOIR:  Solving for p, Initial residual = 0.145576, Final residual = 8.26463e-08, No Iterations 5
linear solve p 20593
time step continuity errors : sum local = 1.32871e-05, global = -3.15696e-19, cumulative = -3.09415e-19
[OGL LOG] init_preconditioner : 0 ms
[OGL LOG] solve : 17 ms
nonecudaGKOIR:  Solving for p, Initial residual = 0.0851815, Final residual = 5.54663e-07, No Iterations 4
linear solve p 17507
time step continuity errors : sum local = 1.20395e-05, global = 8.37769e-20, cumulative = -2.25638e-19
ExecutionTime = 0.89 s  ClockTime = 1 s

Time = 0.02

Courant Number mean: 0.175686 max: 0.781333
DILUPBiCGStab:  Solving for Ux, Initial residual = 0.00574943, Final residual = 1.22876e-08, No Iterations 5
DILUPBiCGStab:  Solving for Uy, Initial residual = 0.0110708, Final residual = 1.81269e-08, No Iterations 5
DILUPBiCGStab:  Solving for Uz, Initial residual = 0.020086, Final residual = 1.3126e-08, No Iterations 5
linear solve U 1919
[OGL LOG] init_preconditioner : 0 ms
[OGL LOG] solve : 20 ms
nonecudaGKOIR:  Solving for p, Initial residual = 0.0224852, Final residual = 1.39363e-07, No Iterations 4
linear solve p 20362
time step continuity errors : sum local = 1.1876e-05, global = -3.72077e-19, cumulative = -5.97715e-19
[OGL LOG] init_preconditioner : 0 ms
[OGL LOG] solve : 23 ms
nonecudaGKOIR:  Solving for p, Initial residual = 0.0139033, Final residual = 9.40721e-08, No Iterations 4
linear solve p 24303
time step continuity errors : sum local = 1.19736e-05, global = -6.27996e-20, cumulative = -6.60514e-19
ExecutionTime = 0.93 s  ClockTime = 1 s

Time = 0.0266667

Courant Number mean: 0.178552 max: 0.784986
DILUPBiCGStab:  Solving for Ux, Initial residual = 0.00342735, Final residual = 5.12941e-09, No Iterations 5
DILUPBiCGStab:  Solving for Uy, Initial residual = 0.00658333, Final residual = 1.15539e-08, No Iterations 5
DILUPBiCGStab:  Solving for Uz, Initial residual = 0.00949853, Final residual = 9.60754e-09, No Iterations 5
linear solve U 1939
[OGL LOG] init_preconditioner : 0 ms
[OGL LOG] solve : 23 ms
nonecudaGKOIR:  Solving for p, Initial residual = 0.0101077, Final residual = 4.94204e-08, No Iterations 4
linear solve p 23273
time step continuity errors : sum local = 1.19894e-05, global = -2.8283e-19, cumulative = -9.43344e-19
[OGL LOG] init_preconditioner : 0 ms
[OGL LOG] solve : 14 ms
nonecudaGKOIR:  Solving for p, Initial residual = 0.00719417, Final residual = 7.82583e-07, No Iterations 3
linear solve p 14931
time step continuity errors : sum local = 1.19802e-05, global = -2.82565e-20, cumulative = -9.716e-19
ExecutionTime = 0.98 s  ClockTime = 1 s

Time = 0.0333333

Courant Number mean: 0.180502 max: 0.787346
DILUPBiCGStab:  Solving for Ux, Initial residual = 0.00221544, Final residual = 1.91303e-09, No Iterations 5
DILUPBiCGStab:  Solving for Uy, Initial residual = 0.004484, Final residual = 2.89403e-09, No Iterations 5
DILUPBiCGStab:  Solving for Uz, Initial residual = 0.00628936, Final residual = 3.2368e-09, No Iterations 5
linear solve U 1954
[OGL LOG] init_preconditioner : 0 ms
[OGL LOG] solve : 13 ms
nonecudaGKOIR:  Solving for p, Initial residual = 0.00453709, Final residual = 5.68219e-07, No Iterations 3
linear solve p 13361
time step continuity errors : sum local = 1.19767e-05, global = 1.27055e-19, cumulative = -8.44545e-19
[OGL LOG] init_preconditioner : 0 ms
[OGL LOG] solve : 14 ms
nonecudaGKOIR:  Solving for p, Initial residual = 0.00321807, Final residual = 3.5156e-07, No Iterations 3
linear solve p 14273
time step continuity errors : sum local = 1.19785e-05, global = 3.66452e-19, cumulative = -4.78093e-19
ExecutionTime = 1.01 s  ClockTime = 1 s

Time = 0.04

Courant Number mean: 0.181846 max: 0.788821
DILUPBiCGStab:  Solving for Ux, Initial residual = 0.00152159, Final residual = 8.48225e-10, No Iterations 5
DILUPBiCGStab:  Solving for Uy, Initial residual = 0.00314061, Final residual = 2.02437e-09, No Iterations 5
DILUPBiCGStab:  Solving for Uz, Initial residual = 0.00421512, Final residual = 2.08548e-09, No Iterations 5
linear solve U 2009
[OGL LOG] init_preconditioner : 0 ms
[OGL LOG] solve : 13 ms
nonecudaGKOIR:  Solving for p, Initial residual = 0.003325, Final residual = 3.1694e-07, No Iterations 3
linear solve p 13496
time step continuity errors : sum local = 1.19774e-05, global = -1.2754e-19, cumulative = -6.05634e-19
[OGL LOG] init_preconditioner : 0 ms
[OGL LOG] solve : 13 ms
nonecudaGKOIR:  Solving for p, Initial residual = 0.00243786, Final residual = 2.64554e-07, No Iterations 3
linear solve p 13380
time step continuity errors : sum local = 1.19782e-05, global = -9.94161e-20, cumulative = -7.0505e-19
ExecutionTime = 1.04 s  ClockTime = 1 s

Time = 0.0466667

Courant Number mean: 0.182778 max: 0.78982
DILUPBiCGStab:  Solving for Ux, Initial residual = 0.00104888, Final residual = 5.7211e-10, No Iterations 5
DILUPBiCGStab:  Solving for Uy, Initial residual = 0.00219916, Final residual = 1.0942e-09, No Iterations 5
DILUPBiCGStab:  Solving for Uz, Initial residual = 0.00292419, Final residual = 1.37608e-09, No Iterations 5
linear solve U 1878
[OGL LOG] init_preconditioner : 0 ms
[OGL LOG] solve : 13 ms
nonecudaGKOIR:  Solving for p, Initial residual = 0.0021675, Final residual = 2.43465e-07, No Iterations 3
linear solve p 13796
time step continuity errors : sum local = 1.19776e-05, global = 7.56595e-21, cumulative = -6.97484e-19
[OGL LOG] init_preconditioner : 0 ms
[OGL LOG] solve : 14 ms
nonecudaGKOIR:  Solving for p, Initial residual = 0.00157941, Final residual = 1.49613e-07, No Iterations 3
linear solve p 14301
time step continuity errors : sum local = 1.1978e-05, global = -2.10148e-19, cumulative = -9.07632e-19
ExecutionTime = 1.07 s  ClockTime = 1 s

Time = 0.0533333

Courant Number mean: 0.183428 max: 0.790487
DILUPBiCGStab:  Solving for Ux, Initial residual = 0.000730821, Final residual = 3.54072e-10, No Iterations 5
DILUPBiCGStab:  Solving for Uy, Initial residual = 0.00154854, Final residual = 6.38664e-10, No Iterations 5
DILUPBiCGStab:  Solving for Uz, Initial residual = 0.00201388, Final residual = 9.68712e-10, No Iterations 5
linear solve U 1969
[OGL LOG] init_preconditioner : 0 ms
[OGL LOG] solve : 14 ms
nonecudaGKOIR:  Solving for p, Initial residual = 0.0015285, Final residual = 1.58101e-07, No Iterations 3
linear solve p 14408
time step continuity errors : sum local = 1.19776e-05, global = -5.31601e-21, cumulative = -9.12948e-19
[OGL LOG] init_preconditioner : 0 ms
[OGL LOG] solve : 13 ms
nonecudaGKOIR:  Solving for p, Initial residual = 0.00111789, Final residual = 1.49181e-07, No Iterations 3
linear solve p 13979
time step continuity errors : sum local = 1.19779e-05, global = 2.97564e-19, cumulative = -6.15383e-19
ExecutionTime = 1.11 s  ClockTime = 1 s

Time = 0.06

Courant Number mean: 0.183882 max: 0.790942
DILUPBiCGStab:  Solving for Ux, Initial residual = 0.000512661, Final residual = 2.40648e-10, No Iterations 5
DILUPBiCGStab:  Solving for Uy, Initial residual = 0.0010914, Final residual = 3.82384e-10, No Iterations 5
DILUPBiCGStab:  Solving for Uz, Initial residual = 0.00139003, Final residual = 6.83596e-10, No Iterations 5
linear solve U 1871
[OGL LOG] init_preconditioner : 0 ms
[OGL LOG] solve : 14 ms
nonecudaGKOIR:  Solving for p, Initial residual = 0.00105866, Final residual = 1.04714e-07, No Iterations 3
linear solve p 14506
time step continuity errors : sum local = 1.19776e-05, global = 2.41162e-19, cumulative = -3.74222e-19
[OGL LOG] init_preconditioner : 0 ms
[OGL LOG] solve : 14 ms
nonecudaGKOIR:  Solving for p, Initial residual = 0.000774462, Final residual = 8.22916e-08, No Iterations 3
linear solve p 14476
time step continuity errors : sum local = 1.19779e-05, global = 5.79247e-20, cumulative = -3.16297e-19
ExecutionTime = 1.13 s  ClockTime = 1 s

Time = 0.0666667

Courant Number mean: 0.184199 max: 0.791252
DILUPBiCGStab:  Solving for Ux, Initial residual = 0.000360482, Final residual = 1.62754e-10, No Iterations 5
DILUPBiCGStab:  Solving for Uy, Initial residual = 0.000770498, Final residual = 2.42776e-10, No Iterations 5
DILUPBiCGStab:  Solving for Uz, Initial residual = 0.000960144, Final residual = 4.76251e-10, No Iterations 5
linear solve U 1974
[OGL LOG] init_preconditioner : 0 ms
[OGL LOG] solve : 14 ms
nonecudaGKOIR:  Solving for p, Initial residual = 0.00074146, Final residual = 9.19051e-08, No Iterations 3
linear solve p 14878
time step continuity errors : sum local = 1.19777e-05, global = -8.10416e-20, cumulative = -3.97339e-19
[OGL LOG] init_preconditioner : 0 ms
[OGL LOG] solve : 14 ms
nonecudaGKOIR:  Solving for p, Initial residual = 0.000541866, Final residual = 5.62486e-08, No Iterations 3
linear solve p 14636
time step continuity errors : sum local = 1.19779e-05, global = 1.1929e-19, cumulative = -2.78048e-19
ExecutionTime = 1.16 s  ClockTime = 1 s

End

