/*---------------------------------------------------------------------------*\
  =========                 |
  \\      /  F ield         | OpenFOAM: The Open Source CFD Toolbox
   \\    /   O peration     | Website:  https://openfoam.org
    \\  /    A nd           | Version:  8
     \\/     M anipulation  |
\*---------------------------------------------------------------------------*/
Build  : 8-ef60d22ea792
Exec   : icoFoam
Date   : Sep 15 2021
Time   : 13:25:07
Host   : "uc2n482.localdomain"
PID    : 3630312
I/O    : uncollated
Case   : /pfs/data5/home/kit/scc/nq7776/data/code/OBR/lidDrivenCavity3D/Variation_init/100/Variation_mesh/75/Variation_matrix_solver/CG_BJ_CUDA/Variation_maxBlockSize/16/1631705090
nProcs : 1
sigFpe : Enabling floating point exception trapping (FOAM_SIGFPE).
fileModificationChecking : Monitoring run-time modified files using timeStampMaster (fileModificationSkew 10)
allowSystemOperations : Allowing user-supplied system call operations

// * * * * * * * * * * * * * * * * * * * * * * * * * * * * * * * * * * * * * //
Create time

Create mesh for time = 0

Reading transportProperties

Reading field p

Reading field U

Reading/calculating face flux field phi


Starting time loop

Time = 0.00133333

Courant Number mean: 0.170873 max: 0.955248
DILUPBiCGStab:  Solving for Ux, Initial residual = 0.150945, Final residual = 8.53015e-05, No Iterations 5
DILUPBiCGStab:  Solving for Uy, Initial residual = 0.292287, Final residual = 0.000196272, No Iterations 5
DILUPBiCGStab:  Solving for Uz, Initial residual = 0.443155, Final residual = 0.000590488, No Iterations 5
linear solve U 442844
[OGL LOG] init_host_sparsity_pattern : 122 ms
[OGL LOG] matrix not stored update host matrix
[OGL LOG] update_host_mtx : 66 ms
[OGL LOG] matrix is not yet sorted, compute sorting idxs
[OGL LOG] compute_sort : 3804 ms
[OGL LOG] matrix is not yet sorted, sorting host matrix
[OGL LOG] sort_host_mtx_sparsity_pattern : 84 ms
[OGL LOG] sort_host_mtx : 52 ms
[OGL LOG] init_preconditioner : 45 ms
[OGL LOG] solve : 360 ms
BJcudaGKOCG:  Solving for p, Initial residual = 0.621595, Final residual = 9.67257e-07, No Iterations 502
linear solve p 5320435
time step continuity errors : sum local = 1.17749e-09, global = 2.36834e-21, cumulative = 2.36834e-21
[OGL LOG] init_preconditioner : 0 ms
[OGL LOG] solve : 380 ms
BJcudaGKOCG:  Solving for p, Initial residual = 0.292224, Final residual = 9.96694e-07, No Iterations 541
linear solve p 393719
time step continuity errors : sum local = 6.93381e-10, global = 2.96273e-21, cumulative = 5.33106e-21
ExecutionTime = 8.34 s  ClockTime = 9 s

Time = 0.00266667

Courant Number mean: 0.172833 max: 0.953296
DILUPBiCGStab:  Solving for Ux, Initial residual = 0.00633139, Final residual = 3.02548e-05, No Iterations 5
DILUPBiCGStab:  Solving for Uy, Initial residual = 0.0152139, Final residual = 6.99148e-05, No Iterations 5
DILUPBiCGStab:  Solving for Uz, Initial residual = 0.0761691, Final residual = 0.00048092, No Iterations 5
linear solve U 425871
[OGL LOG] init_preconditioner : 0 ms
[OGL LOG] solve : 388 ms
BJcudaGKOCG:  Solving for p, Initial residual = 0.306072, Final residual = 9.85481e-07, No Iterations 549
linear solve p 402217
time step continuity errors : sum local = 1.6411e-07, global = -3.92787e-21, cumulative = 1.4032e-21
[OGL LOG] init_preconditioner : 0 ms
[OGL LOG] solve : 384 ms
BJcudaGKOCG:  Solving for p, Initial residual = 0.226013, Final residual = 9.67134e-07, No Iterations 548
linear solve p 397421
time step continuity errors : sum local = 1.58385e-07, global = -8.21687e-21, cumulative = -6.81367e-21
ExecutionTime = 9.82 s  ClockTime = 10 s

Time = 0.004

Courant Number mean: 0.174523 max: 0.954278
DILUPBiCGStab:  Solving for Ux, Initial residual = 0.00265328, Final residual = 1.6344e-05, No Iterations 5
DILUPBiCGStab:  Solving for Uy, Initial residual = 0.00797261, Final residual = 4.00531e-05, No Iterations 5
DILUPBiCGStab:  Solving for Uz, Initial residual = 0.0352927, Final residual = 0.0002759, No Iterations 5
linear solve U 408365
[OGL LOG] init_preconditioner : 0 ms
[OGL LOG] solve : 361 ms
BJcudaGKOCG:  Solving for p, Initial residual = 0.192303, Final residual = 9.99135e-07, No Iterations 503
linear solve p 375238
time step continuity errors : sum local = 1.60799e-07, global = -1.75241e-20, cumulative = -2.43378e-20
[OGL LOG] init_preconditioner : 0 ms
[OGL LOG] solve : 353 ms
BJcudaGKOCG:  Solving for p, Initial residual = 0.148949, Final residual = 9.63393e-07, No Iterations 500
linear solve p 366643
time step continuity errors : sum local = 1.58149e-07, global = -2.72417e-20, cumulative = -5.15795e-20
ExecutionTime = 11.24 s  ClockTime = 12 s

Time = 0.00533333

Courant Number mean: 0.176005 max: 0.954647
DILUPBiCGStab:  Solving for Ux, Initial residual = 0.00207786, Final residual = 1.18176e-05, No Iterations 5
DILUPBiCGStab:  Solving for Uy, Initial residual = 0.00644365, Final residual = 2.45212e-05, No Iterations 5
DILUPBiCGStab:  Solving for Uz, Initial residual = 0.023394, Final residual = 0.00015984, No Iterations 5
linear solve U 402972
[OGL LOG] init_preconditioner : 0 ms
[OGL LOG] solve : 350 ms
BJcudaGKOCG:  Solving for p, Initial residual = 0.142973, Final residual = 9.75427e-07, No Iterations 497
linear solve p 363613
time step continuity errors : sum local = 1.57304e-07, global = -1.04293e-20, cumulative = -6.20088e-20
[OGL LOG] init_preconditioner : 0 ms
[OGL LOG] solve : 347 ms
BJcudaGKOCG:  Solving for p, Initial residual = 0.114364, Final residual = 9.87233e-07, No Iterations 487
linear solve p 360722
time step continuity errors : sum local = 1.57971e-07, global = 1.04822e-20, cumulative = -5.15267e-20
ExecutionTime = 12.66 s  ClockTime = 13 s

Time = 0.00666667

Courant Number mean: 0.177347 max: 0.955032
DILUPBiCGStab:  Solving for Ux, Initial residual = 0.00176723, Final residual = 9.59552e-06, No Iterations 5
DILUPBiCGStab:  Solving for Uy, Initial residual = 0.00540512, Final residual = 1.95418e-05, No Iterations 5
DILUPBiCGStab:  Solving for Uz, Initial residual = 0.0162628, Final residual = 0.000102886, No Iterations 5
linear solve U 399939
[OGL LOG] init_preconditioner : 0 ms
[OGL LOG] solve : 345 ms
BJcudaGKOCG:  Solving for p, Initial residual = 0.108081, Final residual = 9.78634e-07, No Iterations 488
linear solve p 358857
time step continuity errors : sum local = 1.59352e-07, global = -1.08633e-20, cumulative = -6.239e-20
[OGL LOG] init_preconditioner : 0 ms
[OGL LOG] solve : 342 ms
BJcudaGKOCG:  Solving for p, Initial residual = 0.086315, Final residual = 9.84139e-07, No Iterations 486
linear solve p 356381
time step continuity errors : sum local = 1.58154e-07, global = -1.30852e-20, cumulative = -7.54752e-20
ExecutionTime = 14.03 s  ClockTime = 14 s

Time = 0.008

Courant Number mean: 0.178568 max: 0.955457
DILUPBiCGStab:  Solving for Ux, Initial residual = 0.00153482, Final residual = 7.80241e-06, No Iterations 5
DILUPBiCGStab:  Solving for Uy, Initial residual = 0.00468738, Final residual = 1.3856e-05, No Iterations 5
DILUPBiCGStab:  Solving for Uz, Initial residual = 0.0134864, Final residual = 6.70307e-05, No Iterations 5
linear solve U 396533
[OGL LOG] init_preconditioner : 0 ms
[OGL LOG] solve : 346 ms
BJcudaGKOCG:  Solving for p, Initial residual = 0.084918, Final residual = 9.58563e-07, No Iterations 489
linear solve p 360156
time step continuity errors : sum local = 1.5735e-07, global = 2.375e-20, cumulative = -5.17252e-20
[OGL LOG] init_preconditioner : 0 ms
[OGL LOG] solve : 343 ms
BJcudaGKOCG:  Solving for p, Initial residual = 0.0685449, Final residual = 9.37164e-07, No Iterations 488
linear solve p 356574
time step continuity errors : sum local = 1.57964e-07, global = -1.51709e-20, cumulative = -6.6896e-20
ExecutionTime = 15.41 s  ClockTime = 16 s

Time = 0.00933333

Courant Number mean: 0.17967 max: 0.955718
DILUPBiCGStab:  Solving for Ux, Initial residual = 0.00135005, Final residual = 6.54087e-06, No Iterations 5
DILUPBiCGStab:  Solving for Uy, Initial residual = 0.00411443, Final residual = 1.15748e-05, No Iterations 5
DILUPBiCGStab:  Solving for Uz, Initial residual = 0.0103824, Final residual = 4.52405e-05, No Iterations 5
linear solve U 397692
[OGL LOG] init_preconditioner : 0 ms
[OGL LOG] solve : 339 ms
BJcudaGKOCG:  Solving for p, Initial residual = 0.0672316, Final residual = 9.41247e-07, No Iterations 485
linear solve p 352527
time step continuity errors : sum local = 1.58664e-07, global = 2.27578e-21, cumulative = -6.46203e-20
[OGL LOG] init_preconditioner : 0 ms
[OGL LOG] solve : 340 ms
BJcudaGKOCG:  Solving for p, Initial residual = 0.054277, Final residual = 9.36862e-07, No Iterations 484
linear solve p 353417
time step continuity errors : sum local = 1.58095e-07, global = 2.88605e-20, cumulative = -3.57597e-20
ExecutionTime = 16.75 s  ClockTime = 17 s

Time = 0.0106667

Courant Number mean: 0.180675 max: 0.956053
DILUPBiCGStab:  Solving for Ux, Initial residual = 0.0012042, Final residual = 5.42757e-06, No Iterations 5
DILUPBiCGStab:  Solving for Uy, Initial residual = 0.00364519, Final residual = 8.93453e-06, No Iterations 5
DILUPBiCGStab:  Solving for Uz, Initial residual = 0.00898053, Final residual = 3.40037e-05, No Iterations 5
linear solve U 401639
[OGL LOG] init_preconditioner : 0 ms
[OGL LOG] solve : 203 ms
BJcudaGKOCG:  Solving for p, Initial residual = 0.0535918, Final residual = 9.89988e-07, No Iterations 286
linear solve p 216208
time step continuity errors : sum local = 1.57616e-07, global = -7.74682e-21, cumulative = -4.35065e-20
[OGL LOG] init_preconditioner : 0 ms
[OGL LOG] solve : 202 ms
BJcudaGKOCG:  Solving for p, Initial residual = 0.0434605, Final residual = 9.95188e-07, No Iterations 286
linear solve p 215801
time step continuity errors : sum local = 1.58045e-07, global = -3.93802e-20, cumulative = -8.28867e-20
ExecutionTime = 17.83 s  ClockTime = 18 s

Time = 0.012

Courant Number mean: 0.181586 max: 0.956269
DILUPBiCGStab:  Solving for Ux, Initial residual = 0.00107258, Final residual = 4.24387e-06, No Iterations 5
DILUPBiCGStab:  Solving for Uy, Initial residual = 0.00324668, Final residual = 7.8989e-06, No Iterations 5
DILUPBiCGStab:  Solving for Uz, Initial residual = 0.00732375, Final residual = 2.66032e-05, No Iterations 5
linear solve U 400276
[OGL LOG] init_preconditioner : 0 ms
[OGL LOG] solve : 343 ms
BJcudaGKOCG:  Solving for p, Initial residual = 0.0432812, Final residual = 9.55164e-07, No Iterations 480
linear solve p 357086
time step continuity errors : sum local = 1.58355e-07, global = -1.0621e-20, cumulative = -9.35077e-20
[OGL LOG] init_preconditioner : 0 ms
[OGL LOG] solve : 335 ms
BJcudaGKOCG:  Solving for p, Initial residual = 0.0351249, Final residual = 9.73974e-07, No Iterations 478
linear solve p 348458
time step continuity errors : sum local = 1.58076e-07, global = 1.00806e-21, cumulative = -9.24997e-20
ExecutionTime = 19.19 s  ClockTime = 20 s

Time = 0.0133333

Courant Number mean: 0.182419 max: 0.956526
DILUPBiCGStab:  Solving for Ux, Initial residual = 0.000967496, Final residual = 3.81034e-06, No Iterations 5
DILUPBiCGStab:  Solving for Uy, Initial residual = 0.00291389, Final residual = 6.31404e-06, No Iterations 5
DILUPBiCGStab:  Solving for Uz, Initial residual = 0.00649731, Final residual = 2.0394e-05, No Iterations 5
linear solve U 396442
[OGL LOG] init_preconditioner : 0 ms
[OGL LOG] solve : 338 ms
BJcudaGKOCG:  Solving for p, Initial residual = 0.0346797, Final residual = 9.8466e-07, No Iterations 476
linear solve p 352556
time step continuity errors : sum local = 1.57753e-07, global = 1.10651e-20, cumulative = -8.14346e-20
[OGL LOG] init_preconditioner : 0 ms
[OGL LOG] solve : 333 ms
BJcudaGKOCG:  Solving for p, Initial residual = 0.0282202, Final residual = 9.70516e-07, No Iterations 475
linear solve p 346208
time step continuity errors : sum local = 1.58008e-07, global = 6.97665e-21, cumulative = -7.44579e-20
ExecutionTime = 20.53 s  ClockTime = 21 s

End

