/*---------------------------------------------------------------------------*\
  =========                 |
  \\      /  F ield         | OpenFOAM: The Open Source CFD Toolbox
   \\    /   O peration     | Website:  https://openfoam.org
    \\  /    A nd           | Version:  8
     \\/     M anipulation  |
\*---------------------------------------------------------------------------*/
Build  : 8-ef60d22ea792
Exec   : icoFoam
Date   : Sep 15 2021
Time   : 13:36:17
Host   : "uc2n482.localdomain"
PID    : 3633986
I/O    : uncollated
Case   : /pfs/data5/home/kit/scc/nq7776/data/code/OBR/lidDrivenCavity3D/Variation_init/100/Variation_mesh/25/Variation_matrix_solver/BiCGStab_NoPrecond_CUDA/1631705774
nProcs : 1
sigFpe : Enabling floating point exception trapping (FOAM_SIGFPE).
fileModificationChecking : Monitoring run-time modified files using timeStampMaster (fileModificationSkew 10)
allowSystemOperations : Allowing user-supplied system call operations

// * * * * * * * * * * * * * * * * * * * * * * * * * * * * * * * * * * * * * //
Create time

Create mesh for time = 0

Reading transportProperties

Reading field p

Reading field U

Reading/calculating face flux field phi


Starting time loop

Time = 0.004

Courant Number mean: 0.169656 max: 0.889609
DILUPBiCGStab:  Solving for Ux, Initial residual = 0.143151, Final residual = 1.76454e-06, No Iterations 5
DILUPBiCGStab:  Solving for Uy, Initial residual = 0.204592, Final residual = 1.77082e-06, No Iterations 5
DILUPBiCGStab:  Solving for Uz, Initial residual = 0.476047, Final residual = 3.97645e-06, No Iterations 5
linear solve U 11950
[OGL LOG] init_host_sparsity_pattern : 4 ms
[OGL LOG] matrix not stored update host matrix
[OGL LOG] update_host_mtx : 2 ms
[OGL LOG] matrix is not yet sorted, compute sorting idxs
[OGL LOG] compute_sort : 111 ms
[OGL LOG] matrix is not yet sorted, sorting host matrix
[OGL LOG] sort_host_mtx_sparsity_pattern : 2 ms
[OGL LOG] sort_host_mtx : 1 ms
[OGL LOG] init_preconditioner : 0 ms
[OGL LOG] solve : 49 ms
nonecudaGKOBiCGStab:  Solving for p, Initial residual = 0.578841, Final residual = 6.69785e-07, No Iterations 180
linear solve p 932766
time step continuity errors : sum local = 9.46349e-09, global = 1.64937e-19, cumulative = 1.64937e-19
[OGL LOG] init_preconditioner : 0 ms
[OGL LOG] solve : 46 ms
nonecudaGKOBiCGStab:  Solving for p, Initial residual = 0.275539, Final residual = 8.98339e-07, No Iterations 177
linear solve p 47278
time step continuity errors : sum local = 7.86965e-09, global = -9.97242e-20, cumulative = 6.52129e-20
ExecutionTime = 1.09 s  ClockTime = 1 s

Time = 0.008

Courant Number mean: 0.173868 max: 0.868145
DILUPBiCGStab:  Solving for Ux, Initial residual = 0.0151882, Final residual = 1.2256e-06, No Iterations 5
DILUPBiCGStab:  Solving for Uy, Initial residual = 0.0247694, Final residual = 1.80712e-06, No Iterations 5
DILUPBiCGStab:  Solving for Uz, Initial residual = 0.0887794, Final residual = 3.87552e-06, No Iterations 5
linear solve U 9808
[OGL LOG] init_preconditioner : 0 ms
[OGL LOG] solve : 45 ms
nonecudaGKOBiCGStab:  Solving for p, Initial residual = 0.175316, Final residual = 9.36624e-07, No Iterations 171
linear solve p 46414
time step continuity errors : sum local = 3.28882e-06, global = 9.92766e-20, cumulative = 1.64489e-19
[OGL LOG] init_preconditioner : 0 ms
[OGL LOG] solve : 42 ms
nonecudaGKOBiCGStab:  Solving for p, Initial residual = 0.103198, Final residual = 6.22629e-07, No Iterations 162
linear solve p 43229
time step continuity errors : sum local = 3.06104e-06, global = 3.08638e-20, cumulative = 1.95353e-19
ExecutionTime = 1.2 s  ClockTime = 1 s

Time = 0.012

Courant Number mean: 0.177048 max: 0.867817
DILUPBiCGStab:  Solving for Ux, Initial residual = 0.00469088, Final residual = 2.96311e-07, No Iterations 5
DILUPBiCGStab:  Solving for Uy, Initial residual = 0.00998806, Final residual = 4.80825e-07, No Iterations 5
DILUPBiCGStab:  Solving for Uz, Initial residual = 0.0313857, Final residual = 1.53165e-06, No Iterations 5
linear solve U 9878
[OGL LOG] init_preconditioner : 0 ms
[OGL LOG] solve : 41 ms
nonecudaGKOBiCGStab:  Solving for p, Initial residual = 0.0491904, Final residual = 1.80155e-07, No Iterations 153
linear solve p 41707
time step continuity errors : sum local = 3.01812e-06, global = -3.94879e-20, cumulative = 1.55865e-19
[OGL LOG] init_preconditioner : 0 ms
[OGL LOG] solve : 40 ms
nonecudaGKOBiCGStab:  Solving for p, Initial residual = 0.0326468, Final residual = 9.11695e-07, No Iterations 152
linear solve p 40830
time step continuity errors : sum local = 3.048e-06, global = -8.24037e-21, cumulative = 1.47625e-19
ExecutionTime = 1.3 s  ClockTime = 1 s

Time = 0.016

Courant Number mean: 0.179565 max: 0.869322
DILUPBiCGStab:  Solving for Ux, Initial residual = 0.00314023, Final residual = 1.45448e-07, No Iterations 5
DILUPBiCGStab:  Solving for Uy, Initial residual = 0.00682068, Final residual = 2.60994e-07, No Iterations 5
DILUPBiCGStab:  Solving for Uz, Initial residual = 0.0131094, Final residual = 5.61361e-07, No Iterations 5
linear solve U 13625
[OGL LOG] init_preconditioner : 0 ms
[OGL LOG] solve : 39 ms
nonecudaGKOBiCGStab:  Solving for p, Initial residual = 0.019426, Final residual = 7.04945e-07, No Iterations 145
linear solve p 39581
time step continuity errors : sum local = 3.05139e-06, global = -4.6825e-20, cumulative = 1.008e-19
[OGL LOG] init_preconditioner : 0 ms
[OGL LOG] solve : 36 ms
nonecudaGKOBiCGStab:  Solving for p, Initial residual = 0.0140361, Final residual = 1.17237e-07, No Iterations 137
linear solve p 37128
time step continuity errors : sum local = 3.04659e-06, global = -1.71175e-19, cumulative = -7.03752e-20
ExecutionTime = 1.39 s  ClockTime = 1 s

Time = 0.02

Courant Number mean: 0.181574 max: 0.870814
DILUPBiCGStab:  Solving for Ux, Initial residual = 0.00232688, Final residual = 9.81176e-08, No Iterations 5
DILUPBiCGStab:  Solving for Uy, Initial residual = 0.00517833, Final residual = 1.34503e-07, No Iterations 5
DILUPBiCGStab:  Solving for Uz, Initial residual = 0.00911038, Final residual = 2.66907e-07, No Iterations 5
linear solve U 9966
[OGL LOG] init_preconditioner : 0 ms
[OGL LOG] solve : 37 ms
nonecudaGKOBiCGStab:  Solving for p, Initial residual = 0.0100103, Final residual = 9.42261e-07, No Iterations 140
linear solve p 38068
time step continuity errors : sum local = 3.04563e-06, global = 1.19478e-20, cumulative = -5.84274e-20
[OGL LOG] init_preconditioner : 0 ms
[OGL LOG] solve : 35 ms
nonecudaGKOBiCGStab:  Solving for p, Initial residual = 0.00751229, Final residual = 9.34196e-07, No Iterations 133
linear solve p 35635
time step continuity errors : sum local = 3.04986e-06, global = 7.60427e-20, cumulative = 1.76153e-20
ExecutionTime = 1.48 s  ClockTime = 1 s

Time = 0.024

Courant Number mean: 0.183143 max: 0.871972
DILUPBiCGStab:  Solving for Ux, Initial residual = 0.00177467, Final residual = 5.91477e-08, No Iterations 5
DILUPBiCGStab:  Solving for Uy, Initial residual = 0.00408528, Final residual = 1.08488e-07, No Iterations 5
DILUPBiCGStab:  Solving for Uz, Initial residual = 0.00676012, Final residual = 1.91114e-07, No Iterations 5
linear solve U 10012
[OGL LOG] init_preconditioner : 0 ms
[OGL LOG] solve : 36 ms
nonecudaGKOBiCGStab:  Solving for p, Initial residual = 0.00619709, Final residual = 5.10864e-07, No Iterations 135
linear solve p 37016
time step continuity errors : sum local = 3.04642e-06, global = 1.16106e-19, cumulative = 1.33722e-19
[OGL LOG] init_preconditioner : 0 ms
[OGL LOG] solve : 37 ms
nonecudaGKOBiCGStab:  Solving for p, Initial residual = 0.00497342, Final residual = 6.87933e-07, No Iterations 137
linear solve p 37511
time step continuity errors : sum local = 3.04881e-06, global = -1.5078e-19, cumulative = -1.70585e-20
ExecutionTime = 1.57 s  ClockTime = 1 s

Time = 0.028

Courant Number mean: 0.184376 max: 0.872837
DILUPBiCGStab:  Solving for Ux, Initial residual = 0.00137861, Final residual = 4.31164e-08, No Iterations 5
DILUPBiCGStab:  Solving for Uy, Initial residual = 0.00321393, Final residual = 3.21353e-08, No Iterations 5
DILUPBiCGStab:  Solving for Uz, Initial residual = 0.0051273, Final residual = 9.09815e-08, No Iterations 5
linear solve U 9825
[OGL LOG] init_preconditioner : 0 ms
[OGL LOG] solve : 35 ms
nonecudaGKOBiCGStab:  Solving for p, Initial residual = 0.00396795, Final residual = 9.52641e-07, No Iterations 132
linear solve p 35517
time step continuity errors : sum local = 3.04812e-06, global = -1.06503e-19, cumulative = -1.23561e-19
[OGL LOG] init_preconditioner : 0 ms
[OGL LOG] solve : 33 ms
nonecudaGKOBiCGStab:  Solving for p, Initial residual = 0.00329189, Final residual = 3.02671e-07, No Iterations 123
linear solve p 34180
time step continuity errors : sum local = 3.04676e-06, global = -1.33619e-19, cumulative = -2.57181e-19
ExecutionTime = 1.66 s  ClockTime = 1 s

Time = 0.032

Courant Number mean: 0.185344 max: 0.873502
DILUPBiCGStab:  Solving for Ux, Initial residual = 0.00107875, Final residual = 2.91682e-08, No Iterations 5
DILUPBiCGStab:  Solving for Uy, Initial residual = 0.00254707, Final residual = 2.95358e-08, No Iterations 5
DILUPBiCGStab:  Solving for Uz, Initial residual = 0.0039669, Final residual = 7.904e-08, No Iterations 5
linear solve U 10730
[OGL LOG] init_preconditioner : 0 ms
[OGL LOG] solve : 37 ms
nonecudaGKOBiCGStab:  Solving for p, Initial residual = 0.00304439, Final residual = 9.9504e-07, No Iterations 132
linear solve p 37899
time step continuity errors : sum local = 3.04885e-06, global = -9.13207e-21, cumulative = -2.66313e-19
[OGL LOG] init_preconditioner : 0 ms
[OGL LOG] solve : 38 ms
nonecudaGKOBiCGStab:  Solving for p, Initial residual = 0.00256883, Final residual = 9.95149e-07, No Iterations 126
linear solve p 39073
time step continuity errors : sum local = 3.05018e-06, global = -2.13328e-19, cumulative = -4.79641e-19
ExecutionTime = 1.75 s  ClockTime = 1 s

Time = 0.036

Courant Number mean: 0.186106 max: 0.874008
DILUPBiCGStab:  Solving for Ux, Initial residual = 0.000847519, Final residual = 2.2872e-08, No Iterations 5
DILUPBiCGStab:  Solving for Uy, Initial residual = 0.00202645, Final residual = 1.62831e-08, No Iterations 5
DILUPBiCGStab:  Solving for Uz, Initial residual = 0.00304429, Final residual = 5.94569e-08, No Iterations 5
linear solve U 10078
[OGL LOG] init_preconditioner : 0 ms
[OGL LOG] solve : 18 ms
nonecudaGKOBiCGStab:  Solving for p, Initial residual = 0.00228145, Final residual = 9.7038e-07, No Iterations 65
linear solve p 19151
time step continuity errors : sum local = 3.04882e-06, global = 7.35397e-20, cumulative = -4.06101e-19
[OGL LOG] init_preconditioner : 0 ms
[OGL LOG] solve : 34 ms
nonecudaGKOBiCGStab:  Solving for p, Initial residual = 0.00193864, Final residual = 9.77509e-07, No Iterations 130
linear solve p 35239
time step continuity errors : sum local = 3.05014e-06, global = -9.9758e-21, cumulative = -4.16077e-19
ExecutionTime = 1.83 s  ClockTime = 1 s

Time = 0.04

Courant Number mean: 0.186708 max: 0.874398
DILUPBiCGStab:  Solving for Ux, Initial residual = 0.000670105, Final residual = 1.61088e-08, No Iterations 5
DILUPBiCGStab:  Solving for Uy, Initial residual = 0.0016099, Final residual = 1.24024e-08, No Iterations 5
DILUPBiCGStab:  Solving for Uz, Initial residual = 0.00237799, Final residual = 4.28473e-08, No Iterations 5
linear solve U 9785
[OGL LOG] init_preconditioner : 0 ms
[OGL LOG] solve : 32 ms
nonecudaGKOBiCGStab:  Solving for p, Initial residual = 0.00179115, Final residual = 8.81322e-07, No Iterations 122
linear solve p 33315
time step continuity errors : sum local = 3.04911e-06, global = 9.28229e-20, cumulative = -3.23254e-19
[OGL LOG] init_preconditioner : 0 ms
[OGL LOG] solve : 15 ms
nonecudaGKOBiCGStab:  Solving for p, Initial residual = 0.00153223, Final residual = 9.79278e-07, No Iterations 55
linear solve p 15793
time step continuity errors : sum local = 3.04969e-06, global = -1.19759e-19, cumulative = -4.43013e-19
ExecutionTime = 1.9 s  ClockTime = 2 s

End

