/*---------------------------------------------------------------------------*\
  =========                 |
  \\      /  F ield         | OpenFOAM: The Open Source CFD Toolbox
   \\    /   O peration     | Website:  https://openfoam.org
    \\  /    A nd           | Version:  8
     \\/     M anipulation  |
\*---------------------------------------------------------------------------*/
Build  : 8-ef60d22ea792
Exec   : icoFoam
Date   : Sep 15 2021
Time   : 14:08:55
Host   : "uc2n438.localdomain"
PID    : 3547790
I/O    : uncollated
Case   : /pfs/data5/home/kit/scc/nq7776/data/code/OBR/lidDrivenCavity3D/Variation_init/100/Variation_mesh/100/Variation_matrix_solver/CG_NoPrecond_Serial/1631707677
nProcs : 1
sigFpe : Enabling floating point exception trapping (FOAM_SIGFPE).
fileModificationChecking : Monitoring run-time modified files using timeStampMaster (fileModificationSkew 10)
allowSystemOperations : Allowing user-supplied system call operations

// * * * * * * * * * * * * * * * * * * * * * * * * * * * * * * * * * * * * * //
Create time

Create mesh for time = 0

Reading transportProperties

Reading field p

Reading field U

Reading/calculating face flux field phi


Starting time loop

Time = 0.001

Courant Number mean: 0.171005 max: 0.964718
DILUPBiCGStab:  Solving for Ux, Initial residual = 0.00221104, Final residual = 2.10455e-05, No Iterations 5
DILUPBiCGStab:  Solving for Uy, Initial residual = 0.00671465, Final residual = 5.53885e-05, No Iterations 5
DILUPBiCGStab:  Solving for Uz, Initial residual = 0.0303966, Final residual = 0.000635532, No Iterations 5
linear solve U 1050515
nonePCG:  Solving for p, Initial residual = 0.148074, Final residual = 9.90177e-07, No Iterations 834
linear solve p 11165697
time step continuity errors : sum local = 3.16412e-10, global = 4.44863e-21, cumulative = 4.44863e-21
nonePCG:  Solving for p, Initial residual = 0.126694, Final residual = 9.90533e-07, No Iterations 781
linear solve p 10387614
time step continuity errors : sum local = 3.17071e-10, global = -1.06877e-21, cumulative = 3.37986e-21
ExecutionTime = 27.65 s  ClockTime = 27 s

Time = 0.002

Courant Number mean: 0.172431 max: 0.965079
DILUPBiCGStab:  Solving for Ux, Initial residual = 0.00200108, Final residual = 1.87329e-05, No Iterations 5
DILUPBiCGStab:  Solving for Uy, Initial residual = 0.0060433, Final residual = 4.75882e-05, No Iterations 5
DILUPBiCGStab:  Solving for Uz, Initial residual = 0.0264602, Final residual = 0.000565284, No Iterations 5
linear solve U 972498
nonePCG:  Solving for p, Initial residual = 0.132732, Final residual = 9.98294e-07, No Iterations 828
linear solve p 11061631
time step continuity errors : sum local = 3.09806e-10, global = -6.65152e-21, cumulative = -3.27166e-21
nonePCG:  Solving for p, Initial residual = 0.11361, Final residual = 9.86735e-07, No Iterations 824
linear solve p 10966828
time step continuity errors : sum local = 3.05411e-10, global = -2.17972e-20, cumulative = -2.50688e-20
ExecutionTime = 51.13 s  ClockTime = 51 s

Time = 0.003

Courant Number mean: 0.173747 max: 0.965402
DILUPBiCGStab:  Solving for Ux, Initial residual = 0.00178533, Final residual = 1.36846e-05, No Iterations 5
DILUPBiCGStab:  Solving for Uy, Initial residual = 0.00542562, Final residual = 3.58978e-05, No Iterations 5
DILUPBiCGStab:  Solving for Uz, Initial residual = 0.0226264, Final residual = 0.000473509, No Iterations 5
linear solve U 958525
nonePCG:  Solving for p, Initial residual = 0.115647, Final residual = 9.75488e-07, No Iterations 828
linear solve p 11063407
time step continuity errors : sum local = 3.02884e-10, global = 1.40384e-20, cumulative = -1.10305e-20
nonePCG:  Solving for p, Initial residual = 0.0996553, Final residual = 9.92114e-07, No Iterations 823
linear solve p 10998959
time step continuity errors : sum local = 3.08271e-10, global = -7.71621e-21, cumulative = -1.87467e-20
ExecutionTime = 74.63 s  ClockTime = 75 s

Time = 0.004

Courant Number mean: 0.174968 max: 0.965699
DILUPBiCGStab:  Solving for Ux, Initial residual = 0.00162104, Final residual = 1.17366e-05, No Iterations 5
DILUPBiCGStab:  Solving for Uy, Initial residual = 0.00491232, Final residual = 2.98284e-05, No Iterations 5
DILUPBiCGStab:  Solving for Uz, Initial residual = 0.0199446, Final residual = 0.0004177, No Iterations 5
linear solve U 976314
nonePCG:  Solving for p, Initial residual = 0.102853, Final residual = 9.63654e-07, No Iterations 815
linear solve p 10915743
time step continuity errors : sum local = 2.9256e-10, global = 9.6555e-21, cumulative = -9.09121e-21
nonePCG:  Solving for p, Initial residual = 0.088798, Final residual = 9.93361e-07, No Iterations 811
linear solve p 10864435
time step continuity errors : sum local = 3.01295e-10, global = 1.50062e-21, cumulative = -7.59059e-21
ExecutionTime = 97.87 s  ClockTime = 98 s

Time = 0.005

Courant Number mean: 0.176093 max: 0.965959
DILUPBiCGStab:  Solving for Ux, Initial residual = 0.00147174, Final residual = 1.01475e-05, No Iterations 5
DILUPBiCGStab:  Solving for Uy, Initial residual = 0.00446503, Final residual = 2.56141e-05, No Iterations 5
DILUPBiCGStab:  Solving for Uz, Initial residual = 0.0171703, Final residual = 0.00034632, No Iterations 5
linear solve U 971548
nonePCG:  Solving for p, Initial residual = 0.0910058, Final residual = 9.72661e-07, No Iterations 815
linear solve p 10925530
time step continuity errors : sum local = 2.95803e-10, global = 3.39127e-21, cumulative = -4.19932e-21
nonePCG:  Solving for p, Initial residual = 0.0783635, Final residual = 9.66983e-07, No Iterations 812
linear solve p 10857005
time step continuity errors : sum local = 2.94136e-10, global = 6.40235e-21, cumulative = 2.20303e-21
ExecutionTime = 121.1 s  ClockTime = 121 s

Time = 0.006

Courant Number mean: 0.177137 max: 0.966208
DILUPBiCGStab:  Solving for Ux, Initial residual = 0.00134469, Final residual = 8.76468e-06, No Iterations 5
DILUPBiCGStab:  Solving for Uy, Initial residual = 0.00407367, Final residual = 2.14994e-05, No Iterations 5
DILUPBiCGStab:  Solving for Uz, Initial residual = 0.0152815, Final residual = 0.000303066, No Iterations 5
linear solve U 963278
nonePCG:  Solving for p, Initial residual = 0.0807557, Final residual = 9.81988e-07, No Iterations 807
linear solve p 10769582
time step continuity errors : sum local = 2.93541e-10, global = 9.84816e-21, cumulative = 1.20512e-20
nonePCG:  Solving for p, Initial residual = 0.0696021, Final residual = 9.62866e-07, No Iterations 805
linear solve p 10779280
time step continuity errors : sum local = 2.87658e-10, global = -1.39792e-20, cumulative = -1.92799e-21
ExecutionTime = 144.09 s  ClockTime = 144 s

Time = 0.007

Courant Number mean: 0.178102 max: 0.966418
DILUPBiCGStab:  Solving for Ux, Initial residual = 0.00122639, Final residual = 7.64857e-06, No Iterations 5
DILUPBiCGStab:  Solving for Uy, Initial residual = 0.00371959, Final residual = 1.89645e-05, No Iterations 5
DILUPBiCGStab:  Solving for Uz, Initial residual = 0.0132337, Final residual = 0.000248049, No Iterations 5
linear solve U 974353
nonePCG:  Solving for p, Initial residual = 0.071761, Final residual = 9.94051e-07, No Iterations 806
linear solve p 10773098
time step continuity errors : sum local = 2.97513e-10, global = 6.29621e-21, cumulative = 4.36822e-21
nonePCG:  Solving for p, Initial residual = 0.0617205, Final residual = 9.42863e-07, No Iterations 805
linear solve p 10758600
time step continuity errors : sum local = 2.82214e-10, global = -5.8369e-21, cumulative = -1.46868e-21
ExecutionTime = 167.07 s  ClockTime = 167 s

Time = 0.008

Courant Number mean: 0.179 max: 0.966628
DILUPBiCGStab:  Solving for Ux, Initial residual = 0.0011259, Final residual = 6.6262e-06, No Iterations 5
DILUPBiCGStab:  Solving for Uy, Initial residual = 0.00341336, Final residual = 1.607e-05, No Iterations 5
DILUPBiCGStab:  Solving for Uz, Initial residual = 0.0118635, Final residual = 0.000215835, No Iterations 5
linear solve U 971823
nonePCG:  Solving for p, Initial residual = 0.0635254, Final residual = 9.72088e-07, No Iterations 802
linear solve p 10731275
time step continuity errors : sum local = 2.87312e-10, global = 3.69894e-20, cumulative = 3.55207e-20
nonePCG:  Solving for p, Initial residual = 0.0546638, Final residual = 9.73372e-07, No Iterations 800
linear solve p 10745712
time step continuity errors : sum local = 2.87583e-10, global = 6.96398e-21, cumulative = 4.24847e-20
ExecutionTime = 190.01 s  ClockTime = 190 s

Time = 0.009

Courant Number mean: 0.17983 max: 0.966798
DILUPBiCGStab:  Solving for Ux, Initial residual = 0.00103087, Final residual = 5.80621e-06, No Iterations 5
DILUPBiCGStab:  Solving for Uy, Initial residual = 0.00312805, Final residual = 1.44167e-05, No Iterations 5
DILUPBiCGStab:  Solving for Uz, Initial residual = 0.010335, Final residual = 0.000173916, No Iterations 5
linear solve U 965055
nonePCG:  Solving for p, Initial residual = 0.0566866, Final residual = 9.86662e-07, No Iterations 801
linear solve p 10765474
time step continuity errors : sum local = 2.91707e-10, global = -2.06581e-20, cumulative = 2.18267e-20
nonePCG:  Solving for p, Initial residual = 0.0487044, Final residual = 9.17001e-07, No Iterations 800
linear solve p 10735027
time step continuity errors : sum local = 2.71116e-10, global = -1.29237e-20, cumulative = 8.90294e-21
ExecutionTime = 212.95 s  ClockTime = 213 s

Time = 0.01

Courant Number mean: 0.180604 max: 0.966976
DILUPBiCGStab:  Solving for Ux, Initial residual = 0.000950181, Final residual = 5.04572e-06, No Iterations 5
DILUPBiCGStab:  Solving for Uy, Initial residual = 0.0028849, Final residual = 1.23319e-05, No Iterations 5
DILUPBiCGStab:  Solving for Uz, Initial residual = 0.00931985, Final residual = 0.00015109, No Iterations 5
linear solve U 970827
nonePCG:  Solving for p, Initial residual = 0.0500858, Final residual = 9.85539e-07, No Iterations 797
linear solve p 10636842
time step continuity errors : sum local = 2.88829e-10, global = 1.13942e-20, cumulative = 2.02971e-20
nonePCG:  Solving for p, Initial residual = 0.0430419, Final residual = 9.67496e-07, No Iterations 795
linear solve p 10593448
time step continuity errors : sum local = 2.83473e-10, global = 2.81483e-20, cumulative = 4.84454e-20
ExecutionTime = 235.63 s  ClockTime = 236 s

End

