/*---------------------------------------------------------------------------*\
  =========                 |
  \\      /  F ield         | OpenFOAM: The Open Source CFD Toolbox
   \\    /   O peration     | Website:  https://openfoam.org
    \\  /    A nd           | Version:  8
     \\/     M anipulation  |
\*---------------------------------------------------------------------------*/
Build  : 8-ef60d22ea792
Exec   : icoFoam
Date   : Sep 15 2021
Time   : 14:37:58
Host   : "uc2n438.localdomain"
PID    : 3552987
I/O    : uncollated
Case   : /pfs/data5/home/kit/scc/nq7776/data/code/OBR/lidDrivenCavity3D/Variation_init/100/Variation_mesh/45/Variation_matrix_solver/CG_NoPrecond_Serial/1631709475
nProcs : 1
sigFpe : Enabling floating point exception trapping (FOAM_SIGFPE).
fileModificationChecking : Monitoring run-time modified files using timeStampMaster (fileModificationSkew 10)
allowSystemOperations : Allowing user-supplied system call operations

// * * * * * * * * * * * * * * * * * * * * * * * * * * * * * * * * * * * * * //
Create time

Create mesh for time = 0

Reading transportProperties

Reading field p

Reading field U

Reading/calculating face flux field phi


Starting time loop

Time = 0.00222222

Courant Number mean: 0.170285 max: 0.902434
DILUPBiCGStab:  Solving for Ux, Initial residual = 0.0600451, Final residual = 2.42115e-05, No Iterations 5
DILUPBiCGStab:  Solving for Uy, Initial residual = 0.101107, Final residual = 1.64927e-05, No Iterations 5
DILUPBiCGStab:  Solving for Uz, Initial residual = 0.144668, Final residual = 0.000113434, No Iterations 5
linear solve U 81196
nonePCG:  Solving for p, Initial residual = 0.445921, Final residual = 9.24829e-07, No Iterations 370
linear solve p 365632
time step continuity errors : sum local = 1.78396e-09, global = 1.75083e-20, cumulative = 1.75083e-20
nonePCG:  Solving for p, Initial residual = 0.209273, Final residual = 9.78853e-07, No Iterations 367
linear solve p 364077
time step continuity errors : sum local = 1.77094e-09, global = 2.96739e-21, cumulative = 2.04757e-20
ExecutionTime = 1.32 s  ClockTime = 1 s

Time = 0.00444444

Courant Number mean: 0.173241 max: 0.921781
DILUPBiCGStab:  Solving for Ux, Initial residual = 0.0074461, Final residual = 1.04882e-05, No Iterations 5
DILUPBiCGStab:  Solving for Uy, Initial residual = 0.0150051, Final residual = 1.68833e-05, No Iterations 5
DILUPBiCGStab:  Solving for Uz, Initial residual = 0.0406468, Final residual = 2.96361e-05, No Iterations 5
linear solve U 72529
nonePCG:  Solving for p, Initial residual = 0.233953, Final residual = 9.9465e-07, No Iterations 367
linear solve p 363867
time step continuity errors : sum local = 1.5194e-09, global = -8.75881e-20, cumulative = -6.71124e-20
nonePCG:  Solving for p, Initial residual = 0.158034, Final residual = 9.7453e-07, No Iterations 365
linear solve p 362382
time step continuity errors : sum local = 1.40534e-09, global = -2.37001e-20, cumulative = -9.08125e-20
ExecutionTime = 2.16 s  ClockTime = 2 s

Time = 0.00666667

Courant Number mean: 0.175661 max: 0.924366
DILUPBiCGStab:  Solving for Ux, Initial residual = 0.00368604, Final residual = 5.79921e-06, No Iterations 5
DILUPBiCGStab:  Solving for Uy, Initial residual = 0.0102538, Final residual = 7.9587e-06, No Iterations 5
DILUPBiCGStab:  Solving for Uz, Initial residual = 0.0226455, Final residual = 2.15047e-05, No Iterations 5
linear solve U 71793
nonePCG:  Solving for p, Initial residual = 0.106745, Final residual = 9.02552e-07, No Iterations 360
linear solve p 358604
time step continuity errors : sum local = 1.28912e-09, global = -9.21925e-22, cumulative = -9.17345e-20
nonePCG:  Solving for p, Initial residual = 0.072987, Final residual = 9.06854e-07, No Iterations 358
linear solve p 353408
time step continuity errors : sum local = 1.30659e-09, global = -2.22945e-20, cumulative = -1.14029e-19
ExecutionTime = 2.99 s  ClockTime = 3 s

Time = 0.00888889

Courant Number mean: 0.177777 max: 0.925692
DILUPBiCGStab:  Solving for Ux, Initial residual = 0.0027359, Final residual = 3.43255e-06, No Iterations 5
DILUPBiCGStab:  Solving for Uy, Initial residual = 0.00710533, Final residual = 5.17149e-06, No Iterations 5
DILUPBiCGStab:  Solving for Uz, Initial residual = 0.0145869, Final residual = 1.12271e-05, No Iterations 5
linear solve U 71472
nonePCG:  Solving for p, Initial residual = 0.0560376, Final residual = 9.77895e-07, No Iterations 355
linear solve p 353519
time step continuity errors : sum local = 1.33461e-09, global = 2.9788e-20, cumulative = -8.4241e-20
nonePCG:  Solving for p, Initial residual = 0.0405416, Final residual = 9.46526e-07, No Iterations 353
linear solve p 351678
time step continuity errors : sum local = 1.28158e-09, global = 9.45975e-20, cumulative = 1.03566e-20
ExecutionTime = 3.81 s  ClockTime = 4 s

Time = 0.0111111

Courant Number mean: 0.17953 max: 0.926453
DILUPBiCGStab:  Solving for Ux, Initial residual = 0.00210454, Final residual = 1.66694e-06, No Iterations 5
DILUPBiCGStab:  Solving for Uy, Initial residual = 0.00555226, Final residual = 4.2744e-06, No Iterations 5
DILUPBiCGStab:  Solving for Uz, Initial residual = 0.0106037, Final residual = 6.99895e-06, No Iterations 5
linear solve U 72152
nonePCG:  Solving for p, Initial residual = 0.0326094, Final residual = 9.1903e-07, No Iterations 346
linear solve p 345407
time step continuity errors : sum local = 1.25084e-09, global = 2.57523e-21, cumulative = 1.29318e-20
nonePCG:  Solving for p, Initial residual = 0.0239552, Final residual = 9.87716e-07, No Iterations 344
linear solve p 341385
time step continuity errors : sum local = 1.34895e-09, global = 3.0571e-20, cumulative = 4.35028e-20
ExecutionTime = 4.61 s  ClockTime = 5 s

Time = 0.0133333

Courant Number mean: 0.181052 max: 0.927195
DILUPBiCGStab:  Solving for Ux, Initial residual = 0.00174473, Final residual = 7.88446e-07, No Iterations 5
DILUPBiCGStab:  Solving for Uy, Initial residual = 0.00467059, Final residual = 2.5308e-06, No Iterations 5
DILUPBiCGStab:  Solving for Uz, Initial residual = 0.00888792, Final residual = 4.87383e-06, No Iterations 5
linear solve U 71860
nonePCG:  Solving for p, Initial residual = 0.0192811, Final residual = 9.86517e-07, No Iterations 342
linear solve p 339726
time step continuity errors : sum local = 1.3316e-09, global = 6.02591e-20, cumulative = 1.03762e-19
nonePCG:  Solving for p, Initial residual = 0.0146896, Final residual = 9.51989e-07, No Iterations 341
linear solve p 337520
time step continuity errors : sum local = 1.28302e-09, global = 1.24134e-20, cumulative = 1.16175e-19
ExecutionTime = 5.4 s  ClockTime = 6 s

Time = 0.0155556

Courant Number mean: 0.182348 max: 0.927738
DILUPBiCGStab:  Solving for Ux, Initial residual = 0.00145624, Final residual = 5.98824e-07, No Iterations 5
DILUPBiCGStab:  Solving for Uy, Initial residual = 0.0038649, Final residual = 9.4587e-07, No Iterations 5
DILUPBiCGStab:  Solving for Uz, Initial residual = 0.0070701, Final residual = 3.08664e-06, No Iterations 5
linear solve U 71799
nonePCG:  Solving for p, Initial residual = 0.0129814, Final residual = 8.97547e-07, No Iterations 340
linear solve p 336722
time step continuity errors : sum local = 1.21175e-09, global = 7.95448e-20, cumulative = 1.9572e-19
nonePCG:  Solving for p, Initial residual = 0.0100518, Final residual = 9.17441e-07, No Iterations 339
linear solve p 336615
time step continuity errors : sum local = 1.23984e-09, global = 3.1094e-20, cumulative = 2.26814e-19
ExecutionTime = 6.19 s  ClockTime = 6 s

Time = 0.0177778

Courant Number mean: 0.183468 max: 0.928243
DILUPBiCGStab:  Solving for Ux, Initial residual = 0.00124484, Final residual = 3.91198e-07, No Iterations 5
DILUPBiCGStab:  Solving for Uy, Initial residual = 0.00335558, Final residual = 8.72012e-07, No Iterations 5
DILUPBiCGStab:  Solving for Uz, Initial residual = 0.00612483, Final residual = 2.50845e-06, No Iterations 5
linear solve U 71665
nonePCG:  Solving for p, Initial residual = 0.0083263, Final residual = 9.48077e-07, No Iterations 324
linear solve p 321010
time step continuity errors : sum local = 1.27738e-09, global = 9.47402e-20, cumulative = 3.21554e-19
nonePCG:  Solving for p, Initial residual = 0.00670203, Final residual = 9.65545e-07, No Iterations 322
linear solve p 319879
time step continuity errors : sum local = 1.30045e-09, global = -8.13406e-20, cumulative = 2.40214e-19
ExecutionTime = 6.95 s  ClockTime = 7 s

Time = 0.02

Courant Number mean: 0.184432 max: 0.928634
DILUPBiCGStab:  Solving for Ux, Initial residual = 0.00106309, Final residual = 2.55306e-07, No Iterations 5
DILUPBiCGStab:  Solving for Uy, Initial residual = 0.002852, Final residual = 6.41956e-07, No Iterations 5
DILUPBiCGStab:  Solving for Uz, Initial residual = 0.00507865, Final residual = 1.71567e-06, No Iterations 5
linear solve U 72298
nonePCG:  Solving for p, Initial residual = 0.00625714, Final residual = 9.91835e-07, No Iterations 337
linear solve p 334621
time step continuity errors : sum local = 1.33696e-09, global = -3.58892e-20, cumulative = 2.04324e-19
nonePCG:  Solving for p, Initial residual = 0.00510684, Final residual = 9.83651e-07, No Iterations 332
linear solve p 328955
time step continuity errors : sum local = 1.32656e-09, global = 1.63809e-20, cumulative = 2.20705e-19
ExecutionTime = 7.73 s  ClockTime = 8 s

Time = 0.0222222

Courant Number mean: 0.185269 max: 0.928986
DILUPBiCGStab:  Solving for Ux, Initial residual = 0.000919421, Final residual = 1.84665e-07, No Iterations 5
DILUPBiCGStab:  Solving for Uy, Initial residual = 0.0024893, Final residual = 6.63862e-07, No Iterations 5
DILUPBiCGStab:  Solving for Uz, Initial residual = 0.00439621, Final residual = 1.48019e-06, No Iterations 5
linear solve U 72118
nonePCG:  Solving for p, Initial residual = 0.00426413, Final residual = 9.82087e-07, No Iterations 322
linear solve p 321675
time step continuity errors : sum local = 1.32322e-09, global = 1.03674e-20, cumulative = 2.31073e-19
nonePCG:  Solving for p, Initial residual = 0.00362979, Final residual = 9.42535e-07, No Iterations 321
linear solve p 319850
time step continuity errors : sum local = 1.26992e-09, global = -5.8271e-20, cumulative = 1.72802e-19
ExecutionTime = 8.49 s  ClockTime = 9 s

End

