/*---------------------------------------------------------------------------*\
  =========                 |
  \\      /  F ield         | OpenFOAM: The Open Source CFD Toolbox
   \\    /   O peration     | Website:  https://openfoam.org
    \\  /    A nd           | Version:  8
     \\/     M anipulation  |
\*---------------------------------------------------------------------------*/
Build  : 8-ef60d22ea792
Exec   : icoFoam
Date   : Sep 15 2021
Time   : 13:36:21
Host   : "uc2n482.localdomain"
PID    : 3634078
I/O    : uncollated
Case   : /pfs/data5/home/kit/scc/nq7776/data/code/OBR/lidDrivenCavity3D/Variation_init/100/Variation_mesh/25/Variation_matrix_solver/CG_NoPrecond_CUDA/1631705779
nProcs : 1
sigFpe : Enabling floating point exception trapping (FOAM_SIGFPE).
fileModificationChecking : Monitoring run-time modified files using timeStampMaster (fileModificationSkew 10)
allowSystemOperations : Allowing user-supplied system call operations

// * * * * * * * * * * * * * * * * * * * * * * * * * * * * * * * * * * * * * //
Create time

Create mesh for time = 0

Reading transportProperties

Reading field p

Reading field U

Reading/calculating face flux field phi


Starting time loop

Time = 0.004

Courant Number mean: 0.169656 max: 0.889609
DILUPBiCGStab:  Solving for Ux, Initial residual = 0.143151, Final residual = 1.76454e-06, No Iterations 5
DILUPBiCGStab:  Solving for Uy, Initial residual = 0.204592, Final residual = 1.77082e-06, No Iterations 5
DILUPBiCGStab:  Solving for Uz, Initial residual = 0.476047, Final residual = 3.97645e-06, No Iterations 5
linear solve U 11743
[OGL LOG] init_host_sparsity_pattern : 4 ms
[OGL LOG] matrix not stored update host matrix
[OGL LOG] update_host_mtx : 2 ms
[OGL LOG] matrix is not yet sorted, compute sorting idxs
[OGL LOG] compute_sort : 108 ms
[OGL LOG] matrix is not yet sorted, sorting host matrix
[OGL LOG] sort_host_mtx_sparsity_pattern : 2 ms
[OGL LOG] sort_host_mtx : 1 ms
[OGL LOG] init_preconditioner : 0 ms
[OGL LOG] solve : 30 ms
nonecudaGKOCG:  Solving for p, Initial residual = 0.578841, Final residual = 9.46123e-07, No Iterations 208
linear solve p 906057
time step continuity errors : sum local = 6.68588e-09, global = 4.57171e-20, cumulative = 4.57171e-20
[OGL LOG] init_preconditioner : 0 ms
[OGL LOG] solve : 28 ms
nonecudaGKOCG:  Solving for p, Initial residual = 0.27554, Final residual = 9.99706e-07, No Iterations 207
linear solve p 28811
time step continuity errors : sum local = 4.37913e-09, global = 2.43415e-20, cumulative = 7.00587e-20
ExecutionTime = 1.05 s  ClockTime = 1 s

Time = 0.008

Courant Number mean: 0.173868 max: 0.868145
DILUPBiCGStab:  Solving for Ux, Initial residual = 0.0151888, Final residual = 1.22594e-06, No Iterations 5
DILUPBiCGStab:  Solving for Uy, Initial residual = 0.0247674, Final residual = 1.80832e-06, No Iterations 5
DILUPBiCGStab:  Solving for Uz, Initial residual = 0.0887899, Final residual = 3.83174e-06, No Iterations 5
linear solve U 9736
[OGL LOG] init_preconditioner : 0 ms
[OGL LOG] solve : 28 ms
nonecudaGKOCG:  Solving for p, Initial residual = 0.17531, Final residual = 9.03584e-07, No Iterations 204
linear solve p 28637
time step continuity errors : sum local = 3.28483e-06, global = 1.50608e-19, cumulative = 2.20667e-19
[OGL LOG] init_preconditioner : 0 ms
[OGL LOG] solve : 27 ms
nonecudaGKOCG:  Solving for p, Initial residual = 0.103192, Final residual = 8.5194e-07, No Iterations 201
linear solve p 28265
time step continuity errors : sum local = 3.0591e-06, global = 4.96126e-20, cumulative = 2.70279e-19
ExecutionTime = 1.12 s  ClockTime = 1 s

Time = 0.012

Courant Number mean: 0.177048 max: 0.867817
DILUPBiCGStab:  Solving for Ux, Initial residual = 0.00469192, Final residual = 2.96389e-07, No Iterations 5
DILUPBiCGStab:  Solving for Uy, Initial residual = 0.00998771, Final residual = 4.81059e-07, No Iterations 5
DILUPBiCGStab:  Solving for Uz, Initial residual = 0.0313797, Final residual = 1.53395e-06, No Iterations 5
linear solve U 9809
[OGL LOG] init_preconditioner : 0 ms
[OGL LOG] solve : 26 ms
nonecudaGKOCG:  Solving for p, Initial residual = 0.0491937, Final residual = 8.80871e-07, No Iterations 197
linear solve p 27443
time step continuity errors : sum local = 3.01831e-06, global = 1.34959e-19, cumulative = 4.05239e-19
[OGL LOG] init_preconditioner : 0 ms
[OGL LOG] solve : 26 ms
nonecudaGKOCG:  Solving for p, Initial residual = 0.0326509, Final residual = 8.4947e-07, No Iterations 195
linear solve p 27421
time step continuity errors : sum local = 3.04437e-06, global = -9.11123e-20, cumulative = 3.14127e-19
ExecutionTime = 1.2 s  ClockTime = 1 s

Time = 0.016

Courant Number mean: 0.179565 max: 0.869322
DILUPBiCGStab:  Solving for Ux, Initial residual = 0.00314077, Final residual = 1.45472e-07, No Iterations 5
DILUPBiCGStab:  Solving for Uy, Initial residual = 0.00681959, Final residual = 2.61109e-07, No Iterations 5
DILUPBiCGStab:  Solving for Uz, Initial residual = 0.0130986, Final residual = 5.57874e-07, No Iterations 5
linear solve U 10112
[OGL LOG] init_preconditioner : 0 ms
[OGL LOG] solve : 26 ms
nonecudaGKOCG:  Solving for p, Initial residual = 0.019425, Final residual = 8.72202e-07, No Iterations 180
linear solve p 26571
time step continuity errors : sum local = 3.0491e-06, global = -6.96337e-20, cumulative = 2.44493e-19
[OGL LOG] init_preconditioner : 0 ms
[OGL LOG] solve : 24 ms
nonecudaGKOCG:  Solving for p, Initial residual = 0.0140349, Final residual = 9.68695e-07, No Iterations 177
linear solve p 24595
time step continuity errors : sum local = 3.04686e-06, global = 1.00883e-20, cumulative = 2.54581e-19
ExecutionTime = 1.26 s  ClockTime = 2 s

Time = 0.02

Courant Number mean: 0.181574 max: 0.870814
DILUPBiCGStab:  Solving for Ux, Initial residual = 0.00232724, Final residual = 9.81697e-08, No Iterations 5
DILUPBiCGStab:  Solving for Uy, Initial residual = 0.0051776, Final residual = 1.34672e-07, No Iterations 5
DILUPBiCGStab:  Solving for Uz, Initial residual = 0.0091052, Final residual = 2.6653e-07, No Iterations 5
linear solve U 9745
[OGL LOG] init_preconditioner : 0 ms
[OGL LOG] solve : 23 ms
nonecudaGKOCG:  Solving for p, Initial residual = 0.0100111, Final residual = 9.62406e-07, No Iterations 174
linear solve p 24294
time step continuity errors : sum local = 3.04281e-06, global = -1.13248e-19, cumulative = 1.41334e-19
[OGL LOG] init_preconditioner : 0 ms
[OGL LOG] solve : 27 ms
nonecudaGKOCG:  Solving for p, Initial residual = 0.00751306, Final residual = 9.06007e-07, No Iterations 173
linear solve p 28300
time step continuity errors : sum local = 3.04619e-06, global = -1.62601e-19, cumulative = -2.1267e-20
ExecutionTime = 1.33 s  ClockTime = 2 s

Time = 0.024

Courant Number mean: 0.183143 max: 0.871972
DILUPBiCGStab:  Solving for Ux, Initial residual = 0.00177559, Final residual = 5.93714e-08, No Iterations 5
DILUPBiCGStab:  Solving for Uy, Initial residual = 0.00408246, Final residual = 1.085e-07, No Iterations 5
DILUPBiCGStab:  Solving for Uz, Initial residual = 0.00674981, Final residual = 1.93313e-07, No Iterations 5
linear solve U 9804
[OGL LOG] init_preconditioner : 0 ms
[OGL LOG] solve : 24 ms
nonecudaGKOCG:  Solving for p, Initial residual = 0.00619643, Final residual = 9.38662e-07, No Iterations 178
linear solve p 24800
time step continuity errors : sum local = 3.04464e-06, global = -3.26902e-20, cumulative = -5.39572e-20
[OGL LOG] init_preconditioner : 0 ms
[OGL LOG] solve : 24 ms
nonecudaGKOCG:  Solving for p, Initial residual = 0.00497391, Final residual = 9.82047e-07, No Iterations 176
linear solve p 24777
time step continuity errors : sum local = 3.04634e-06, global = -5.31712e-21, cumulative = -5.92743e-20
ExecutionTime = 1.39 s  ClockTime = 2 s

Time = 0.028

Courant Number mean: 0.184376 max: 0.872837
DILUPBiCGStab:  Solving for Ux, Initial residual = 0.00137932, Final residual = 4.35571e-08, No Iterations 5
DILUPBiCGStab:  Solving for Uy, Initial residual = 0.00321232, Final residual = 3.22329e-08, No Iterations 5
DILUPBiCGStab:  Solving for Uz, Initial residual = 0.00511295, Final residual = 9.32566e-08, No Iterations 5
linear solve U 9796
[OGL LOG] init_preconditioner : 0 ms
[OGL LOG] solve : 24 ms
nonecudaGKOCG:  Solving for p, Initial residual = 0.00396804, Final residual = 8.81686e-07, No Iterations 171
linear solve p 24843
time step continuity errors : sum local = 3.04474e-06, global = -1.69077e-19, cumulative = -2.28352e-19
[OGL LOG] init_preconditioner : 0 ms
[OGL LOG] solve : 22 ms
nonecudaGKOCG:  Solving for p, Initial residual = 0.00329312, Final residual = 9.50175e-07, No Iterations 167
linear solve p 23269
time step continuity errors : sum local = 3.04622e-06, global = -1.48459e-19, cumulative = -3.76811e-19
ExecutionTime = 1.46 s  ClockTime = 2 s

Time = 0.032

Courant Number mean: 0.185344 max: 0.873502
DILUPBiCGStab:  Solving for Ux, Initial residual = 0.00107787, Final residual = 2.90224e-08, No Iterations 5
DILUPBiCGStab:  Solving for Uy, Initial residual = 0.0025484, Final residual = 2.92379e-08, No Iterations 5
DILUPBiCGStab:  Solving for Uz, Initial residual = 0.00394582, Final residual = 8.13349e-08, No Iterations 5
linear solve U 9809
[OGL LOG] init_preconditioner : 0 ms
[OGL LOG] solve : 23 ms
nonecudaGKOCG:  Solving for p, Initial residual = 0.00303613, Final residual = 9.85307e-07, No Iterations 164
linear solve p 24087
time step continuity errors : sum local = 3.04536e-06, global = 1.8105e-19, cumulative = -1.95761e-19
[OGL LOG] init_preconditioner : 0 ms
[OGL LOG] solve : 22 ms
nonecudaGKOCG:  Solving for p, Initial residual = 0.00256245, Final residual = 9.94925e-07, No Iterations 161
linear solve p 23397
time step continuity errors : sum local = 3.04628e-06, global = 2.73036e-20, cumulative = -1.68457e-19
ExecutionTime = 1.52 s  ClockTime = 2 s

Time = 0.036

Courant Number mean: 0.186107 max: 0.874008
DILUPBiCGStab:  Solving for Ux, Initial residual = 0.000848629, Final residual = 2.26616e-08, No Iterations 5
DILUPBiCGStab:  Solving for Uy, Initial residual = 0.0020224, Final residual = 1.53004e-08, No Iterations 5
DILUPBiCGStab:  Solving for Uz, Initial residual = 0.00304035, Final residual = 5.66368e-08, No Iterations 5
linear solve U 10176
[OGL LOG] init_preconditioner : 0 ms
[OGL LOG] solve : 21 ms
nonecudaGKOCG:  Solving for p, Initial residual = 0.00227506, Final residual = 8.48791e-07, No Iterations 159
linear solve p 22389
time step continuity errors : sum local = 3.04537e-06, global = -4.14748e-21, cumulative = -1.72605e-19
[OGL LOG] init_preconditioner : 0 ms
[OGL LOG] solve : 21 ms
nonecudaGKOCG:  Solving for p, Initial residual = 0.00193469, Final residual = 9.62728e-07, No Iterations 157
linear solve p 22079
time step continuity errors : sum local = 3.04628e-06, global = 6.26258e-20, cumulative = -1.09979e-19
ExecutionTime = 1.59 s  ClockTime = 2 s

Time = 0.04

Courant Number mean: 0.186709 max: 0.874399
DILUPBiCGStab:  Solving for Ux, Initial residual = 0.000670136, Final residual = 1.65731e-08, No Iterations 5
DILUPBiCGStab:  Solving for Uy, Initial residual = 0.00160981, Final residual = 1.26329e-08, No Iterations 5
DILUPBiCGStab:  Solving for Uz, Initial residual = 0.00235897, Final residual = 4.60174e-08, No Iterations 5
linear solve U 10013
[OGL LOG] init_preconditioner : 0 ms
[OGL LOG] solve : 22 ms
nonecudaGKOCG:  Solving for p, Initial residual = 0.00178951, Final residual = 9.38276e-07, No Iterations 159
linear solve p 23371
time step continuity errors : sum local = 3.0457e-06, global = 1.16598e-19, cumulative = 6.61889e-21
[OGL LOG] init_preconditioner : 0 ms
[OGL LOG] solve : 21 ms
nonecudaGKOCG:  Solving for p, Initial residual = 0.00153024, Final residual = 9.24244e-07, No Iterations 157
linear solve p 21973
time step continuity errors : sum local = 3.0462e-06, global = 4.91957e-20, cumulative = 5.58146e-20
ExecutionTime = 1.64 s  ClockTime = 2 s

End

