/*---------------------------------------------------------------------------*\
  =========                 |
  \\      /  F ield         | OpenFOAM: The Open Source CFD Toolbox
   \\    /   O peration     | Website:  https://openfoam.org
    \\  /    A nd           | Version:  8
     \\/     M anipulation  |
\*---------------------------------------------------------------------------*/
Build  : 8-ef60d22ea792
Exec   : icoFoam
Date   : Sep 15 2021
Time   : 13:27:35
Host   : "uc2n438.localdomain"
PID    : 3542300
I/O    : uncollated
Case   : /pfs/data5/home/kit/scc/nq7776/data/code/OBR/lidDrivenCavity3D/Variation_init/100/Variation_mesh/25/Variation_matrix_solver/BiCGStab_NoPrecond_Serial/1631705254
nProcs : 1
sigFpe : Enabling floating point exception trapping (FOAM_SIGFPE).
fileModificationChecking : Monitoring run-time modified files using timeStampMaster (fileModificationSkew 10)
allowSystemOperations : Allowing user-supplied system call operations

// * * * * * * * * * * * * * * * * * * * * * * * * * * * * * * * * * * * * * //
Create time

Create mesh for time = 0

Reading transportProperties

Reading field p

Reading field U

Reading/calculating face flux field phi


Starting time loop

Time = 0.004

Courant Number mean: 0.169656 max: 0.889609
DILUPBiCGStab:  Solving for Ux, Initial residual = 0.143151, Final residual = 1.76454e-06, No Iterations 5
DILUPBiCGStab:  Solving for Uy, Initial residual = 0.204592, Final residual = 1.77082e-06, No Iterations 5
DILUPBiCGStab:  Solving for Uz, Initial residual = 0.476047, Final residual = 3.97645e-06, No Iterations 5
linear solve U 11910
nonePBiCGStab:  Solving for p, Initial residual = 0.578841, Final residual = 9.64253e-07, No Iterations 178
linear solve p 53593
time step continuity errors : sum local = 1.3624e-08, global = -8.05425e-20, cumulative = -8.05425e-20
nonePBiCGStab:  Solving for p, Initial residual = 0.275538, Final residual = 3.45298e-07, No Iterations 173
linear solve p 52028
time step continuity errors : sum local = 3.02485e-09, global = 5.56714e-20, cumulative = -2.48711e-20
ExecutionTime = 0.22 s  ClockTime = 0 s

Time = 0.008

Courant Number mean: 0.173868 max: 0.868145
DILUPBiCGStab:  Solving for Ux, Initial residual = 0.0151884, Final residual = 1.22574e-06, No Iterations 5
DILUPBiCGStab:  Solving for Uy, Initial residual = 0.0247685, Final residual = 1.80764e-06, No Iterations 5
DILUPBiCGStab:  Solving for Uz, Initial residual = 0.088782, Final residual = 3.85661e-06, No Iterations 5
linear solve U 10327
nonePBiCGStab:  Solving for p, Initial residual = 0.175261, Final residual = 8.76042e-07, No Iterations 171
linear solve p 50778
time step continuity errors : sum local = 7.48832e-09, global = 7.23912e-20, cumulative = 4.75201e-20
nonePBiCGStab:  Solving for p, Initial residual = 0.103205, Final residual = 6.55837e-07, No Iterations 169
linear solve p 50195
time step continuity errors : sum local = 5.56736e-09, global = 1.18621e-20, cumulative = 5.93822e-20
ExecutionTime = 0.34 s  ClockTime = 0 s

Time = 0.012

Courant Number mean: 0.177048 max: 0.867817
DILUPBiCGStab:  Solving for Ux, Initial residual = 0.00469076, Final residual = 2.96262e-07, No Iterations 5
DILUPBiCGStab:  Solving for Uy, Initial residual = 0.00998873, Final residual = 4.81052e-07, No Iterations 5
DILUPBiCGStab:  Solving for Uz, Initial residual = 0.0313752, Final residual = 1.53056e-06, No Iterations 5
linear solve U 10214
nonePBiCGStab:  Solving for p, Initial residual = 0.0491942, Final residual = 8.72696e-07, No Iterations 155
linear solve p 46221
time step continuity errors : sum local = 7.13277e-09, global = -2.60368e-20, cumulative = 3.33455e-20
nonePBiCGStab:  Solving for p, Initial residual = 0.0326498, Final residual = 7.04768e-07, No Iterations 154
linear solve p 45415
time step continuity errors : sum local = 5.80627e-09, global = 3.3626e-20, cumulative = 6.69715e-20
ExecutionTime = 0.45 s  ClockTime = 0 s

Time = 0.016

Courant Number mean: 0.179565 max: 0.869322
DILUPBiCGStab:  Solving for Ux, Initial residual = 0.00314, Final residual = 1.45404e-07, No Iterations 5
DILUPBiCGStab:  Solving for Uy, Initial residual = 0.00682174, Final residual = 2.60588e-07, No Iterations 5
DILUPBiCGStab:  Solving for Uz, Initial residual = 0.0131142, Final residual = 5.65361e-07, No Iterations 5
linear solve U 10294
nonePBiCGStab:  Solving for p, Initial residual = 0.0194309, Final residual = 8.24371e-07, No Iterations 143
linear solve p 42432
time step continuity errors : sum local = 6.72884e-09, global = -6.88654e-21, cumulative = 6.0085e-20
nonePBiCGStab:  Solving for p, Initial residual = 0.0140394, Final residual = 5.05077e-07, No Iterations 139
linear solve p 41635
time step continuity errors : sum local = 4.1208e-09, global = -1.58451e-20, cumulative = 4.42399e-20
ExecutionTime = 0.55 s  ClockTime = 0 s

Time = 0.02

Courant Number mean: 0.181574 max: 0.870815
DILUPBiCGStab:  Solving for Ux, Initial residual = 0.00232641, Final residual = 9.80737e-08, No Iterations 5
DILUPBiCGStab:  Solving for Uy, Initial residual = 0.00517942, Final residual = 1.34894e-07, No Iterations 5
DILUPBiCGStab:  Solving for Uz, Initial residual = 0.00911588, Final residual = 2.66547e-07, No Iterations 5
linear solve U 10335
nonePBiCGStab:  Solving for p, Initial residual = 0.0100117, Final residual = 9.66082e-07, No Iterations 138
linear solve p 40986
time step continuity errors : sum local = 7.69573e-09, global = -5.14794e-20, cumulative = -7.23948e-21
nonePBiCGStab:  Solving for p, Initial residual = 0.0075138, Final residual = 7.22968e-07, No Iterations 140
linear solve p 41847
time step continuity errors : sum local = 5.90634e-09, global = -1.84464e-19, cumulative = -1.91703e-19
ExecutionTime = 0.65 s  ClockTime = 1 s

Time = 0.024

Courant Number mean: 0.183143 max: 0.871971
DILUPBiCGStab:  Solving for Ux, Initial residual = 0.00177473, Final residual = 5.9052e-08, No Iterations 5
DILUPBiCGStab:  Solving for Uy, Initial residual = 0.00408491, Final residual = 1.08458e-07, No Iterations 5
DILUPBiCGStab:  Solving for Uz, Initial residual = 0.00676371, Final residual = 1.89367e-07, No Iterations 5
linear solve U 10428
nonePBiCGStab:  Solving for p, Initial residual = 0.00619777, Final residual = 7.20445e-07, No Iterations 138
linear solve p 40891
time step continuity errors : sum local = 5.88147e-09, global = 5.82206e-20, cumulative = -1.33483e-19
nonePBiCGStab:  Solving for p, Initial residual = 0.00497402, Final residual = 7.04427e-07, No Iterations 136
linear solve p 41055
time step continuity errors : sum local = 5.69842e-09, global = -2.83336e-20, cumulative = -1.61816e-19
ExecutionTime = 0.75 s  ClockTime = 1 s

Time = 0.028

Courant Number mean: 0.184376 max: 0.872837
DILUPBiCGStab:  Solving for Ux, Initial residual = 0.00137845, Final residual = 4.31323e-08, No Iterations 5
DILUPBiCGStab:  Solving for Uy, Initial residual = 0.00321443, Final residual = 3.22701e-08, No Iterations 5
DILUPBiCGStab:  Solving for Uz, Initial residual = 0.00512831, Final residual = 9.16282e-08, No Iterations 5
linear solve U 10310
nonePBiCGStab:  Solving for p, Initial residual = 0.00396779, Final residual = 5.4502e-07, No Iterations 134
linear solve p 40158
time step continuity errors : sum local = 4.44185e-09, global = 2.53092e-19, cumulative = 9.12757e-20
nonePBiCGStab:  Solving for p, Initial residual = 0.00329295, Final residual = 9.79227e-07, No Iterations 133
linear solve p 39798
time step continuity errors : sum local = 7.63318e-09, global = 7.33285e-21, cumulative = 9.86086e-20
ExecutionTime = 0.85 s  ClockTime = 1 s

Time = 0.032

Courant Number mean: 0.185344 max: 0.873502
DILUPBiCGStab:  Solving for Ux, Initial residual = 0.00107707, Final residual = 2.84853e-08, No Iterations 5
DILUPBiCGStab:  Solving for Uy, Initial residual = 0.00255073, Final residual = 2.92581e-08, No Iterations 5
DILUPBiCGStab:  Solving for Uz, Initial residual = 0.00396115, Final residual = 7.80821e-08, No Iterations 5
linear solve U 10261
nonePBiCGStab:  Solving for p, Initial residual = 0.00303546, Final residual = 9.904e-07, No Iterations 130
linear solve p 38817
time step continuity errors : sum local = 8.09134e-09, global = 1.84178e-19, cumulative = 2.82786e-19
nonePBiCGStab:  Solving for p, Initial residual = 0.00256195, Final residual = 9.36384e-07, No Iterations 62
linear solve p 18821
time step continuity errors : sum local = 6.75686e-09, global = -1.71427e-20, cumulative = 2.65644e-19
ExecutionTime = 0.93 s  ClockTime = 1 s

Time = 0.036

Courant Number mean: 0.186106 max: 0.874008
DILUPBiCGStab:  Solving for Ux, Initial residual = 0.000847498, Final residual = 2.22301e-08, No Iterations 5
DILUPBiCGStab:  Solving for Uy, Initial residual = 0.00202548, Final residual = 1.54809e-08, No Iterations 5
DILUPBiCGStab:  Solving for Uz, Initial residual = 0.00305597, Final residual = 5.41526e-08, No Iterations 5
linear solve U 10389
nonePBiCGStab:  Solving for p, Initial residual = 0.00227778, Final residual = 6.62898e-07, No Iterations 63
linear solve p 19047
time step continuity errors : sum local = 4.69256e-09, global = -7.51752e-20, cumulative = 1.90468e-19
nonePBiCGStab:  Solving for p, Initial residual = 0.00193667, Final residual = 8.61739e-07, No Iterations 57
linear solve p 17489
time step continuity errors : sum local = 5.86899e-09, global = 6.16111e-20, cumulative = 2.5208e-19
ExecutionTime = 0.98 s  ClockTime = 1 s

Time = 0.04

Courant Number mean: 0.186708 max: 0.874399
DILUPBiCGStab:  Solving for Ux, Initial residual = 0.000669389, Final residual = 1.60866e-08, No Iterations 5
DILUPBiCGStab:  Solving for Uy, Initial residual = 0.00161176, Final residual = 1.25502e-08, No Iterations 5
DILUPBiCGStab:  Solving for Uz, Initial residual = 0.00237102, Final residual = 4.30355e-08, No Iterations 5
linear solve U 10263
nonePBiCGStab:  Solving for p, Initial residual = 0.00179037, Final residual = 9.81271e-07, No Iterations 57
linear solve p 17203
time step continuity errors : sum local = 6.74183e-09, global = 1.20998e-19, cumulative = 3.73077e-19
nonePBiCGStab:  Solving for p, Initial residual = 0.00153148, Final residual = 9.1148e-07, No Iterations 52
linear solve p 15539
time step continuity errors : sum local = 4.94939e-09, global = -1.58625e-19, cumulative = 2.14453e-19
ExecutionTime = 1.03 s  ClockTime = 1 s

End

