/*---------------------------------------------------------------------------*\
  =========                 |
  \\      /  F ield         | OpenFOAM: The Open Source CFD Toolbox
   \\    /   O peration     | Website:  https://openfoam.org
    \\  /    A nd           | Version:  8
     \\/     M anipulation  |
\*---------------------------------------------------------------------------*/
Build  : 8-ef60d22ea792
Exec   : icoFoam
Date   : Sep 15 2021
Time   : 13:23:46
Host   : "uc2n438.localdomain"
PID    : 3541334
I/O    : uncollated
Case   : /pfs/data5/home/kit/scc/nq7776/data/code/OBR/lidDrivenCavity3D/Variation_init/100/Variation_mesh/75/Variation_matrix_solver/BiCGStab_NoPrecond_Serial/1631704998
nProcs : 1
sigFpe : Enabling floating point exception trapping (FOAM_SIGFPE).
fileModificationChecking : Monitoring run-time modified files using timeStampMaster (fileModificationSkew 10)
allowSystemOperations : Allowing user-supplied system call operations

// * * * * * * * * * * * * * * * * * * * * * * * * * * * * * * * * * * * * * //
Create time

Create mesh for time = 0

Reading transportProperties

Reading field p

Reading field U

Reading/calculating face flux field phi


Starting time loop

Time = 0.00133333

Courant Number mean: 0.170873 max: 0.955248
DILUPBiCGStab:  Solving for Ux, Initial residual = 0.150945, Final residual = 8.53015e-05, No Iterations 5
DILUPBiCGStab:  Solving for Uy, Initial residual = 0.292287, Final residual = 0.000196272, No Iterations 5
DILUPBiCGStab:  Solving for Uz, Initial residual = 0.443155, Final residual = 0.000590488, No Iterations 5
linear solve U 434337
nonePBiCGStab:  Solving for p, Initial residual = 0.621595, Final residual = 5.68454e-07, No Iterations 490
linear solve p 5697279
time step continuity errors : sum local = 1.38199e-09, global = -1.78268e-20, cumulative = -1.78268e-20
nonePBiCGStab:  Solving for p, Initial residual = 0.292225, Final residual = 7.77929e-07, No Iterations 492
linear solve p 5565476
time step continuity errors : sum local = 1.08229e-09, global = -1.57475e-20, cumulative = -3.35742e-20
ExecutionTime = 13.98 s  ClockTime = 14 s

Time = 0.00266667

Courant Number mean: 0.172833 max: 0.953296
DILUPBiCGStab:  Solving for Ux, Initial residual = 0.00633093, Final residual = 3.02631e-05, No Iterations 5
DILUPBiCGStab:  Solving for Uy, Initial residual = 0.0152171, Final residual = 6.99541e-05, No Iterations 5
DILUPBiCGStab:  Solving for Uz, Initial residual = 0.0761809, Final residual = 0.000480548, No Iterations 5
linear solve U 392243
nonePBiCGStab:  Solving for p, Initial residual = 0.306127, Final residual = 8.09058e-07, No Iterations 481
linear solve p 5375536
time step continuity errors : sum local = 1.02436e-09, global = -2.9881e-21, cumulative = -3.65623e-20
nonePBiCGStab:  Solving for p, Initial residual = 0.226047, Final residual = 8.89531e-07, No Iterations 483
linear solve p 5407228
time step continuity errors : sum local = 1.05957e-09, global = 3.47926e-20, cumulative = -1.76976e-21
ExecutionTime = 25.41 s  ClockTime = 26 s

Time = 0.004

Courant Number mean: 0.174523 max: 0.954278
DILUPBiCGStab:  Solving for Ux, Initial residual = 0.00265375, Final residual = 1.63506e-05, No Iterations 5
DILUPBiCGStab:  Solving for Uy, Initial residual = 0.00797486, Final residual = 4.00934e-05, No Iterations 5
DILUPBiCGStab:  Solving for Uz, Initial residual = 0.03538, Final residual = 0.000276878, No Iterations 5
linear solve U 384494
nonePBiCGStab:  Solving for p, Initial residual = 0.192332, Final residual = 5.30252e-07, No Iterations 474
linear solve p 5315107
time step continuity errors : sum local = 4.70967e-10, global = -1.02099e-20, cumulative = -1.19797e-20
nonePBiCGStab:  Solving for p, Initial residual = 0.148974, Final residual = 5.48732e-07, No Iterations 458
linear solve p 5111055
time step continuity errors : sum local = 6.37728e-10, global = -1.57134e-20, cumulative = -2.76931e-20
ExecutionTime = 36.42 s  ClockTime = 37 s

Time = 0.00533333

Courant Number mean: 0.176005 max: 0.954647
DILUPBiCGStab:  Solving for Ux, Initial residual = 0.00207805, Final residual = 1.18202e-05, No Iterations 5
DILUPBiCGStab:  Solving for Uy, Initial residual = 0.00644757, Final residual = 2.45371e-05, No Iterations 5
DILUPBiCGStab:  Solving for Uz, Initial residual = 0.023425, Final residual = 0.000160029, No Iterations 5
linear solve U 381683
nonePBiCGStab:  Solving for p, Initial residual = 0.143002, Final residual = 6.63107e-07, No Iterations 454
linear solve p 5068930
time step continuity errors : sum local = 4.48673e-10, global = 1.87015e-20, cumulative = -8.9916e-21
nonePBiCGStab:  Solving for p, Initial residual = 0.11439, Final residual = 3.18919e-07, No Iterations 465
linear solve p 5218034
time step continuity errors : sum local = 3.42815e-10, global = -9.85067e-21, cumulative = -1.88423e-20
ExecutionTime = 47.28 s  ClockTime = 48 s

Time = 0.00666667

Courant Number mean: 0.177347 max: 0.955032
DILUPBiCGStab:  Solving for Ux, Initial residual = 0.00176787, Final residual = 9.59723e-06, No Iterations 5
DILUPBiCGStab:  Solving for Uy, Initial residual = 0.00540633, Final residual = 1.95636e-05, No Iterations 5
DILUPBiCGStab:  Solving for Uz, Initial residual = 0.016317, Final residual = 0.000103222, No Iterations 5
linear solve U 382850
nonePBiCGStab:  Solving for p, Initial residual = 0.108106, Final residual = 5.69588e-07, No Iterations 440
linear solve p 4904178
time step continuity errors : sum local = 3.48909e-10, global = 4.92405e-21, cumulative = -1.39182e-20
nonePBiCGStab:  Solving for p, Initial residual = 0.0863378, Final residual = 9.59835e-07, No Iterations 421
linear solve p 4702878
time step continuity errors : sum local = 1.03459e-09, global = 5.22081e-20, cumulative = 3.82899e-20
ExecutionTime = 57.46 s  ClockTime = 58 s

Time = 0.008

Courant Number mean: 0.178568 max: 0.955457
DILUPBiCGStab:  Solving for Ux, Initial residual = 0.00153488, Final residual = 7.80639e-06, No Iterations 5
DILUPBiCGStab:  Solving for Uy, Initial residual = 0.00469184, Final residual = 1.38572e-05, No Iterations 5
DILUPBiCGStab:  Solving for Uz, Initial residual = 0.0135087, Final residual = 6.72927e-05, No Iterations 5
linear solve U 383029
nonePBiCGStab:  Solving for p, Initial residual = 0.0849559, Final residual = 9.49989e-07, No Iterations 453
linear solve p 5091385
time step continuity errors : sum local = 9.93423e-10, global = 2.35143e-21, cumulative = 4.06413e-20
nonePBiCGStab:  Solving for p, Initial residual = 0.0685796, Final residual = 8.93111e-07, No Iterations 451
linear solve p 5053796
time step continuity errors : sum local = 9.30915e-10, global = -1.67035e-20, cumulative = 2.39378e-20
ExecutionTime = 68.19 s  ClockTime = 69 s

Time = 0.00933333

Courant Number mean: 0.17967 max: 0.955718
DILUPBiCGStab:  Solving for Ux, Initial residual = 0.00135236, Final residual = 6.54491e-06, No Iterations 5
DILUPBiCGStab:  Solving for Uy, Initial residual = 0.00411416, Final residual = 1.16193e-05, No Iterations 5
DILUPBiCGStab:  Solving for Uz, Initial residual = 0.0105063, Final residual = 4.60024e-05, No Iterations 5
linear solve U 383094
nonePBiCGStab:  Solving for p, Initial residual = 0.0672927, Final residual = 4.76044e-07, No Iterations 453
linear solve p 5087130
time step continuity errors : sum local = 4.95873e-10, global = -5.82868e-21, cumulative = 1.81091e-20
nonePBiCGStab:  Solving for p, Initial residual = 0.0543351, Final residual = 4.3992e-07, No Iterations 462
linear solve p 5191621
time step continuity errors : sum local = 2.35483e-10, global = -1.27804e-20, cumulative = 5.32872e-21
ExecutionTime = 79.04 s  ClockTime = 80 s

Time = 0.0106667

Courant Number mean: 0.180675 max: 0.956053
DILUPBiCGStab:  Solving for Ux, Initial residual = 0.00120549, Final residual = 5.46134e-06, No Iterations 5
DILUPBiCGStab:  Solving for Uy, Initial residual = 0.00365051, Final residual = 8.95699e-06, No Iterations 5
DILUPBiCGStab:  Solving for Uz, Initial residual = 0.00903902, Final residual = 3.4296e-05, No Iterations 5
linear solve U 383218
nonePBiCGStab:  Solving for p, Initial residual = 0.0536412, Final residual = 8.89172e-07, No Iterations 448
linear solve p 5005857
time step continuity errors : sum local = 9.13258e-10, global = 6.68974e-21, cumulative = 1.20185e-20
nonePBiCGStab:  Solving for p, Initial residual = 0.0435063, Final residual = 9.76152e-07, No Iterations 215
linear solve p 2404412
time step continuity errors : sum local = 9.18182e-10, global = -8.10552e-21, cumulative = 3.91294e-21
ExecutionTime = 87.03 s  ClockTime = 88 s

Time = 0.012

Courant Number mean: 0.181586 max: 0.956269
DILUPBiCGStab:  Solving for Ux, Initial residual = 0.00107436, Final residual = 4.26151e-06, No Iterations 5
DILUPBiCGStab:  Solving for Uy, Initial residual = 0.00324729, Final residual = 7.9395e-06, No Iterations 5
DILUPBiCGStab:  Solving for Uz, Initial residual = 0.00743416, Final residual = 2.71641e-05, No Iterations 5
linear solve U 384749
nonePBiCGStab:  Solving for p, Initial residual = 0.0433408, Final residual = 8.84231e-07, No Iterations 469
linear solve p 5260167
time step continuity errors : sum local = 8.81357e-10, global = 2.01163e-20, cumulative = 2.40293e-20
nonePBiCGStab:  Solving for p, Initial residual = 0.0351808, Final residual = 8.66929e-07, No Iterations 455
linear solve p 5101489
time step continuity errors : sum local = 5.29118e-10, global = 9.3183e-21, cumulative = 3.33476e-20
ExecutionTime = 97.98 s  ClockTime = 99 s

Time = 0.0133333

Courant Number mean: 0.182419 max: 0.956527
DILUPBiCGStab:  Solving for Ux, Initial residual = 0.000968102, Final residual = 3.85824e-06, No Iterations 5
DILUPBiCGStab:  Solving for Uy, Initial residual = 0.00292137, Final residual = 6.34598e-06, No Iterations 5
DILUPBiCGStab:  Solving for Uz, Initial residual = 0.00654782, Final residual = 2.10743e-05, No Iterations 5
linear solve U 382852
nonePBiCGStab:  Solving for p, Initial residual = 0.0347546, Final residual = 6.97387e-07, No Iterations 447
linear solve p 5029510
time step continuity errors : sum local = 4.89774e-10, global = -3.61665e-20, cumulative = -2.819e-21
nonePBiCGStab:  Solving for p, Initial residual = 0.0282889, Final residual = 7.65859e-07, No Iterations 437
linear solve p 4897966
time step continuity errors : sum local = 7.78215e-10, global = 1.45954e-20, cumulative = 1.17764e-20
ExecutionTime = 108.48 s  ClockTime = 109 s

End

