/*---------------------------------------------------------------------------*\
  =========                 |
  \\      /  F ield         | OpenFOAM: The Open Source CFD Toolbox
   \\    /   O peration     | Website:  https://openfoam.org
    \\  /    A nd           | Version:  8
     \\/     M anipulation  |
\*---------------------------------------------------------------------------*/
Build  : 8-ef60d22ea792
Exec   : icoFoam
Date   : Sep 15 2021
Time   : 14:07:56
Host   : "uc2n482.localdomain"
PID    : 3641314
I/O    : uncollated
Case   : /pfs/data5/home/kit/scc/nq7776/data/code/OBR/lidDrivenCavity3D/Variation_init/100/Variation_mesh/70/Variation_matrix_solver/CG_NoPrecond_CUDA/1631707661
nProcs : 1
sigFpe : Enabling floating point exception trapping (FOAM_SIGFPE).
fileModificationChecking : Monitoring run-time modified files using timeStampMaster (fileModificationSkew 10)
allowSystemOperations : Allowing user-supplied system call operations

// * * * * * * * * * * * * * * * * * * * * * * * * * * * * * * * * * * * * * //
Create time

Create mesh for time = 0

Reading transportProperties

Reading field p

Reading field U

Reading/calculating face flux field phi


Starting time loop

Time = 0.00142857

Courant Number mean: 0.170837 max: 0.954853
DILUPBiCGStab:  Solving for Ux, Initial residual = 0.123158, Final residual = 4.78684e-05, No Iterations 5
DILUPBiCGStab:  Solving for Uy, Initial residual = 0.240191, Final residual = 8.17702e-05, No Iterations 5
DILUPBiCGStab:  Solving for Uz, Initial residual = 0.328596, Final residual = 0.000523545, No Iterations 5
linear solve U 366759
[OGL LOG] init_host_sparsity_pattern : 98 ms
[OGL LOG] matrix not stored update host matrix
[OGL LOG] update_host_mtx : 53 ms
[OGL LOG] matrix is not yet sorted, compute sorting idxs
[OGL LOG] compute_sort : 3088 ms
[OGL LOG] matrix is not yet sorted, sorting host matrix
[OGL LOG] sort_host_mtx_sparsity_pattern : 67 ms
[OGL LOG] sort_host_mtx : 39 ms
[OGL LOG] init_preconditioner : 0 ms
[OGL LOG] solve : 314 ms
nonecudaGKOCG:  Solving for p, Initial residual = 0.567453, Final residual = 9.35732e-07, No Iterations 574
linear solve p 4435264
time step continuity errors : sum local = 1.12496e-09, global = 1.47515e-20, cumulative = 1.47515e-20
[OGL LOG] init_preconditioner : 0 ms
[OGL LOG] solve : 312 ms
nonecudaGKOCG:  Solving for p, Initial residual = 0.279391, Final residual = 9.37858e-07, No Iterations 577
linear solve p 323061
time step continuity errors : sum local = 6.67855e-10, global = 1.08068e-20, cumulative = 2.55583e-20
ExecutionTime = 6.92 s  ClockTime = 7 s

Time = 0.00285714

Courant Number mean: 0.172875 max: 0.950141
DILUPBiCGStab:  Solving for Ux, Initial residual = 0.00605369, Final residual = 2.356e-05, No Iterations 5
DILUPBiCGStab:  Solving for Uy, Initial residual = 0.0139616, Final residual = 4.5309e-05, No Iterations 5
DILUPBiCGStab:  Solving for Uz, Initial residual = 0.0507768, Final residual = 0.000286306, No Iterations 5
linear solve U 338114
[OGL LOG] init_preconditioner : 0 ms
[OGL LOG] solve : 312 ms
nonecudaGKOCG:  Solving for p, Initial residual = 0.261249, Final residual = 9.30145e-07, No Iterations 574
linear solve p 323276
time step continuity errors : sum local = 2.11677e-07, global = 4.10928e-20, cumulative = 6.66511e-20
[OGL LOG] init_preconditioner : 0 ms
[OGL LOG] solve : 310 ms
nonecudaGKOCG:  Solving for p, Initial residual = 0.183725, Final residual = 9.74131e-07, No Iterations 571
linear solve p 320758
time step continuity errors : sum local = 2.07478e-07, global = -1.42379e-20, cumulative = 5.24132e-20
ExecutionTime = 8.1 s  ClockTime = 8 s

Time = 0.00428571

Courant Number mean: 0.17465 max: 0.951231
DILUPBiCGStab:  Solving for Ux, Initial residual = 0.00280721, Final residual = 1.28905e-05, No Iterations 5
DILUPBiCGStab:  Solving for Uy, Initial residual = 0.0074389, Final residual = 2.49756e-05, No Iterations 5
DILUPBiCGStab:  Solving for Uz, Initial residual = 0.0269119, Final residual = 0.000161766, No Iterations 5
linear solve U 333679
[OGL LOG] init_preconditioner : 0 ms
[OGL LOG] solve : 316 ms
nonecudaGKOCG:  Solving for p, Initial residual = 0.167742, Final residual = 9.50844e-07, No Iterations 568
linear solve p 328123
time step continuity errors : sum local = 2.07237e-07, global = -1.49458e-20, cumulative = 3.74673e-20
[OGL LOG] init_preconditioner : 0 ms
[OGL LOG] solve : 307 ms
nonecudaGKOCG:  Solving for p, Initial residual = 0.122039, Final residual = 9.54589e-07, No Iterations 565
linear solve p 318543
time step continuity errors : sum local = 2.0708e-07, global = 2.50042e-20, cumulative = 6.24715e-20
ExecutionTime = 9.29 s  ClockTime = 9 s

Time = 0.00571429

Courant Number mean: 0.176201 max: 0.951516
DILUPBiCGStab:  Solving for Ux, Initial residual = 0.00217509, Final residual = 7.97241e-06, No Iterations 5
DILUPBiCGStab:  Solving for Uy, Initial residual = 0.00611263, Final residual = 1.44616e-05, No Iterations 5
DILUPBiCGStab:  Solving for Uz, Initial residual = 0.0192786, Final residual = 8.86746e-05, No Iterations 5
linear solve U 335079
[OGL LOG] init_preconditioner : 0 ms
[OGL LOG] solve : 306 ms
nonecudaGKOCG:  Solving for p, Initial residual = 0.120392, Final residual = 9.98501e-07, No Iterations 559
linear solve p 317079
time step continuity errors : sum local = 2.07297e-07, global = 4.95809e-20, cumulative = 1.12052e-19
[OGL LOG] init_preconditioner : 0 ms
[OGL LOG] solve : 301 ms
nonecudaGKOCG:  Solving for p, Initial residual = 0.089215, Final residual = 9.23332e-07, No Iterations 558
linear solve p 311727
time step continuity errors : sum local = 2.06998e-07, global = -4.31146e-21, cumulative = 1.07741e-19
ExecutionTime = 10.45 s  ClockTime = 10 s

Time = 0.00714286

Courant Number mean: 0.177607 max: 0.951995
DILUPBiCGStab:  Solving for Ux, Initial residual = 0.00184423, Final residual = 6.05735e-06, No Iterations 5
DILUPBiCGStab:  Solving for Uy, Initial residual = 0.00509689, Final residual = 1.21901e-05, No Iterations 5
DILUPBiCGStab:  Solving for Uz, Initial residual = 0.0137053, Final residual = 5.4956e-05, No Iterations 5
linear solve U 335473
[OGL LOG] init_preconditioner : 0 ms
[OGL LOG] solve : 305 ms
nonecudaGKOCG:  Solving for p, Initial residual = 0.0867888, Final residual = 9.65455e-07, No Iterations 555
linear solve p 316417
time step continuity errors : sum local = 2.07185e-07, global = -6.24226e-21, cumulative = 1.01499e-19
[OGL LOG] init_preconditioner : 0 ms
[OGL LOG] solve : 302 ms
nonecudaGKOCG:  Solving for p, Initial residual = 0.0641276, Final residual = 9.98814e-07, No Iterations 553
linear solve p 314021
time step continuity errors : sum local = 2.07083e-07, global = -3.40607e-20, cumulative = 6.7438e-20
ExecutionTime = 11.61 s  ClockTime = 11 s

Time = 0.00857143

Courant Number mean: 0.178874 max: 0.952386
DILUPBiCGStab:  Solving for Ux, Initial residual = 0.00157905, Final residual = 4.29109e-06, No Iterations 5
DILUPBiCGStab:  Solving for Uy, Initial residual = 0.0044363, Final residual = 9.91261e-06, No Iterations 5
DILUPBiCGStab:  Solving for Uz, Initial residual = 0.0114961, Final residual = 3.87776e-05, No Iterations 5
linear solve U 331535
[OGL LOG] init_preconditioner : 0 ms
[OGL LOG] solve : 299 ms
nonecudaGKOCG:  Solving for p, Initial residual = 0.0636328, Final residual = 9.491e-07, No Iterations 550
linear solve p 310549
time step continuity errors : sum local = 2.06981e-07, global = 3.61873e-21, cumulative = 7.10567e-20
[OGL LOG] init_preconditioner : 0 ms
[OGL LOG] solve : 300 ms
nonecudaGKOCG:  Solving for p, Initial residual = 0.0474813, Final residual = 9.94768e-07, No Iterations 548
linear solve p 312342
time step continuity errors : sum local = 2.07014e-07, global = 3.05054e-20, cumulative = 1.01562e-19
ExecutionTime = 12.77 s  ClockTime = 13 s

Time = 0.01

Courant Number mean: 0.180014 max: 0.952713
DILUPBiCGStab:  Solving for Ux, Initial residual = 0.00137777, Final residual = 3.0049e-06, No Iterations 5
DILUPBiCGStab:  Solving for Uy, Initial residual = 0.00387062, Final residual = 8.11098e-06, No Iterations 5
DILUPBiCGStab:  Solving for Uz, Initial residual = 0.00901726, Final residual = 3.06675e-05, No Iterations 5
linear solve U 333373
[OGL LOG] init_preconditioner : 0 ms
[OGL LOG] solve : 302 ms
nonecudaGKOCG:  Solving for p, Initial residual = 0.0474042, Final residual = 9.66846e-07, No Iterations 547
linear solve p 313092
time step continuity errors : sum local = 2.07102e-07, global = -3.25758e-20, cumulative = 6.89863e-20
[OGL LOG] init_preconditioner : 0 ms
[OGL LOG] solve : 295 ms
nonecudaGKOCG:  Solving for p, Initial residual = 0.035504, Final residual = 9.2733e-07, No Iterations 546
linear solve p 305651
time step continuity errors : sum local = 2.07029e-07, global = -3.65058e-20, cumulative = 3.24805e-20
ExecutionTime = 13.91 s  ClockTime = 14 s

Time = 0.0114286

Courant Number mean: 0.181045 max: 0.953038
DILUPBiCGStab:  Solving for Ux, Initial residual = 0.00121485, Final residual = 2.01102e-06, No Iterations 5
DILUPBiCGStab:  Solving for Uy, Initial residual = 0.00345405, Final residual = 6.14354e-06, No Iterations 5
DILUPBiCGStab:  Solving for Uz, Initial residual = 0.00785963, Final residual = 2.31876e-05, No Iterations 5
linear solve U 342056
[OGL LOG] init_preconditioner : 0 ms
[OGL LOG] solve : 294 ms
nonecudaGKOCG:  Solving for p, Initial residual = 0.0350941, Final residual = 9.93443e-07, No Iterations 544
linear solve p 305359
time step continuity errors : sum local = 2.06967e-07, global = -2.42331e-20, cumulative = 8.24736e-21
[OGL LOG] init_preconditioner : 0 ms
[OGL LOG] solve : 292 ms
nonecudaGKOCG:  Solving for p, Initial residual = 0.0265493, Final residual = 9.75223e-07, No Iterations 543
linear solve p 303251
time step continuity errors : sum local = 2.07011e-07, global = -7.74477e-21, cumulative = 5.02584e-22
ExecutionTime = 15.06 s  ClockTime = 15 s

Time = 0.0128571

Courant Number mean: 0.181976 max: 0.953292
DILUPBiCGStab:  Solving for Ux, Initial residual = 0.00107674, Final residual = 1.45086e-06, No Iterations 5
DILUPBiCGStab:  Solving for Uy, Initial residual = 0.00306254, Final residual = 4.45635e-06, No Iterations 5
DILUPBiCGStab:  Solving for Uz, Initial residual = 0.00652943, Final residual = 2.11626e-05, No Iterations 5
linear solve U 335463
[OGL LOG] init_preconditioner : 0 ms
[OGL LOG] solve : 293 ms
nonecudaGKOCG:  Solving for p, Initial residual = 0.0268318, Final residual = 9.59182e-07, No Iterations 540
linear solve p 303434
time step continuity errors : sum local = 2.07065e-07, global = 4.33429e-20, cumulative = 4.38455e-20
[OGL LOG] init_preconditioner : 0 ms
[OGL LOG] solve : 292 ms
nonecudaGKOCG:  Solving for p, Initial residual = 0.0204003, Final residual = 9.72157e-07, No Iterations 537
linear solve p 302761
time step continuity errors : sum local = 2.07026e-07, global = 2.17658e-20, cumulative = 6.56113e-20
ExecutionTime = 16.2 s  ClockTime = 16 s

Time = 0.0142857

Courant Number mean: 0.182821 max: 0.953549
DILUPBiCGStab:  Solving for Ux, Initial residual = 0.00096311, Final residual = 1.08098e-06, No Iterations 5
DILUPBiCGStab:  Solving for Uy, Initial residual = 0.00277208, Final residual = 3.39769e-06, No Iterations 5
DILUPBiCGStab:  Solving for Uz, Initial residual = 0.00580698, Final residual = 1.5627e-05, No Iterations 5
linear solve U 336027
[OGL LOG] init_preconditioner : 0 ms
[OGL LOG] solve : 292 ms
nonecudaGKOCG:  Solving for p, Initial residual = 0.0200685, Final residual = 9.56395e-07, No Iterations 536
linear solve p 303516
time step continuity errors : sum local = 2.06962e-07, global = 6.58103e-21, cumulative = 7.21923e-20
[OGL LOG] init_preconditioner : 0 ms
[OGL LOG] solve : 291 ms
nonecudaGKOCG:  Solving for p, Initial residual = 0.0154265, Final residual = 9.45829e-07, No Iterations 534
linear solve p 301522
time step continuity errors : sum local = 2.07002e-07, global = -4.52508e-20, cumulative = 2.69415e-20
ExecutionTime = 17.34 s  ClockTime = 17 s

End

