/*---------------------------------------------------------------------------*\
  =========                 |
  \\      /  F ield         | OpenFOAM: The Open Source CFD Toolbox
   \\    /   O peration     | Website:  https://openfoam.org
    \\  /    A nd           | Version:  8
     \\/     M anipulation  |
\*---------------------------------------------------------------------------*/
Build  : 8-ef60d22ea792
Exec   : icoFoam
Date   : Sep 15 2021
Time   : 14:37:45
Host   : "uc2n438.localdomain"
PID    : 3552894
I/O    : uncollated
Case   : /pfs/data5/home/kit/scc/nq7776/data/code/OBR/lidDrivenCavity3D/Variation_init/100/Variation_mesh/45/Variation_matrix_solver/BiCGStab_NoPrecond_Serial/1631709461
nProcs : 1
sigFpe : Enabling floating point exception trapping (FOAM_SIGFPE).
fileModificationChecking : Monitoring run-time modified files using timeStampMaster (fileModificationSkew 10)
allowSystemOperations : Allowing user-supplied system call operations

// * * * * * * * * * * * * * * * * * * * * * * * * * * * * * * * * * * * * * //
Create time

Create mesh for time = 0

Reading transportProperties

Reading field p

Reading field U

Reading/calculating face flux field phi


Starting time loop

Time = 0.00222222

Courant Number mean: 0.170285 max: 0.902434
DILUPBiCGStab:  Solving for Ux, Initial residual = 0.0600451, Final residual = 2.42115e-05, No Iterations 5
DILUPBiCGStab:  Solving for Uy, Initial residual = 0.101107, Final residual = 1.64927e-05, No Iterations 5
DILUPBiCGStab:  Solving for Uz, Initial residual = 0.144668, Final residual = 0.000113434, No Iterations 5
linear solve U 80937
nonePBiCGStab:  Solving for p, Initial residual = 0.445921, Final residual = 7.25535e-07, No Iterations 308
linear solve p 634808
time step continuity errors : sum local = 2.07401e-09, global = -5.86405e-20, cumulative = -5.86405e-20
nonePBiCGStab:  Solving for p, Initial residual = 0.209273, Final residual = 8.77118e-07, No Iterations 293
linear solve p 603336
time step continuity errors : sum local = 3.10733e-09, global = -3.57449e-20, cumulative = -9.43854e-20
ExecutionTime = 1.82 s  ClockTime = 2 s

Time = 0.00444444

Courant Number mean: 0.173241 max: 0.921781
DILUPBiCGStab:  Solving for Ux, Initial residual = 0.00744574, Final residual = 1.04877e-05, No Iterations 5
DILUPBiCGStab:  Solving for Uy, Initial residual = 0.0150071, Final residual = 1.68792e-05, No Iterations 5
DILUPBiCGStab:  Solving for Uz, Initial residual = 0.0406467, Final residual = 2.97217e-05, No Iterations 5
linear solve U 72166
nonePBiCGStab:  Solving for p, Initial residual = 0.233964, Final residual = 7.47182e-07, No Iterations 320
linear solve p 660178
time step continuity errors : sum local = 2.28171e-09, global = 4.27588e-22, cumulative = -9.39578e-20
nonePBiCGStab:  Solving for p, Initial residual = 0.158038, Final residual = 8.36242e-07, No Iterations 313
linear solve p 644998
time step continuity errors : sum local = 2.41117e-09, global = 4.48933e-20, cumulative = -4.90644e-20
ExecutionTime = 3.24 s  ClockTime = 3 s

Time = 0.00666667

Courant Number mean: 0.175661 max: 0.924366
DILUPBiCGStab:  Solving for Ux, Initial residual = 0.00368666, Final residual = 5.79948e-06, No Iterations 5
DILUPBiCGStab:  Solving for Uy, Initial residual = 0.0102533, Final residual = 7.96059e-06, No Iterations 5
DILUPBiCGStab:  Solving for Uz, Initial residual = 0.02269, Final residual = 2.15167e-05, No Iterations 5
linear solve U 71474
nonePBiCGStab:  Solving for p, Initial residual = 0.106752, Final residual = 4.0824e-07, No Iterations 292
linear solve p 600075
time step continuity errors : sum local = 1.16424e-09, global = -9.49103e-21, cumulative = -5.85555e-20
nonePBiCGStab:  Solving for p, Initial residual = 0.0729937, Final residual = 7.55045e-07, No Iterations 297
linear solve p 612269
time step continuity errors : sum local = 1.96726e-09, global = -5.22737e-20, cumulative = -1.10829e-19
ExecutionTime = 4.56 s  ClockTime = 5 s

Time = 0.00888889

Courant Number mean: 0.177777 max: 0.925692
DILUPBiCGStab:  Solving for Ux, Initial residual = 0.00273549, Final residual = 3.4325e-06, No Iterations 5
DILUPBiCGStab:  Solving for Uy, Initial residual = 0.0071084, Final residual = 5.16791e-06, No Iterations 5
DILUPBiCGStab:  Solving for Uz, Initial residual = 0.0145868, Final residual = 1.12884e-05, No Iterations 5
linear solve U 71197
nonePBiCGStab:  Solving for p, Initial residual = 0.0560502, Final residual = 9.29486e-07, No Iterations 139
linear solve p 285809
time step continuity errors : sum local = 1.90328e-09, global = 1.43809e-20, cumulative = -9.64482e-20
nonePBiCGStab:  Solving for p, Initial residual = 0.0405513, Final residual = 7.80694e-07, No Iterations 247
linear solve p 509219
time step continuity errors : sum local = 2.07425e-09, global = -1.77733e-20, cumulative = -1.14221e-19
ExecutionTime = 5.47 s  ClockTime = 5 s

Time = 0.0111111

Courant Number mean: 0.17953 max: 0.926452
DILUPBiCGStab:  Solving for Ux, Initial residual = 0.00210434, Final residual = 1.66665e-06, No Iterations 5
DILUPBiCGStab:  Solving for Uy, Initial residual = 0.00555253, Final residual = 4.2748e-06, No Iterations 5
DILUPBiCGStab:  Solving for Uz, Initial residual = 0.0106348, Final residual = 7.00414e-06, No Iterations 5
linear solve U 71727
nonePBiCGStab:  Solving for p, Initial residual = 0.0326118, Final residual = 4.78022e-08, No Iterations 269
linear solve p 554299
time step continuity errors : sum local = 6.7235e-11, global = 1.00579e-20, cumulative = -1.04164e-19
nonePBiCGStab:  Solving for p, Initial residual = 0.0239563, Final residual = 8.04568e-07, No Iterations 268
linear solve p 552307
time step continuity errors : sum local = 2.17105e-09, global = 1.83877e-20, cumulative = -8.57759e-20
ExecutionTime = 6.69 s  ClockTime = 7 s

Time = 0.0133333

Courant Number mean: 0.181052 max: 0.927195
DILUPBiCGStab:  Solving for Ux, Initial residual = 0.00174426, Final residual = 7.87553e-07, No Iterations 5
DILUPBiCGStab:  Solving for Uy, Initial residual = 0.00467253, Final residual = 2.53042e-06, No Iterations 5
DILUPBiCGStab:  Solving for Uz, Initial residual = 0.008887, Final residual = 4.91519e-06, No Iterations 5
linear solve U 71613
nonePBiCGStab:  Solving for p, Initial residual = 0.0192892, Final residual = 9.98004e-07, No Iterations 247
linear solve p 510354
time step continuity errors : sum local = 2.694e-09, global = -3.7291e-20, cumulative = -1.23067e-19
nonePBiCGStab:  Solving for p, Initial residual = 0.0146982, Final residual = 9.9917e-07, No Iterations 127
linear solve p 263112
time step continuity errors : sum local = 2.05867e-09, global = -7.86819e-21, cumulative = -1.30935e-19
ExecutionTime = 7.58 s  ClockTime = 8 s

Time = 0.0155556

Courant Number mean: 0.182348 max: 0.927738
DILUPBiCGStab:  Solving for Ux, Initial residual = 0.0014555, Final residual = 5.98293e-07, No Iterations 5
DILUPBiCGStab:  Solving for Uy, Initial residual = 0.00386707, Final residual = 9.51723e-07, No Iterations 5
DILUPBiCGStab:  Solving for Uz, Initial residual = 0.00707984, Final residual = 3.1432e-06, No Iterations 5
linear solve U 71762
nonePBiCGStab:  Solving for p, Initial residual = 0.0129855, Final residual = 9.84041e-07, No Iterations 134
linear solve p 277432
time step continuity errors : sum local = 2.64085e-09, global = -2.51929e-20, cumulative = -1.56128e-19
nonePBiCGStab:  Solving for p, Initial residual = 0.0100568, Final residual = 9.01327e-07, No Iterations 126
linear solve p 263121
time step continuity errors : sum local = 1.69384e-09, global = -2.98678e-20, cumulative = -1.85996e-19
ExecutionTime = 8.23 s  ClockTime = 8 s

Time = 0.0177778

Courant Number mean: 0.183468 max: 0.928243
DILUPBiCGStab:  Solving for Ux, Initial residual = 0.00124359, Final residual = 3.90583e-07, No Iterations 5
DILUPBiCGStab:  Solving for Uy, Initial residual = 0.00335913, Final residual = 8.77743e-07, No Iterations 5
DILUPBiCGStab:  Solving for Uz, Initial residual = 0.00614004, Final residual = 2.56361e-06, No Iterations 5
linear solve U 71674
nonePBiCGStab:  Solving for p, Initial residual = 0.00833092, Final residual = 9.63372e-07, No Iterations 123
linear solve p 255055
time step continuity errors : sum local = 2.37621e-09, global = -2.03481e-20, cumulative = -2.06344e-19
nonePBiCGStab:  Solving for p, Initial residual = 0.00670634, Final residual = 9.65297e-07, No Iterations 118
linear solve p 243318
time step continuity errors : sum local = 1.63029e-09, global = -2.26304e-20, cumulative = -2.28974e-19
ExecutionTime = 8.85 s  ClockTime = 9 s

Time = 0.02

Courant Number mean: 0.184432 max: 0.928634
DILUPBiCGStab:  Solving for Ux, Initial residual = 0.00106192, Final residual = 2.5576e-07, No Iterations 5
DILUPBiCGStab:  Solving for Uy, Initial residual = 0.00285535, Final residual = 6.47245e-07, No Iterations 5
DILUPBiCGStab:  Solving for Uz, Initial residual = 0.00508824, Final residual = 1.77206e-06, No Iterations 5
linear solve U 72046
nonePBiCGStab:  Solving for p, Initial residual = 0.0062605, Final residual = 9.94826e-07, No Iterations 132
linear solve p 273003
time step continuity errors : sum local = 2.5382e-09, global = -3.07015e-20, cumulative = -2.59676e-19
nonePBiCGStab:  Solving for p, Initial residual = 0.00511031, Final residual = 4.435e-07, No Iterations 121
linear solve p 249165
time step continuity errors : sum local = 7.15518e-10, global = 6.14984e-20, cumulative = -1.98178e-19
ExecutionTime = 9.48 s  ClockTime = 9 s

Time = 0.0222222

Courant Number mean: 0.185269 max: 0.928986
DILUPBiCGStab:  Solving for Ux, Initial residual = 0.000918767, Final residual = 1.84717e-07, No Iterations 5
DILUPBiCGStab:  Solving for Uy, Initial residual = 0.00249136, Final residual = 6.69488e-07, No Iterations 5
DILUPBiCGStab:  Solving for Uz, Initial residual = 0.0044032, Final residual = 1.53988e-06, No Iterations 5
linear solve U 71838
nonePBiCGStab:  Solving for p, Initial residual = 0.00426981, Final residual = 9.84584e-07, No Iterations 120
linear solve p 247273
time step continuity errors : sum local = 2.31203e-09, global = -4.54898e-20, cumulative = -2.43667e-19
nonePBiCGStab:  Solving for p, Initial residual = 0.00363538, Final residual = 7.75475e-07, No Iterations 112
linear solve p 232512
time step continuity errors : sum local = 1.07146e-09, global = 5.18016e-20, cumulative = -1.91866e-19
ExecutionTime = 10.08 s  ClockTime = 10 s

End

