/*---------------------------------------------------------------------------*\
  =========                 |
  \\      /  F ield         | OpenFOAM: The Open Source CFD Toolbox
   \\    /   O peration     | Website:  https://openfoam.org
    \\  /    A nd           | Version:  8
     \\/     M anipulation  |
\*---------------------------------------------------------------------------*/
Build  : 8-ef60d22ea792
Exec   : icoFoam
Date   : Sep 15 2021
Time   : 14:02:51
Host   : "uc2n482.localdomain"
PID    : 3639537
I/O    : uncollated
Case   : /pfs/data5/home/kit/scc/nq7776/data/code/OBR/lidDrivenCavity3D/Variation_init/100/Variation_mesh/30/Variation_matrix_solver/CG_BJ_CUDA/Variation_maxBlockSize/1/1631707368
nProcs : 1
sigFpe : Enabling floating point exception trapping (FOAM_SIGFPE).
fileModificationChecking : Monitoring run-time modified files using timeStampMaster (fileModificationSkew 10)
allowSystemOperations : Allowing user-supplied system call operations

// * * * * * * * * * * * * * * * * * * * * * * * * * * * * * * * * * * * * * //
Create time

Create mesh for time = 0

Reading transportProperties

Reading field p

Reading field U

Reading/calculating face flux field phi


Starting time loop

Time = 0.00333333

Courant Number mean: 0.169907 max: 0.893517
DILUPBiCGStab:  Solving for Ux, Initial residual = 0.0911511, Final residual = 3.95829e-06, No Iterations 5
DILUPBiCGStab:  Solving for Uy, Initial residual = 0.158672, Final residual = 5.65407e-06, No Iterations 5
DILUPBiCGStab:  Solving for Uz, Initial residual = 0.266117, Final residual = 9.88141e-06, No Iterations 5
linear solve U 21121
[OGL LOG] init_host_sparsity_pattern : 7 ms
[OGL LOG] matrix not stored update host matrix
[OGL LOG] update_host_mtx : 4 ms
[OGL LOG] matrix is not yet sorted, compute sorting idxs
[OGL LOG] compute_sort : 197 ms
[OGL LOG] matrix is not yet sorted, sorting host matrix
[OGL LOG] sort_host_mtx_sparsity_pattern : 5 ms
[OGL LOG] sort_host_mtx : 2 ms
[OGL LOG] init_preconditioner : 0 ms
[OGL LOG] solve : 32 ms
BJcudaGKOCG:  Solving for p, Initial residual = 0.542954, Final residual = 9.54121e-07, No Iterations 239
linear solve p 1009146
time step continuity errors : sum local = 4.45907e-09, global = 1.65757e-19, cumulative = 1.65757e-19
[OGL LOG] init_preconditioner : 0 ms
[OGL LOG] solve : 32 ms
BJcudaGKOCG:  Solving for p, Initial residual = 0.318921, Final residual = 9.17672e-07, No Iterations 239
linear solve p 33334
time step continuity errors : sum local = 2.81747e-09, global = -2.55394e-20, cumulative = 1.40218e-19
ExecutionTime = 1.23 s  ClockTime = 1 s

Time = 0.00666667

Courant Number mean: 0.173776 max: 0.888266
DILUPBiCGStab:  Solving for Ux, Initial residual = 0.0119482, Final residual = 2.97167e-06, No Iterations 5
DILUPBiCGStab:  Solving for Uy, Initial residual = 0.0223252, Final residual = 3.40217e-06, No Iterations 5
DILUPBiCGStab:  Solving for Uz, Initial residual = 0.0596887, Final residual = 5.25459e-06, No Iterations 5
linear solve U 18412
[OGL LOG] init_preconditioner : 0 ms
[OGL LOG] solve : 31 ms
BJcudaGKOCG:  Solving for p, Initial residual = 0.156723, Final residual = 8.54988e-07, No Iterations 234
linear solve p 32580
time step continuity errors : sum local = 9.92769e-07, global = 4.11936e-20, cumulative = 1.81412e-19
[OGL LOG] init_preconditioner : 0 ms
[OGL LOG] solve : 35 ms
BJcudaGKOCG:  Solving for p, Initial residual = 0.0960171, Final residual = 8.78116e-07, No Iterations 231
linear solve p 36218
time step continuity errors : sum local = 8.86651e-07, global = 7.29091e-20, cumulative = 2.54321e-19
ExecutionTime = 1.33 s  ClockTime = 1 s

Time = 0.01

Courant Number mean: 0.176716 max: 0.888542
DILUPBiCGStab:  Solving for Ux, Initial residual = 0.00409283, Final residual = 6.70335e-07, No Iterations 5
DILUPBiCGStab:  Solving for Uy, Initial residual = 0.00964202, Final residual = 1.18556e-06, No Iterations 5
DILUPBiCGStab:  Solving for Uz, Initial residual = 0.023239, Final residual = 3.07804e-06, No Iterations 5
linear solve U 18028
[OGL LOG] init_preconditioner : 0 ms
[OGL LOG] solve : 30 ms
BJcudaGKOCG:  Solving for p, Initial residual = 0.0542662, Final residual = 9.04726e-07, No Iterations 227
linear solve p 31493
time step continuity errors : sum local = 8.68192e-07, global = 2.51082e-20, cumulative = 2.79429e-19
[OGL LOG] init_preconditioner : 0 ms
[OGL LOG] solve : 31 ms
BJcudaGKOCG:  Solving for p, Initial residual = 0.0362375, Final residual = 8.55582e-07, No Iterations 225
linear solve p 31840
time step continuity errors : sum local = 8.80975e-07, global = -5.69328e-20, cumulative = 2.22496e-19
ExecutionTime = 1.42 s  ClockTime = 1 s

Time = 0.0133333

Courant Number mean: 0.179156 max: 0.890256
DILUPBiCGStab:  Solving for Ux, Initial residual = 0.00297516, Final residual = 3.25966e-07, No Iterations 5
DILUPBiCGStab:  Solving for Uy, Initial residual = 0.00703807, Final residual = 6.1941e-07, No Iterations 5
DILUPBiCGStab:  Solving for Uz, Initial residual = 0.0128686, Final residual = 1.19866e-06, No Iterations 5
linear solve U 17816
[OGL LOG] init_preconditioner : 0 ms
[OGL LOG] solve : 30 ms
BJcudaGKOCG:  Solving for p, Initial residual = 0.0253462, Final residual = 8.7589e-07, No Iterations 222
linear solve p 31062
time step continuity errors : sum local = 8.83916e-07, global = 3.4905e-20, cumulative = 2.57401e-19
[OGL LOG] init_preconditioner : 0 ms
[OGL LOG] solve : 30 ms
BJcudaGKOCG:  Solving for p, Initial residual = 0.0181715, Final residual = 8.93478e-07, No Iterations 220
linear solve p 30886
time step continuity errors : sum local = 8.81899e-07, global = 3.61204e-20, cumulative = 2.93521e-19
ExecutionTime = 1.51 s  ClockTime = 1 s

Time = 0.0166667

Courant Number mean: 0.181129 max: 0.891457
DILUPBiCGStab:  Solving for Ux, Initial residual = 0.00228114, Final residual = 2.37431e-07, No Iterations 5
DILUPBiCGStab:  Solving for Uy, Initial residual = 0.00534288, Final residual = 4.69093e-07, No Iterations 5
DILUPBiCGStab:  Solving for Uz, Initial residual = 0.00928283, Final residual = 5.64865e-07, No Iterations 5
linear solve U 17509
[OGL LOG] init_preconditioner : 0 ms
[OGL LOG] solve : 29 ms
BJcudaGKOCG:  Solving for p, Initial residual = 0.0142925, Final residual = 9.75281e-07, No Iterations 218
linear solve p 30178
time step continuity errors : sum local = 8.80855e-07, global = -1.88001e-20, cumulative = 2.74721e-19
[OGL LOG] init_preconditioner : 0 ms
[OGL LOG] solve : 31 ms
BJcudaGKOCG:  Solving for p, Initial residual = 0.0104789, Final residual = 9.67867e-07, No Iterations 216
linear solve p 32003
time step continuity errors : sum local = 8.81928e-07, global = -1.08325e-19, cumulative = 1.66396e-19
ExecutionTime = 1.6 s  ClockTime = 1 s

Time = 0.02

Courant Number mean: 0.182723 max: 0.892519
DILUPBiCGStab:  Solving for Ux, Initial residual = 0.0017924, Final residual = 1.43075e-07, No Iterations 5
DILUPBiCGStab:  Solving for Uy, Initial residual = 0.00435024, Final residual = 3.47683e-07, No Iterations 5
DILUPBiCGStab:  Solving for Uz, Initial residual = 0.00736203, Final residual = 4.40029e-07, No Iterations 5
linear solve U 18626
[OGL LOG] init_preconditioner : 0 ms
[OGL LOG] solve : 30 ms
BJcudaGKOCG:  Solving for p, Initial residual = 0.00820941, Final residual = 8.78714e-07, No Iterations 215
linear solve p 30995
time step continuity errors : sum local = 8.81424e-07, global = 5.25027e-20, cumulative = 2.18899e-19
[OGL LOG] init_preconditioner : 0 ms
[OGL LOG] solve : 29 ms
BJcudaGKOCG:  Solving for p, Initial residual = 0.00653748, Final residual = 9.71314e-07, No Iterations 212
linear solve p 29987
time step continuity errors : sum local = 8.81943e-07, global = 6.56082e-20, cumulative = 2.84507e-19
ExecutionTime = 1.69 s  ClockTime = 1 s

Time = 0.0233333

Courant Number mean: 0.184011 max: 0.893289
DILUPBiCGStab:  Solving for Ux, Initial residual = 0.00143715, Final residual = 1.09334e-07, No Iterations 5
DILUPBiCGStab:  Solving for Uy, Initial residual = 0.00347899, Final residual = 2.43323e-07, No Iterations 5
DILUPBiCGStab:  Solving for Uz, Initial residual = 0.005757, Final residual = 2.57407e-07, No Iterations 5
linear solve U 17652
[OGL LOG] init_preconditioner : 0 ms
[OGL LOG] solve : 31 ms
BJcudaGKOCG:  Solving for p, Initial residual = 0.00545568, Final residual = 9.02971e-07, No Iterations 205
linear solve p 32634
time step continuity errors : sum local = 8.81543e-07, global = -3.39268e-20, cumulative = 2.5058e-19
[OGL LOG] init_preconditioner : 0 ms
[OGL LOG] solve : 28 ms
BJcudaGKOCG:  Solving for p, Initial residual = 0.00442783, Final residual = 9.34946e-07, No Iterations 202
linear solve p 29279
time step continuity errors : sum local = 8.81946e-07, global = -1.54083e-20, cumulative = 2.35172e-19
ExecutionTime = 1.79 s  ClockTime = 1 s

Time = 0.0266667

Courant Number mean: 0.185057 max: 0.893926
DILUPBiCGStab:  Solving for Ux, Initial residual = 0.00115894, Final residual = 5.42714e-08, No Iterations 5
DILUPBiCGStab:  Solving for Uy, Initial residual = 0.0028549, Final residual = 1.87651e-07, No Iterations 5
DILUPBiCGStab:  Solving for Uz, Initial residual = 0.00465481, Final residual = 2.32424e-07, No Iterations 5
linear solve U 18321
[OGL LOG] init_preconditioner : 0 ms
[OGL LOG] solve : 27 ms
BJcudaGKOCG:  Solving for p, Initial residual = 0.0038578, Final residual = 9.98218e-07, No Iterations 202
linear solve p 28744
time step continuity errors : sum local = 8.81743e-07, global = 4.9574e-21, cumulative = 2.40129e-19
[OGL LOG] init_preconditioner : 0 ms
[OGL LOG] solve : 28 ms
BJcudaGKOCG:  Solving for p, Initial residual = 0.00327611, Final residual = 9.50728e-07, No Iterations 201
linear solve p 29131
time step continuity errors : sum local = 8.81968e-07, global = 1.98589e-20, cumulative = 2.59988e-19
ExecutionTime = 1.87 s  ClockTime = 2 s

Time = 0.03

Courant Number mean: 0.185908 max: 0.894414
DILUPBiCGStab:  Solving for Ux, Initial residual = 0.000942612, Final residual = 5.13989e-08, No Iterations 5
DILUPBiCGStab:  Solving for Uy, Initial residual = 0.00232451, Final residual = 1.38009e-07, No Iterations 5
DILUPBiCGStab:  Solving for Uz, Initial residual = 0.00370724, Final residual = 1.70728e-07, No Iterations 5
linear solve U 18581
[OGL LOG] init_preconditioner : 0 ms
[OGL LOG] solve : 28 ms
BJcudaGKOCG:  Solving for p, Initial residual = 0.00291726, Final residual = 9.66765e-07, No Iterations 202
linear solve p 29529
time step continuity errors : sum local = 8.81797e-07, global = -6.74099e-20, cumulative = 1.92578e-19
[OGL LOG] init_preconditioner : 0 ms
[OGL LOG] solve : 27 ms
BJcudaGKOCG:  Solving for p, Initial residual = 0.00251594, Final residual = 9.96521e-07, No Iterations 198
linear solve p 28220
time step continuity errors : sum local = 8.82025e-07, global = -3.77918e-21, cumulative = 1.88799e-19
ExecutionTime = 1.97 s  ClockTime = 2 s

Time = 0.0333333

Courant Number mean: 0.186602 max: 0.894809
DILUPBiCGStab:  Solving for Ux, Initial residual = 0.00076753, Final residual = 2.9538e-08, No Iterations 5
DILUPBiCGStab:  Solving for Uy, Initial residual = 0.00191398, Final residual = 1.26328e-07, No Iterations 5
DILUPBiCGStab:  Solving for Uz, Initial residual = 0.00299476, Final residual = 1.45474e-07, No Iterations 5
linear solve U 18050
[OGL LOG] init_preconditioner : 0 ms
[OGL LOG] solve : 27 ms
BJcudaGKOCG:  Solving for p, Initial residual = 0.00225651, Final residual = 8.25103e-07, No Iterations 196
linear solve p 28048
time step continuity errors : sum local = 8.81775e-07, global = 6.2173e-21, cumulative = 1.95017e-19
[OGL LOG] init_preconditioner : 0 ms
[OGL LOG] solve : 27 ms
BJcudaGKOCG:  Solving for p, Initial residual = 0.00197996, Final residual = 9.88297e-07, No Iterations 193
linear solve p 28230
time step continuity errors : sum local = 8.82044e-07, global = -9.72454e-21, cumulative = 1.85292e-19
ExecutionTime = 2.05 s  ClockTime = 2 s

End

