/*---------------------------------------------------------------------------*\
  =========                 |
  \\      /  F ield         | OpenFOAM: The Open Source CFD Toolbox
   \\    /   O peration     | Website:  https://openfoam.org
    \\  /    A nd           | Version:  8
     \\/     M anipulation  |
\*---------------------------------------------------------------------------*/
Build  : 8-ef60d22ea792
Exec   : icoFoam
Date   : Sep 15 2021
Time   : 14:22:10
Host   : "uc2n482.localdomain"
PID    : 3643619
I/O    : uncollated
Case   : /pfs/data5/home/kit/scc/nq7776/data/code/OBR/lidDrivenCavity3D/Variation_init/100/Variation_mesh/100/Variation_matrix_solver/BiCGStab_NoPrecond_CUDA/1631708488
nProcs : 1
sigFpe : Enabling floating point exception trapping (FOAM_SIGFPE).
fileModificationChecking : Monitoring run-time modified files using timeStampMaster (fileModificationSkew 10)
allowSystemOperations : Allowing user-supplied system call operations

// * * * * * * * * * * * * * * * * * * * * * * * * * * * * * * * * * * * * * //
Create time

Create mesh for time = 0

Reading transportProperties

Reading field p

Reading field U

Reading/calculating face flux field phi


Starting time loop

Time = 0.001

Courant Number mean: 0.171005 max: 0.964718
DILUPBiCGStab:  Solving for Ux, Initial residual = 0.00221104, Final residual = 2.10455e-05, No Iterations 5
DILUPBiCGStab:  Solving for Uy, Initial residual = 0.00671465, Final residual = 5.53885e-05, No Iterations 5
DILUPBiCGStab:  Solving for Uz, Initial residual = 0.0303966, Final residual = 0.000635532, No Iterations 5
linear solve U 1090809
[OGL LOG] init_host_sparsity_pattern : 298 ms
[OGL LOG] matrix not stored update host matrix
[OGL LOG] update_host_mtx : 160 ms
[OGL LOG] matrix is not yet sorted, compute sorting idxs
[OGL LOG] compute_sort : 9472 ms
[OGL LOG] matrix is not yet sorted, sorting host matrix
[OGL LOG] sort_host_mtx_sparsity_pattern : 210 ms
[OGL LOG] sort_host_mtx : 121 ms
[OGL LOG] init_preconditioner : 0 ms
[OGL LOG] solve : 1538 ms
nonecudaGKOBiCGStab:  Solving for p, Initial residual = 0.148074, Final residual = 5.48797e-07, No Iterations 646
linear solve p 12656921
time step continuity errors : sum local = 6.08375e-07, global = -4.02171e-21, cumulative = -4.02171e-21
[OGL LOG] init_preconditioner : 0 ms
[OGL LOG] solve : 1445 ms
nonecudaGKOBiCGStab:  Solving for p, Initial residual = 0.128018, Final residual = 9.46044e-07, No Iterations 616
linear solve p 1478132
time step continuity errors : sum local = 5.49262e-07, global = -1.3412e-20, cumulative = -1.74337e-20
ExecutionTime = 20.29 s  ClockTime = 20 s

Time = 0.002

Courant Number mean: 0.172431 max: 0.965079
DILUPBiCGStab:  Solving for Ux, Initial residual = 0.00200099, Final residual = 1.87343e-05, No Iterations 5
DILUPBiCGStab:  Solving for Uy, Initial residual = 0.00604518, Final residual = 4.76004e-05, No Iterations 5
DILUPBiCGStab:  Solving for Uz, Initial residual = 0.0301529, Final residual = 0.000650314, No Iterations 5
linear solve U 1082053
[OGL LOG] init_preconditioner : 0 ms
[OGL LOG] solve : 1395 ms
nonecudaGKOBiCGStab:  Solving for p, Initial residual = 0.148358, Final residual = 9.98584e-07, No Iterations 593
linear solve p 1429085
time step continuity errors : sum local = 7.72096e-08, global = 1.9967e-20, cumulative = 2.53333e-21
[OGL LOG] init_preconditioner : 0 ms
[OGL LOG] solve : 1468 ms
nonecudaGKOBiCGStab:  Solving for p, Initial residual = 0.127013, Final residual = 8.04123e-07, No Iterations 623
linear solve p 1501226
time step continuity errors : sum local = 1.8097e-06, global = 1.34061e-20, cumulative = 1.59394e-20
ExecutionTime = 24.94 s  ClockTime = 25 s

Time = 0.003

Courant Number mean: 0.173748 max: 0.965401
DILUPBiCGStab:  Solving for Ux, Initial residual = 0.00178629, Final residual = 1.3697e-05, No Iterations 5
DILUPBiCGStab:  Solving for Uy, Initial residual = 0.00543402, Final residual = 3.61553e-05, No Iterations 5
DILUPBiCGStab:  Solving for Uz, Initial residual = 0.0332233, Final residual = 0.000714509, No Iterations 5
linear solve U 1074987
[OGL LOG] init_preconditioner : 0 ms
[OGL LOG] solve : 1428 ms
nonecudaGKOBiCGStab:  Solving for p, Initial residual = 0.158028, Final residual = 6.88035e-07, No Iterations 610
linear solve p 1460356
time step continuity errors : sum local = 9.72905e-06, global = 1.215e-20, cumulative = 2.80894e-20
[OGL LOG] init_preconditioner : 0 ms
[OGL LOG] solve : 1461 ms
nonecudaGKOBiCGStab:  Solving for p, Initial residual = 0.170159, Final residual = 9.91894e-07, No Iterations 620
linear solve p 1496063
time step continuity errors : sum local = 2.59252e-07, global = -6.63979e-21, cumulative = 2.14496e-20
ExecutionTime = 29.58 s  ClockTime = 29 s

Time = 0.004

Courant Number mean: 0.174968 max: 0.965699
DILUPBiCGStab:  Solving for Ux, Initial residual = 0.00162899, Final residual = 1.1886e-05, No Iterations 5
DILUPBiCGStab:  Solving for Uy, Initial residual = 0.00496031, Final residual = 3.14338e-05, No Iterations 5
DILUPBiCGStab:  Solving for Uz, Initial residual = 0.051161, Final residual = 0.00128871, No Iterations 5
linear solve U 1060856
[OGL LOG] init_preconditioner : 0 ms
[OGL LOG] solve : 1507 ms
nonecudaGKOBiCGStab:  Solving for p, Initial residual = 0.221318, Final residual = 8.39788e-07, No Iterations 644
linear solve p 1539712
time step continuity errors : sum local = 1.0155e-05, global = -9.79258e-21, cumulative = 1.1657e-20
[OGL LOG] init_preconditioner : 0 ms
[OGL LOG] solve : 1484 ms
nonecudaGKOBiCGStab:  Solving for p, Initial residual = 0.204394, Final residual = 9.24039e-07, No Iterations 633
linear solve p 1516735
time step continuity errors : sum local = 2.98664e-06, global = -1.44647e-20, cumulative = -2.80766e-21
ExecutionTime = 34.34 s  ClockTime = 34 s

Time = 0.005

Courant Number mean: 0.176097 max: 0.965968
DILUPBiCGStab:  Solving for Ux, Initial residual = 0.00149712, Final residual = 1.06218e-05, No Iterations 5
DILUPBiCGStab:  Solving for Uy, Initial residual = 0.00460363, Final residual = 3.03095e-05, No Iterations 5
DILUPBiCGStab:  Solving for Uz, Initial residual = 0.0886595, Final residual = 0.0026292, No Iterations 5
linear solve U 1071162
[OGL LOG] init_preconditioner : 0 ms
[OGL LOG] solve : 1378 ms
nonecudaGKOBiCGStab:  Solving for p, Initial residual = 0.33747, Final residual = 7.13574e-07, No Iterations 587
linear solve p 1413718
time step continuity errors : sum local = 5.51245e-05, global = 1.79801e-19, cumulative = 1.76993e-19
[OGL LOG] init_preconditioner : 0 ms
[OGL LOG] solve : 1737 ms
nonecudaGKOBiCGStab:  Solving for p, Initial residual = 0.335474, Final residual = 8.12563e-07, No Iterations 740
linear solve p 1773674
time step continuity errors : sum local = 1.91439e-06, global = -6.74324e-21, cumulative = 1.7025e-19
ExecutionTime = 39.3 s  ClockTime = 39 s

Time = 0.006

Courant Number mean: 0.177144 max: 0.96621
DILUPBiCGStab:  Solving for Ux, Initial residual = 0.00142138, Final residual = 1.06232e-05, No Iterations 5
DILUPBiCGStab:  Solving for Uy, Initial residual = 0.00444926, Final residual = 4.95322e-05, No Iterations 5
DILUPBiCGStab:  Solving for Uz, Initial residual = 0.236779, Final residual = 0.00779515, No Iterations 5
linear solve U 1114373
[OGL LOG] init_preconditioner : 0 ms
[OGL LOG] solve : 1516 ms
nonecudaGKOBiCGStab:  Solving for p, Initial residual = 0.628715, Final residual = 1.83219e-07, No Iterations 640
linear solve p 1554786
time step continuity errors : sum local = 1.41937e-05, global = 1.23636e-20, cumulative = 1.82614e-19
[OGL LOG] init_preconditioner : 0 ms
[OGL LOG] solve : 1444 ms
nonecudaGKOBiCGStab:  Solving for p, Initial residual = 0.546762, Final residual = 7.91598e-07, No Iterations 614
linear solve p 1479528
time step continuity errors : sum local = 6.00924e-05, global = 1.80218e-19, cumulative = 3.62832e-19
ExecutionTime = 44.26 s  ClockTime = 44 s

Time = 0.007

Courant Number mean: 0.17818 max: 0.968906
DILUPBiCGStab:  Solving for Ux, Initial residual = 0.00175541, Final residual = 2.55595e-05, No Iterations 5
DILUPBiCGStab:  Solving for Uy, Initial residual = 0.00572678, Final residual = 9.39306e-05, No Iterations 5
DILUPBiCGStab:  Solving for Uz, Initial residual = 0.195779, Final residual = 0.00220381, No Iterations 5
linear solve U 1068718
[OGL LOG] init_preconditioner : 0 ms
[OGL LOG] solve : 1379 ms
nonecudaGKOBiCGStab:  Solving for p, Initial residual = 0.442041, Final residual = 6.83182e-07, No Iterations 584
linear solve p 1412831
time step continuity errors : sum local = 2.09854e-05, global = 6.14367e-20, cumulative = 4.24269e-19
[OGL LOG] init_preconditioner : 0 ms
[OGL LOG] solve : 1473 ms
nonecudaGKOBiCGStab:  Solving for p, Initial residual = 0.341238, Final residual = 4.6676e-07, No Iterations 624
linear solve p 1506521
time step continuity errors : sum local = 9.82399e-06, global = 2.29698e-20, cumulative = 4.47239e-19
ExecutionTime = 48.94 s  ClockTime = 49 s

Time = 0.008

Courant Number mean: 0.179018 max: 0.966895
DILUPBiCGStab:  Solving for Ux, Initial residual = 0.00137647, Final residual = 1.33377e-05, No Iterations 5
DILUPBiCGStab:  Solving for Uy, Initial residual = 0.00444395, Final residual = 4.51517e-05, No Iterations 5
DILUPBiCGStab:  Solving for Uz, Initial residual = 0.191924, Final residual = 0.00515045, No Iterations 5
linear solve U 1082266
[OGL LOG] init_preconditioner : 0 ms
[OGL LOG] solve : 1693 ms
nonecudaGKOBiCGStab:  Solving for p, Initial residual = 0.500139, Final residual = 9.13904e-07, No Iterations 720
linear solve p 1725476
time step continuity errors : sum local = 1.16403e-06, global = -6.12793e-21, cumulative = 4.41111e-19
[OGL LOG] init_preconditioner : 0 ms
[OGL LOG] solve : 1382 ms
nonecudaGKOBiCGStab:  Solving for p, Initial residual = 0.443573, Final residual = 9.50978e-07, No Iterations 584
linear solve p 1415870
time step continuity errors : sum local = 2.20762e-06, global = 2.76506e-21, cumulative = 4.43876e-19
ExecutionTime = 53.81 s  ClockTime = 54 s

Time = 0.009

Courant Number mean: 0.179832 max: 0.966791
DILUPBiCGStab:  Solving for Ux, Initial residual = 0.00123279, Final residual = 1.19367e-05, No Iterations 5
DILUPBiCGStab:  Solving for Uy, Initial residual = 0.00391216, Final residual = 4.16666e-05, No Iterations 5
DILUPBiCGStab:  Solving for Uz, Initial residual = 0.171212, Final residual = 0.0035292, No Iterations 5
linear solve U 1078809
[OGL LOG] init_preconditioner : 0 ms
[OGL LOG] solve : 1389 ms
nonecudaGKOBiCGStab:  Solving for p, Initial residual = 0.411037, Final residual = 7.5125e-07, No Iterations 590
linear solve p 1424874
time step continuity errors : sum local = 2.85583e-05, global = 3.78756e-20, cumulative = 4.81751e-19
[OGL LOG] init_preconditioner : 0 ms
[OGL LOG] solve : 1439 ms
nonecudaGKOBiCGStab:  Solving for p, Initial residual = 0.353512, Final residual = 7.00245e-07, No Iterations 612
linear solve p 1471455
time step continuity errors : sum local = 5.31782e-06, global = -5.9744e-21, cumulative = 4.75777e-19
ExecutionTime = 58.41 s  ClockTime = 58 s

Time = 0.01

Courant Number mean: 0.180596 max: 0.96701
DILUPBiCGStab:  Solving for Ux, Initial residual = 0.00112328, Final residual = 1.02513e-05, No Iterations 5
DILUPBiCGStab:  Solving for Uy, Initial residual = 0.00360886, Final residual = 4.76636e-05, No Iterations 5
DILUPBiCGStab:  Solving for Uz, Initial residual = 0.208163, Final residual = 0.0058863, No Iterations 5
linear solve U 1090033
[OGL LOG] init_preconditioner : 0 ms
[OGL LOG] solve : 1484 ms
nonecudaGKOBiCGStab:  Solving for p, Initial residual = 0.558873, Final residual = 4.50303e-07, No Iterations 631
linear solve p 1516098
time step continuity errors : sum local = 8.4162e-06, global = 1.9244e-20, cumulative = 4.95021e-19
[OGL LOG] init_preconditioner : 0 ms
[OGL LOG] solve : 1416 ms
nonecudaGKOBiCGStab:  Solving for p, Initial residual = 0.483718, Final residual = 7.09012e-07, No Iterations 602
linear solve p 1448524
time step continuity errors : sum local = 2.46742e-06, global = 6.08847e-21, cumulative = 5.01109e-19
ExecutionTime = 63.07 s  ClockTime = 63 s

End

