/*---------------------------------------------------------------------------*\
  =========                 |
  \\      /  F ield         | OpenFOAM: The Open Source CFD Toolbox
   \\    /   O peration     | Website:  https://openfoam.org
    \\  /    A nd           | Version:  8
     \\/     M anipulation  |
\*---------------------------------------------------------------------------*/
Build  : 8-ef60d22ea792
Exec   : icoFoam
Date   : Sep 15 2021
Time   : 14:58:50
Host   : "uc2n482.localdomain"
PID    : 3656711
I/O    : uncollated
Case   : /pfs/data5/home/kit/scc/nq7776/data/code/OBR/lidDrivenCavity3D/Variation_init/100/Variation_mesh/10/Variation_matrix_solver/CG_BJ_CUDA/Variation_maxBlockSize/8/1631710728
nProcs : 1
sigFpe : Enabling floating point exception trapping (FOAM_SIGFPE).
fileModificationChecking : Monitoring run-time modified files using timeStampMaster (fileModificationSkew 10)
allowSystemOperations : Allowing user-supplied system call operations

// * * * * * * * * * * * * * * * * * * * * * * * * * * * * * * * * * * * * * //
Create time

Create mesh for time = 0

Reading transportProperties

Reading field p

Reading field U

Reading/calculating face flux field phi


Starting time loop

Time = 0.01

Courant Number mean: 0.164367 max: 0.687382
DILUPBiCGStab:  Solving for Ux, Initial residual = 0.143876, Final residual = 4.90416e-10, No Iterations 5
DILUPBiCGStab:  Solving for Uy, Initial residual = 0.166383, Final residual = 9.49899e-10, No Iterations 5
DILUPBiCGStab:  Solving for Uz, Initial residual = 0.331866, Final residual = 6.25857e-09, No Iterations 5
linear solve U 793
[OGL LOG] init_host_sparsity_pattern : 0 ms
[OGL LOG] matrix not stored update host matrix
[OGL LOG] update_host_mtx : 0 ms
[OGL LOG] matrix is not yet sorted, compute sorting idxs
[OGL LOG] compute_sort : 5 ms
[OGL LOG] matrix is not yet sorted, sorting host matrix
[OGL LOG] sort_host_mtx_sparsity_pattern : 0 ms
[OGL LOG] sort_host_mtx : 0 ms
[OGL LOG] init_preconditioner : 0 ms
[OGL LOG] solve : 10 ms
BJcudaGKOCG:  Solving for p, Initial residual = 0.61492, Final residual = 7.58387e-07, No Iterations 68
linear solve p 768457
time step continuity errors : sum local = 2.31204e-08, global = -2.96834e-20, cumulative = -2.96834e-20
[OGL LOG] init_preconditioner : 0 ms
[OGL LOG] solve : 9 ms
BJcudaGKOCG:  Solving for p, Initial residual = 0.306169, Final residual = 6.57374e-07, No Iterations 67
linear solve p 10010
time step continuity errors : sum local = 1.12571e-08, global = 3.12138e-19, cumulative = 2.82454e-19
ExecutionTime = 0.81 s  ClockTime = 1 s

Time = 0.02

Courant Number mean: 0.168824 max: 0.675339
DILUPBiCGStab:  Solving for Ux, Initial residual = 0.0355474, Final residual = 1.50456e-09, No Iterations 5
DILUPBiCGStab:  Solving for Uy, Initial residual = 0.0400341, Final residual = 6.38502e-10, No Iterations 5
DILUPBiCGStab:  Solving for Uz, Initial residual = 0.103394, Final residual = 1.83812e-09, No Iterations 5
linear solve U 584
[OGL LOG] init_preconditioner : 0 ms
[OGL LOG] solve : 10 ms
BJcudaGKOCG:  Solving for p, Initial residual = 0.153464, Final residual = 9.58333e-07, No Iterations 64
linear solve p 10620
time step continuity errors : sum local = 2.73749e-05, global = -1.12364e-19, cumulative = 1.7009e-19
[OGL LOG] init_preconditioner : 0 ms
[OGL LOG] solve : 9 ms
BJcudaGKOCG:  Solving for p, Initial residual = 0.0682513, Final residual = 7.16436e-07, No Iterations 62
linear solve p 9798
time step continuity errors : sum local = 2.45636e-05, global = -6.4851e-21, cumulative = 1.63605e-19
ExecutionTime = 0.83 s  ClockTime = 1 s

Time = 0.03

Courant Number mean: 0.172125 max: 0.67452
DILUPBiCGStab:  Solving for Ux, Initial residual = 0.0078625, Final residual = 3.41255e-10, No Iterations 5
DILUPBiCGStab:  Solving for Uy, Initial residual = 0.0117527, Final residual = 1.81611e-10, No Iterations 5
DILUPBiCGStab:  Solving for Uz, Initial residual = 0.0329089, Final residual = 7.83226e-10, No Iterations 5
linear solve U 592
[OGL LOG] init_preconditioner : 0 ms
[OGL LOG] solve : 8 ms
BJcudaGKOCG:  Solving for p, Initial residual = 0.0151549, Final residual = 7.81366e-07, No Iterations 59
linear solve p 8985
time step continuity errors : sum local = 2.43582e-05, global = -3.97047e-22, cumulative = 1.63208e-19
[OGL LOG] init_preconditioner : 0 ms
[OGL LOG] solve : 8 ms
BJcudaGKOCG:  Solving for p, Initial residual = 0.00703025, Final residual = 9.52963e-07, No Iterations 56
linear solve p 8556
time step continuity errors : sum local = 2.43941e-05, global = -3.32924e-19, cumulative = -1.69716e-19
ExecutionTime = 0.85 s  ClockTime = 1 s

Time = 0.04

Courant Number mean: 0.174438 max: 0.676488
DILUPBiCGStab:  Solving for Ux, Initial residual = 0.0034689, Final residual = 8.5458e-11, No Iterations 5
DILUPBiCGStab:  Solving for Uy, Initial residual = 0.00573782, Final residual = 8.30543e-11, No Iterations 5
DILUPBiCGStab:  Solving for Uz, Initial residual = 0.0109296, Final residual = 1.51656e-10, No Iterations 5
linear solve U 578
[OGL LOG] init_preconditioner : 0 ms
[OGL LOG] solve : 8 ms
BJcudaGKOCG:  Solving for p, Initial residual = 0.00633109, Final residual = 8.4016e-07, No Iterations 56
linear solve p 8229
time step continuity errors : sum local = 2.44216e-05, global = 2.33463e-19, cumulative = 6.37477e-20
[OGL LOG] init_preconditioner : 0 ms
[OGL LOG] solve : 7 ms
BJcudaGKOCG:  Solving for p, Initial residual = 0.00352241, Final residual = 9.2853e-07, No Iterations 53
linear solve p 8046
time step continuity errors : sum local = 2.43943e-05, global = 1.2904e-19, cumulative = 1.92788e-19
ExecutionTime = 0.87 s  ClockTime = 1 s

Time = 0.05

Courant Number mean: 0.17593 max: 0.67828
DILUPBiCGStab:  Solving for Ux, Initial residual = 0.00187323, Final residual = 4.14629e-11, No Iterations 5
DILUPBiCGStab:  Solving for Uy, Initial residual = 0.00338896, Final residual = 1.90878e-11, No Iterations 5
DILUPBiCGStab:  Solving for Uz, Initial residual = 0.0055938, Final residual = 7.41291e-11, No Iterations 5
linear solve U 571
[OGL LOG] init_preconditioner : 0 ms
[OGL LOG] solve : 7 ms
BJcudaGKOCG:  Solving for p, Initial residual = 0.00308547, Final residual = 9.4677e-07, No Iterations 53
linear solve p 7901
time step continuity errors : sum local = 2.43874e-05, global = 1.23879e-19, cumulative = 3.16666e-19
[OGL LOG] init_preconditioner : 0 ms
[OGL LOG] solve : 7 ms
BJcudaGKOCG:  Solving for p, Initial residual = 0.00176192, Final residual = 8.0399e-07, No Iterations 52
linear solve p 7687
time step continuity errors : sum local = 2.43839e-05, global = 1.02107e-19, cumulative = 4.18774e-19
ExecutionTime = 0.89 s  ClockTime = 1 s

Time = 0.06

Courant Number mean: 0.176864 max: 0.679468
DILUPBiCGStab:  Solving for Ux, Initial residual = 0.00111327, Final residual = 1.55526e-11, No Iterations 5
DILUPBiCGStab:  Solving for Uy, Initial residual = 0.00209469, Final residual = 1.01726e-11, No Iterations 5
DILUPBiCGStab:  Solving for Uz, Initial residual = 0.00301951, Final residual = 5.22038e-11, No Iterations 5
linear solve U 573
[OGL LOG] init_preconditioner : 0 ms
[OGL LOG] solve : 7 ms
BJcudaGKOCG:  Solving for p, Initial residual = 0.00188602, Final residual = 7.72137e-07, No Iterations 52
linear solve p 7549
time step continuity errors : sum local = 2.43815e-05, global = -3.54298e-19, cumulative = 6.44756e-20
[OGL LOG] init_preconditioner : 0 ms
[OGL LOG] solve : 7 ms
BJcudaGKOCG:  Solving for p, Initial residual = 0.0010822, Final residual = 8.82653e-07, No Iterations 50
linear solve p 7591
time step continuity errors : sum local = 2.43815e-05, global = 5.66056e-19, cumulative = 6.30532e-19
ExecutionTime = 0.9 s  ClockTime = 1 s

Time = 0.07

Courant Number mean: 0.177444 max: 0.680222
DILUPBiCGStab:  Solving for Ux, Initial residual = 0.000680243, Final residual = 7.14748e-12, No Iterations 5
DILUPBiCGStab:  Solving for Uy, Initial residual = 0.00129782, Final residual = 6.10526e-12, No Iterations 5
DILUPBiCGStab:  Solving for Uz, Initial residual = 0.00176895, Final residual = 3.51571e-11, No Iterations 5
linear solve U 577
[OGL LOG] init_preconditioner : 0 ms
[OGL LOG] solve : 7 ms
BJcudaGKOCG:  Solving for p, Initial residual = 0.0011506, Final residual = 8.2089e-07, No Iterations 50
linear solve p 7603
time step continuity errors : sum local = 2.43759e-05, global = 5.6685e-19, cumulative = 1.19738e-18
[OGL LOG] init_preconditioner : 0 ms
[OGL LOG] solve : 7 ms
BJcudaGKOCG:  Solving for p, Initial residual = 0.000656106, Final residual = 9.25893e-07, No Iterations 48
linear solve p 7175
time step continuity errors : sum local = 2.43794e-05, global = -1.49885e-19, cumulative = 1.0475e-18
ExecutionTime = 0.92 s  ClockTime = 1 s

Time = 0.08

Courant Number mean: 0.177803 max: 0.680688
DILUPBiCGStab:  Solving for Ux, Initial residual = 0.00041854, Final residual = 3.53533e-12, No Iterations 5
DILUPBiCGStab:  Solving for Uy, Initial residual = 0.000805931, Final residual = 3.70695e-12, No Iterations 5
DILUPBiCGStab:  Solving for Uz, Initial residual = 0.00106562, Final residual = 2.15741e-11, No Iterations 5
linear solve U 590
[OGL LOG] init_preconditioner : 0 ms
[OGL LOG] solve : 6 ms
BJcudaGKOCG:  Solving for p, Initial residual = 0.000707896, Final residual = 8.83516e-07, No Iterations 47
linear solve p 6925
time step continuity errors : sum local = 2.43747e-05, global = 1.00731e-18, cumulative = 2.0548e-18
[OGL LOG] init_preconditioner : 0 ms
[OGL LOG] solve : 6 ms
BJcudaGKOCG:  Solving for p, Initial residual = 0.00040398, Final residual = 8.41386e-07, No Iterations 45
linear solve p 6711
time step continuity errors : sum local = 2.43772e-05, global = 3.18299e-20, cumulative = 2.08663e-18
ExecutionTime = 0.93 s  ClockTime = 1 s

Time = 0.09

Courant Number mean: 0.178025 max: 0.680973
DILUPBiCGStab:  Solving for Ux, Initial residual = 0.000258422, Final residual = 1.77923e-12, No Iterations 5
DILUPBiCGStab:  Solving for Uy, Initial residual = 0.000500333, Final residual = 2.26004e-12, No Iterations 5
DILUPBiCGStab:  Solving for Uz, Initial residual = 0.000649462, Final residual = 1.20526e-11, No Iterations 5
linear solve U 575
[OGL LOG] init_preconditioner : 0 ms
[OGL LOG] solve : 6 ms
BJcudaGKOCG:  Solving for p, Initial residual = 0.000436451, Final residual = 7.0338e-07, No Iterations 45
linear solve p 6720
time step continuity errors : sum local = 2.43749e-05, global = -3.49335e-19, cumulative = 1.7373e-18
[OGL LOG] init_preconditioner : 0 ms
[OGL LOG] solve : 6 ms
BJcudaGKOCG:  Solving for p, Initial residual = 0.000248592, Final residual = 9.55411e-07, No Iterations 43
linear solve p 6450
time step continuity errors : sum local = 2.43749e-05, global = 1.68679e-19, cumulative = 1.90598e-18
ExecutionTime = 0.95 s  ClockTime = 1 s

Time = 0.1

Courant Number mean: 0.178162 max: 0.681146
DILUPBiCGStab:  Solving for Ux, Initial residual = 0.00015981, Final residual = 8.89652e-13, No Iterations 5
DILUPBiCGStab:  Solving for Uy, Initial residual = 0.000310568, Final residual = 1.38359e-12, No Iterations 5
DILUPBiCGStab:  Solving for Uz, Initial residual = 0.000397046, Final residual = 7.20876e-12, No Iterations 5
linear solve U 571
[OGL LOG] init_preconditioner : 0 ms
[OGL LOG] solve : 6 ms
BJcudaGKOCG:  Solving for p, Initial residual = 0.000268972, Final residual = 6.69544e-07, No Iterations 44
linear solve p 6898
time step continuity errors : sum local = 2.43752e-05, global = -1.32349e-22, cumulative = 1.90585e-18
[OGL LOG] init_preconditioner : 0 ms
[OGL LOG] solve : 3 ms
BJcudaGKOCG:  Solving for p, Initial residual = 0.000153246, Final residual = 9.55009e-07, No Iterations 19
linear solve p 3477
time step continuity errors : sum local = 2.43845e-05, global = 5.3727e-19, cumulative = 2.44312e-18
ExecutionTime = 0.96 s  ClockTime = 1 s

End

