/*---------------------------------------------------------------------------*\
  =========                 |
  \\      /  F ield         | OpenFOAM: The Open Source CFD Toolbox
   \\    /   O peration     | Website:  https://openfoam.org
    \\  /    A nd           | Version:  8
     \\/     M anipulation  |
\*---------------------------------------------------------------------------*/
Build  : 8-ef60d22ea792
Exec   : icoFoam
Date   : Sep 15 2021
Time   : 13:35:55
Host   : "uc2n482.localdomain"
PID    : 3633577
I/O    : uncollated
Case   : /pfs/data5/home/kit/scc/nq7776/data/code/OBR/lidDrivenCavity3D/Variation_init/100/Variation_mesh/25/Variation_matrix_solver/CG_BJ_CUDA/Variation_maxBlockSize/8/1631705752
nProcs : 1
sigFpe : Enabling floating point exception trapping (FOAM_SIGFPE).
fileModificationChecking : Monitoring run-time modified files using timeStampMaster (fileModificationSkew 10)
allowSystemOperations : Allowing user-supplied system call operations

// * * * * * * * * * * * * * * * * * * * * * * * * * * * * * * * * * * * * * //
Create time

Create mesh for time = 0

Reading transportProperties

Reading field p

Reading field U

Reading/calculating face flux field phi


Starting time loop

Time = 0.004

Courant Number mean: 0.169656 max: 0.889609
DILUPBiCGStab:  Solving for Ux, Initial residual = 0.143151, Final residual = 1.76454e-06, No Iterations 5
DILUPBiCGStab:  Solving for Uy, Initial residual = 0.204592, Final residual = 1.77082e-06, No Iterations 5
DILUPBiCGStab:  Solving for Uz, Initial residual = 0.476047, Final residual = 3.97645e-06, No Iterations 5
linear solve U 11710
[OGL LOG] init_host_sparsity_pattern : 4 ms
[OGL LOG] matrix not stored update host matrix
[OGL LOG] update_host_mtx : 2 ms
[OGL LOG] matrix is not yet sorted, compute sorting idxs
[OGL LOG] compute_sort : 108 ms
[OGL LOG] matrix is not yet sorted, sorting host matrix
[OGL LOG] sort_host_mtx_sparsity_pattern : 2 ms
[OGL LOG] sort_host_mtx : 1 ms
[OGL LOG] init_preconditioner : 2 ms
[OGL LOG] solve : 25 ms
BJcudaGKOCG:  Solving for p, Initial residual = 0.578841, Final residual = 8.60926e-07, No Iterations 188
linear solve p 898724
time step continuity errors : sum local = 6.08679e-09, global = -7.39823e-20, cumulative = -7.39823e-20
[OGL LOG] init_preconditioner : 0 ms
[OGL LOG] solve : 25 ms
BJcudaGKOCG:  Solving for p, Initial residual = 0.27554, Final residual = 9.9769e-07, No Iterations 187
linear solve p 25553
time step continuity errors : sum local = 4.37402e-09, global = 4.29571e-20, cumulative = -3.10252e-20
ExecutionTime = 1.04 s  ClockTime = 1 s

Time = 0.008

Courant Number mean: 0.173868 max: 0.868145
DILUPBiCGStab:  Solving for Ux, Initial residual = 0.0151888, Final residual = 1.22595e-06, No Iterations 5
DILUPBiCGStab:  Solving for Uy, Initial residual = 0.0247675, Final residual = 1.80842e-06, No Iterations 5
DILUPBiCGStab:  Solving for Uz, Initial residual = 0.0887899, Final residual = 3.83074e-06, No Iterations 5
linear solve U 10122
[OGL LOG] init_preconditioner : 0 ms
[OGL LOG] solve : 24 ms
BJcudaGKOCG:  Solving for p, Initial residual = 0.17531, Final residual = 9.59926e-07, No Iterations 183
linear solve p 25192
time step continuity errors : sum local = 3.28485e-06, global = -1.21021e-19, cumulative = -1.52047e-19
[OGL LOG] init_preconditioner : 0 ms
[OGL LOG] solve : 24 ms
BJcudaGKOCG:  Solving for p, Initial residual = 0.103192, Final residual = 9.52033e-07, No Iterations 181
linear solve p 24724
time step continuity errors : sum local = 3.05917e-06, global = 5.4445e-21, cumulative = -1.46602e-19
ExecutionTime = 1.1 s  ClockTime = 1 s

Time = 0.012

Courant Number mean: 0.177048 max: 0.867817
DILUPBiCGStab:  Solving for Ux, Initial residual = 0.00469193, Final residual = 2.96385e-07, No Iterations 5
DILUPBiCGStab:  Solving for Uy, Initial residual = 0.00998769, Final residual = 4.81041e-07, No Iterations 5
DILUPBiCGStab:  Solving for Uz, Initial residual = 0.0313801, Final residual = 1.53397e-06, No Iterations 5
linear solve U 9675
[OGL LOG] init_preconditioner : 0 ms
[OGL LOG] solve : 21 ms
BJcudaGKOCG:  Solving for p, Initial residual = 0.0491938, Final residual = 9.32553e-07, No Iterations 163
linear solve p 22403
time step continuity errors : sum local = 3.01841e-06, global = -4.32781e-20, cumulative = -1.8988e-19
[OGL LOG] init_preconditioner : 0 ms
[OGL LOG] solve : 22 ms
BJcudaGKOCG:  Solving for p, Initial residual = 0.032651, Final residual = 9.59566e-07, No Iterations 160
linear solve p 22923
time step continuity errors : sum local = 3.04449e-06, global = -7.36224e-20, cumulative = -2.63503e-19
ExecutionTime = 1.16 s  ClockTime = 1 s

Time = 0.016

Courant Number mean: 0.179565 max: 0.869322
DILUPBiCGStab:  Solving for Ux, Initial residual = 0.00314077, Final residual = 1.45473e-07, No Iterations 5
DILUPBiCGStab:  Solving for Uy, Initial residual = 0.00681959, Final residual = 2.61086e-07, No Iterations 5
DILUPBiCGStab:  Solving for Uz, Initial residual = 0.0130978, Final residual = 5.59618e-07, No Iterations 5
linear solve U 9731
[OGL LOG] init_preconditioner : 0 ms
[OGL LOG] solve : 21 ms
BJcudaGKOCG:  Solving for p, Initial residual = 0.0194242, Final residual = 9.78816e-07, No Iterations 162
linear solve p 22219
time step continuity errors : sum local = 3.04923e-06, global = -1.21938e-19, cumulative = -3.85441e-19
[OGL LOG] init_preconditioner : 0 ms
[OGL LOG] solve : 22 ms
BJcudaGKOCG:  Solving for p, Initial residual = 0.0140342, Final residual = 9.79267e-07, No Iterations 161
linear solve p 22669
time step continuity errors : sum local = 3.04692e-06, global = 1.05727e-19, cumulative = -2.79714e-19
ExecutionTime = 1.23 s  ClockTime = 1 s

Time = 0.02

Courant Number mean: 0.181574 max: 0.870815
DILUPBiCGStab:  Solving for Ux, Initial residual = 0.00232737, Final residual = 9.81723e-08, No Iterations 5
DILUPBiCGStab:  Solving for Uy, Initial residual = 0.00517728, Final residual = 1.3468e-07, No Iterations 5
DILUPBiCGStab:  Solving for Uz, Initial residual = 0.00910449, Final residual = 2.6582e-07, No Iterations 5
linear solve U 9647
[OGL LOG] init_preconditioner : 0 ms
[OGL LOG] solve : 21 ms
BJcudaGKOCG:  Solving for p, Initial residual = 0.0100106, Final residual = 9.53514e-07, No Iterations 155
linear solve p 21864
time step continuity errors : sum local = 3.04283e-06, global = -4.96143e-21, cumulative = -2.84675e-19
[OGL LOG] init_preconditioner : 0 ms
[OGL LOG] solve : 20 ms
BJcudaGKOCG:  Solving for p, Initial residual = 0.00751273, Final residual = 9.72993e-07, No Iterations 153
linear solve p 21059
time step continuity errors : sum local = 3.04629e-06, global = -6.51752e-20, cumulative = -3.4985e-19
ExecutionTime = 1.28 s  ClockTime = 1 s

Time = 0.024

Courant Number mean: 0.183143 max: 0.871972
DILUPBiCGStab:  Solving for Ux, Initial residual = 0.00177563, Final residual = 5.93675e-08, No Iterations 5
DILUPBiCGStab:  Solving for Uy, Initial residual = 0.00408239, Final residual = 1.08526e-07, No Iterations 5
DILUPBiCGStab:  Solving for Uz, Initial residual = 0.00674745, Final residual = 1.93046e-07, No Iterations 5
linear solve U 9785
[OGL LOG] init_preconditioner : 0 ms
[OGL LOG] solve : 24 ms
BJcudaGKOCG:  Solving for p, Initial residual = 0.00619507, Final residual = 9.77676e-07, No Iterations 151
linear solve p 24758
time step continuity errors : sum local = 3.0448e-06, global = 5.0592e-20, cumulative = -2.99258e-19
[OGL LOG] init_preconditioner : 0 ms
[OGL LOG] solve : 19 ms
BJcudaGKOCG:  Solving for p, Initial residual = 0.00497282, Final residual = 9.96125e-07, No Iterations 145
linear solve p 19977
time step continuity errors : sum local = 3.04637e-06, global = 1.03896e-19, cumulative = -1.95363e-19
ExecutionTime = 1.35 s  ClockTime = 1 s

Time = 0.028

Courant Number mean: 0.184376 max: 0.872837
DILUPBiCGStab:  Solving for Ux, Initial residual = 0.0013793, Final residual = 4.35527e-08, No Iterations 5
DILUPBiCGStab:  Solving for Uy, Initial residual = 0.00321242, Final residual = 3.22483e-08, No Iterations 5
DILUPBiCGStab:  Solving for Uz, Initial residual = 0.00511189, Final residual = 9.31082e-08, No Iterations 5
linear solve U 9968
[OGL LOG] init_preconditioner : 0 ms
[OGL LOG] solve : 19 ms
BJcudaGKOCG:  Solving for p, Initial residual = 0.00396813, Final residual = 9.75651e-07, No Iterations 143
linear solve p 20437
time step continuity errors : sum local = 3.04476e-06, global = -1.84246e-20, cumulative = -2.13787e-19
[OGL LOG] init_preconditioner : 0 ms
[OGL LOG] solve : 19 ms
BJcudaGKOCG:  Solving for p, Initial residual = 0.00329301, Final residual = 9.17238e-07, No Iterations 142
linear solve p 19638
time step continuity errors : sum local = 3.04625e-06, global = -6.73325e-21, cumulative = -2.20521e-19
ExecutionTime = 1.4 s  ClockTime = 1 s

Time = 0.032

Courant Number mean: 0.185344 max: 0.873502
DILUPBiCGStab:  Solving for Ux, Initial residual = 0.00107784, Final residual = 2.90537e-08, No Iterations 5
DILUPBiCGStab:  Solving for Uy, Initial residual = 0.00254851, Final residual = 2.92083e-08, No Iterations 5
DILUPBiCGStab:  Solving for Uz, Initial residual = 0.00394592, Final residual = 8.11157e-08, No Iterations 5
linear solve U 9639
[OGL LOG] init_preconditioner : 0 ms
[OGL LOG] solve : 19 ms
BJcudaGKOCG:  Solving for p, Initial residual = 0.00303524, Final residual = 8.7422e-07, No Iterations 142
linear solve p 19874
time step continuity errors : sum local = 3.04516e-06, global = 1.11024e-20, cumulative = -2.09418e-19
[OGL LOG] init_preconditioner : 0 ms
[OGL LOG] solve : 19 ms
BJcudaGKOCG:  Solving for p, Initial residual = 0.00256155, Final residual = 9.79196e-07, No Iterations 139
linear solve p 19475
time step continuity errors : sum local = 3.04633e-06, global = -4.88053e-20, cumulative = -2.58224e-19
ExecutionTime = 1.46 s  ClockTime = 1 s

Time = 0.036

Courant Number mean: 0.186107 max: 0.874008
DILUPBiCGStab:  Solving for Ux, Initial residual = 0.000848595, Final residual = 2.27022e-08, No Iterations 5
DILUPBiCGStab:  Solving for Uy, Initial residual = 0.0020225, Final residual = 1.5253e-08, No Iterations 5
DILUPBiCGStab:  Solving for Uz, Initial residual = 0.00304116, Final residual = 5.67488e-08, No Iterations 5
linear solve U 10687
[OGL LOG] init_preconditioner : 0 ms
[OGL LOG] solve : 19 ms
BJcudaGKOCG:  Solving for p, Initial residual = 0.00227444, Final residual = 9.88739e-07, No Iterations 136
linear solve p 19648
time step continuity errors : sum local = 3.04553e-06, global = 2.32934e-20, cumulative = -2.3493e-19
[OGL LOG] init_preconditioner : 0 ms
[OGL LOG] solve : 18 ms
BJcudaGKOCG:  Solving for p, Initial residual = 0.0019341, Final residual = 9.98175e-07, No Iterations 132
linear solve p 19324
time step continuity errors : sum local = 3.0463e-06, global = -8.54908e-20, cumulative = -3.20421e-19
ExecutionTime = 1.51 s  ClockTime = 1 s

Time = 0.04

Courant Number mean: 0.186709 max: 0.874399
DILUPBiCGStab:  Solving for Ux, Initial residual = 0.000670137, Final residual = 1.66204e-08, No Iterations 5
DILUPBiCGStab:  Solving for Uy, Initial residual = 0.00160982, Final residual = 1.26097e-08, No Iterations 5
DILUPBiCGStab:  Solving for Uz, Initial residual = 0.00236032, Final residual = 4.61605e-08, No Iterations 5
linear solve U 10107
[OGL LOG] init_preconditioner : 0 ms
[OGL LOG] solve : 18 ms
BJcudaGKOCG:  Solving for p, Initial residual = 0.00178916, Final residual = 9.30992e-07, No Iterations 130
linear solve p 18653
time step continuity errors : sum local = 3.04568e-06, global = 8.50573e-20, cumulative = -2.35364e-19
[OGL LOG] init_preconditioner : 0 ms
[OGL LOG] solve : 17 ms
BJcudaGKOCG:  Solving for p, Initial residual = 0.00152995, Final residual = 8.61063e-07, No Iterations 129
linear solve p 18108
time step continuity errors : sum local = 3.04618e-06, global = 3.52379e-20, cumulative = -2.00126e-19
ExecutionTime = 1.57 s  ClockTime = 1 s

End

