/*---------------------------------------------------------------------------*\
  =========                 |
  \\      /  F ield         | OpenFOAM: The Open Source CFD Toolbox
   \\    /   O peration     | Website:  https://openfoam.org
    \\  /    A nd           | Version:  8
     \\/     M anipulation  |
\*---------------------------------------------------------------------------*/
Build  : 8-ef60d22ea792
Exec   : icoFoam
Date   : Sep 15 2021
Time   : 13:07:21
Host   : "uc2n482.localdomain"
PID    : 3625692
I/O    : uncollated
Case   : /pfs/data5/home/kit/scc/nq7776/data/code/OBR/lidDrivenCavity3D/Variation_init/100/Variation_mesh/5/Variation_matrix_solver/CG_BJ_CUDA/Variation_maxBlockSize/4/1631704039
nProcs : 1
sigFpe : Enabling floating point exception trapping (FOAM_SIGFPE).
fileModificationChecking : Monitoring run-time modified files using timeStampMaster (fileModificationSkew 10)
allowSystemOperations : Allowing user-supplied system call operations

// * * * * * * * * * * * * * * * * * * * * * * * * * * * * * * * * * * * * * //
Create time

Create mesh for time = 0

Reading transportProperties

Reading field p

Reading field U

Reading/calculating face flux field phi


Starting time loop

Time = 0.02

Courant Number mean: 0.144178 max: 0.344046
DILUPBiCGStab:  Solving for Ux, Initial residual = 0.270102, Final residual = 1.39043e-14, No Iterations 5
DILUPBiCGStab:  Solving for Uy, Initial residual = 0.217087, Final residual = 1.19184e-13, No Iterations 5
DILUPBiCGStab:  Solving for Uz, Initial residual = 0.216079, Final residual = 2.72531e-14, No Iterations 5
linear solve U 205
[OGL LOG] init_host_sparsity_pattern : 0 ms
[OGL LOG] matrix not stored update host matrix
[OGL LOG] update_host_mtx : 0 ms
[OGL LOG] matrix is not yet sorted, compute sorting idxs
[OGL LOG] compute_sort : 0 ms
[OGL LOG] matrix is not yet sorted, sorting host matrix
[OGL LOG] sort_host_mtx_sparsity_pattern : 0 ms
[OGL LOG] sort_host_mtx : 0 ms
[OGL LOG] init_preconditioner : 0 ms
[OGL LOG] solve : 5 ms
BJcudaGKOCG:  Solving for p, Initial residual = 0.599316, Final residual = 9.47208e-07, No Iterations 34
linear solve p 743748
time step continuity errors : sum local = 7.80196e-08, global = 9.3981e-19, cumulative = 9.3981e-19
[OGL LOG] init_preconditioner : 0 ms
[OGL LOG] solve : 4 ms
BJcudaGKOCG:  Solving for p, Initial residual = 0.288319, Final residual = 8.27116e-07, No Iterations 33
linear solve p 5017
time step continuity errors : sum local = 3.61524e-08, global = -1.77612e-19, cumulative = 7.62197e-19
ExecutionTime = 0.79 s  ClockTime = 1 s

Time = 0.04

Courant Number mean: 0.143461 max: 0.370002
DILUPBiCGStab:  Solving for Ux, Initial residual = 0.0735166, Final residual = 6.10753e-14, No Iterations 5
DILUPBiCGStab:  Solving for Uy, Initial residual = 0.0725789, Final residual = 1.59863e-13, No Iterations 5
DILUPBiCGStab:  Solving for Uz, Initial residual = 0.174732, Final residual = 2.48348e-13, No Iterations 5
linear solve U 103
[OGL LOG] init_preconditioner : 0 ms
[OGL LOG] solve : 4 ms
BJcudaGKOCG:  Solving for p, Initial residual = 0.212157, Final residual = 7.60519e-07, No Iterations 33
linear solve p 5067
time step continuity errors : sum local = 0.000264132, global = 3.39872e-19, cumulative = 1.10207e-18
[OGL LOG] init_preconditioner : 0 ms
[OGL LOG] solve : 4 ms
BJcudaGKOCG:  Solving for p, Initial residual = 0.074623, Final residual = 9.3288e-07, No Iterations 31
linear solve p 4703
time step continuity errors : sum local = 0.000237019, global = -7.39036e-19, cumulative = 3.63033e-19
ExecutionTime = 0.8 s  ClockTime = 1 s

Time = 0.06

Courant Number mean: 0.145501 max: 0.37555
DILUPBiCGStab:  Solving for Ux, Initial residual = 0.0154115, Final residual = 1.49202e-15, No Iterations 5
DILUPBiCGStab:  Solving for Uy, Initial residual = 0.0201049, Final residual = 2.28395e-14, No Iterations 5
DILUPBiCGStab:  Solving for Uz, Initial residual = 0.0978128, Final residual = 1.16481e-13, No Iterations 5
linear solve U 96
[OGL LOG] init_preconditioner : 0 ms
[OGL LOG] solve : 4 ms
BJcudaGKOCG:  Solving for p, Initial residual = 0.0170459, Final residual = 6.18419e-07, No Iterations 28
linear solve p 4344
time step continuity errors : sum local = 0.000237522, global = -2.64698e-19, cumulative = 9.83352e-20
[OGL LOG] init_preconditioner : 0 ms
[OGL LOG] solve : 3 ms
BJcudaGKOCG:  Solving for p, Initial residual = 0.00365034, Final residual = 7.79218e-07, No Iterations 26
linear solve p 4122
time step continuity errors : sum local = 0.000237431, global = -2.33993e-19, cumulative = -1.35658e-19
ExecutionTime = 0.81 s  ClockTime = 1 s

Time = 0.08

Courant Number mean: 0.147029 max: 0.378253
DILUPBiCGStab:  Solving for Ux, Initial residual = 0.004788, Final residual = 3.38638e-15, No Iterations 5
DILUPBiCGStab:  Solving for Uy, Initial residual = 0.00642994, Final residual = 1.20394e-14, No Iterations 5
DILUPBiCGStab:  Solving for Uz, Initial residual = 0.0284284, Final residual = 4.43786e-14, No Iterations 5
linear solve U 94
[OGL LOG] init_preconditioner : 0 ms
[OGL LOG] solve : 3 ms
BJcudaGKOCG:  Solving for p, Initial residual = 0.00482344, Final residual = 4.46476e-07, No Iterations 26
linear solve p 4094
time step continuity errors : sum local = 0.000237959, global = -5.84453e-19, cumulative = -7.2011e-19
[OGL LOG] init_preconditioner : 0 ms
[OGL LOG] solve : 3 ms
BJcudaGKOCG:  Solving for p, Initial residual = 0.00114473, Final residual = 5.02e-07, No Iterations 24
linear solve p 3822
time step continuity errors : sum local = 0.000237676, global = 4.36222e-19, cumulative = -2.83888e-19
ExecutionTime = 0.81 s  ClockTime = 1 s

Time = 0.1

Courant Number mean: 0.14778 max: 0.379477
DILUPBiCGStab:  Solving for Ux, Initial residual = 0.00171223, Final residual = 8.30541e-16, No Iterations 5
DILUPBiCGStab:  Solving for Uy, Initial residual = 0.00257351, Final residual = 2.28458e-15, No Iterations 5
DILUPBiCGStab:  Solving for Uz, Initial residual = 0.0107974, Final residual = 1.4493e-14, No Iterations 5
linear solve U 94
[OGL LOG] init_preconditioner : 0 ms
[OGL LOG] solve : 3 ms
BJcudaGKOCG:  Solving for p, Initial residual = 0.00160378, Final residual = 6.00619e-07, No Iterations 24
linear solve p 3868
time step continuity errors : sum local = 0.000237717, global = -2.49875e-19, cumulative = -5.33763e-19
[OGL LOG] init_preconditioner : 0 ms
[OGL LOG] solve : 3 ms
BJcudaGKOCG:  Solving for p, Initial residual = 0.000367496, Final residual = 6.35883e-07, No Iterations 22
linear solve p 3735
time step continuity errors : sum local = 0.000237674, global = -9.88911e-19, cumulative = -1.52267e-18
ExecutionTime = 0.82 s  ClockTime = 1 s

Time = 0.12

Courant Number mean: 0.148155 max: 0.380093
DILUPBiCGStab:  Solving for Ux, Initial residual = 0.000689983, Final residual = 3.07123e-16, No Iterations 5
DILUPBiCGStab:  Solving for Uy, Initial residual = 0.00109055, Final residual = 3.92613e-16, No Iterations 5
DILUPBiCGStab:  Solving for Uz, Initial residual = 0.00414524, Final residual = 4.98562e-15, No Iterations 5
linear solve U 99
[OGL LOG] init_preconditioner : 0 ms
[OGL LOG] solve : 3 ms
BJcudaGKOCG:  Solving for p, Initial residual = 0.000679478, Final residual = 7.47621e-07, No Iterations 22
linear solve p 3545
time step continuity errors : sum local = 0.000237672, global = -3.36696e-19, cumulative = -1.85937e-18
[OGL LOG] init_preconditioner : 0 ms
[OGL LOG] solve : 3 ms
BJcudaGKOCG:  Solving for p, Initial residual = 0.000161243, Final residual = 8.7377e-07, No Iterations 20
linear solve p 3402
time step continuity errors : sum local = 0.000237661, global = 6.94567e-19, cumulative = -1.1648e-18
ExecutionTime = 0.83 s  ClockTime = 1 s

Time = 0.14

Courant Number mean: 0.148339 max: 0.380409
DILUPBiCGStab:  Solving for Ux, Initial residual = 0.00030036, Final residual = 1.45247e-16, No Iterations 5
DILUPBiCGStab:  Solving for Uy, Initial residual = 0.000488834, Final residual = 2.06668e-16, No Iterations 5
DILUPBiCGStab:  Solving for Uz, Initial residual = 0.00167179, Final residual = 1.77156e-15, No Iterations 5
linear solve U 109
[OGL LOG] init_preconditioner : 0 ms
[OGL LOG] solve : 3 ms
BJcudaGKOCG:  Solving for p, Initial residual = 0.000315855, Final residual = 7.26607e-07, No Iterations 21
linear solve p 3502
time step continuity errors : sum local = 0.000237649, global = 1.05879e-20, cumulative = -1.15421e-18
[OGL LOG] init_preconditioner : 0 ms
[OGL LOG] solve : 1 ms
BJcudaGKOCG:  Solving for p, Initial residual = 7.1871e-05, Final residual = 9.27467e-07, No Iterations 9
linear solve p 1888
time step continuity errors : sum local = 0.000237677, global = -6.18334e-19, cumulative = -1.77255e-18
ExecutionTime = 0.83 s  ClockTime = 1 s

Time = 0.16

Courant Number mean: 0.148428 max: 0.380568
DILUPBiCGStab:  Solving for Ux, Initial residual = 0.000135348, Final residual = 6.76289e-17, No Iterations 5
DILUPBiCGStab:  Solving for Uy, Initial residual = 0.000229113, Final residual = 1.47752e-16, No Iterations 5
DILUPBiCGStab:  Solving for Uz, Initial residual = 0.000708227, Final residual = 6.56426e-16, No Iterations 5
linear solve U 98
[OGL LOG] init_preconditioner : 0 ms
[OGL LOG] solve : 1 ms
BJcudaGKOCG:  Solving for p, Initial residual = 0.00014911, Final residual = 5.69862e-07, No Iterations 10
linear solve p 2000
time step continuity errors : sum local = 0.000237646, global = -1.06938e-18, cumulative = -2.84193e-18
[OGL LOG] init_preconditioner : 0 ms
[OGL LOG] solve : 1 ms
BJcudaGKOCG:  Solving for p, Initial residual = 3.36421e-05, Final residual = 6.65262e-07, No Iterations 8
linear solve p 1735
time step continuity errors : sum local = 0.000237649, global = 1.51407e-19, cumulative = -2.69052e-18
ExecutionTime = 0.84 s  ClockTime = 1 s

Time = 0.18

Courant Number mean: 0.148472 max: 0.380648
DILUPBiCGStab:  Solving for Ux, Initial residual = 6.20117e-05, Final residual = 2.96548e-17, No Iterations 5
DILUPBiCGStab:  Solving for Uy, Initial residual = 0.000108642, Final residual = 7.69372e-17, No Iterations 5
DILUPBiCGStab:  Solving for Uz, Initial residual = 0.000313587, Final residual = 1.92862e-16, No Iterations 5
linear solve U 98
[OGL LOG] init_preconditioner : 0 ms
[OGL LOG] solve : 1 ms
BJcudaGKOCG:  Solving for p, Initial residual = 7.09433e-05, Final residual = 8.15371e-07, No Iterations 8
linear solve p 1723
time step continuity errors : sum local = 0.000237643, global = 1.02915e-18, cumulative = -1.66138e-18
[OGL LOG] init_preconditioner : 0 ms
[OGL LOG] solve : 1 ms
BJcudaGKOCG:  Solving for p, Initial residual = 1.57018e-05, Final residual = 9.79508e-07, No Iterations 5
linear solve p 1290
time step continuity errors : sum local = 0.000237644, global = -5.92923e-20, cumulative = -1.72067e-18
ExecutionTime = 0.84 s  ClockTime = 1 s

Time = 0.2

Courant Number mean: 0.148493 max: 0.380687
DILUPBiCGStab:  Solving for Ux, Initial residual = 2.86233e-05, Final residual = 1.04306e-17, No Iterations 5
DILUPBiCGStab:  Solving for Uy, Initial residual = 5.15382e-05, Final residual = 3.66555e-17, No Iterations 5
DILUPBiCGStab:  Solving for Uz, Initial residual = 0.000144939, Final residual = 5.79198e-17, No Iterations 5
linear solve U 103
[OGL LOG] init_preconditioner : 0 ms
[OGL LOG] solve : 1 ms
BJcudaGKOCG:  Solving for p, Initial residual = 3.35143e-05, Final residual = 6.35226e-07, No Iterations 5
linear solve p 1300
time step continuity errors : sum local = 0.00023764, global = 1.04079e-18, cumulative = -6.79876e-19
[OGL LOG] init_preconditioner : 0 ms
[OGL LOG] solve : 0 ms
BJcudaGKOCG:  Solving for p, Initial residual = 7.4896e-06, Final residual = 6.37098e-07, No Iterations 3
linear solve p 1005
time step continuity errors : sum local = 0.000237632, global = 9.06325e-19, cumulative = 2.26449e-19
ExecutionTime = 0.84 s  ClockTime = 1 s

End

