/*---------------------------------------------------------------------------*\
  =========                 |
  \\      /  F ield         | OpenFOAM: The Open Source CFD Toolbox
   \\    /   O peration     | Website:  https://openfoam.org
    \\  /    A nd           | Version:  8
     \\/     M anipulation  |
\*---------------------------------------------------------------------------*/
Build  : 8-ef60d22ea792
Exec   : icoFoam
Date   : Sep 15 2021
Time   : 13:56:38
Host   : "uc2n438.localdomain"
PID    : 3546412
I/O    : uncollated
Case   : /pfs/data5/home/kit/scc/nq7776/data/code/OBR/lidDrivenCavity3D/Variation_init/100/Variation_mesh/100/Variation_matrix_solver/BiCGStab_DIC_Serial/1631706944
nProcs : 1
sigFpe : Enabling floating point exception trapping (FOAM_SIGFPE).
fileModificationChecking : Monitoring run-time modified files using timeStampMaster (fileModificationSkew 10)
allowSystemOperations : Allowing user-supplied system call operations

// * * * * * * * * * * * * * * * * * * * * * * * * * * * * * * * * * * * * * //
Create time

Create mesh for time = 0

Reading transportProperties

Reading field p

Reading field U

Reading/calculating face flux field phi


Starting time loop

Time = 0.001

Courant Number mean: 0.171005 max: 0.964718
DILUPBiCGStab:  Solving for Ux, Initial residual = 0.00221104, Final residual = 2.10455e-05, No Iterations 5
DILUPBiCGStab:  Solving for Uy, Initial residual = 0.00671465, Final residual = 5.53885e-05, No Iterations 5
DILUPBiCGStab:  Solving for Uz, Initial residual = 0.0303966, Final residual = 0.000635532, No Iterations 5
linear solve U 1069839
DICPBiCGStab:  Solving for p, Initial residual = 0.148074, Final residual = 8.24116e-07, No Iterations 208
linear solve p 10349656
time step continuity errors : sum local = 2.65732e-10, global = 2.2852e-21, cumulative = 2.2852e-21
DICPBiCGStab:  Solving for p, Initial residual = 0.126694, Final residual = 5.54505e-07, No Iterations 197
linear solve p 9760097
time step continuity errors : sum local = 1.95543e-10, global = -2.60334e-20, cumulative = -2.37482e-20
ExecutionTime = 26.2 s  ClockTime = 26 s

Time = 0.002

Courant Number mean: 0.172431 max: 0.965079
DILUPBiCGStab:  Solving for Ux, Initial residual = 0.0020011, Final residual = 1.87326e-05, No Iterations 5
DILUPBiCGStab:  Solving for Uy, Initial residual = 0.00604307, Final residual = 4.75877e-05, No Iterations 5
DILUPBiCGStab:  Solving for Uz, Initial residual = 0.0264591, Final residual = 0.000565212, No Iterations 5
linear solve U 985512
DICPBiCGStab:  Solving for p, Initial residual = 0.132735, Final residual = 5.30554e-07, No Iterations 183
linear solve p 9091204
time step continuity errors : sum local = 2.95496e-10, global = 5.70869e-22, cumulative = -2.31774e-20
DICPBiCGStab:  Solving for p, Initial residual = 0.113614, Final residual = 9.06118e-07, No Iterations 167
linear solve p 8262145
time step continuity errors : sum local = 5.58127e-10, global = -1.87091e-20, cumulative = -4.18865e-20
ExecutionTime = 45.07 s  ClockTime = 45 s

Time = 0.003

Courant Number mean: 0.173747 max: 0.965402
DILUPBiCGStab:  Solving for Ux, Initial residual = 0.00178427, Final residual = 1.36806e-05, No Iterations 5
DILUPBiCGStab:  Solving for Uy, Initial residual = 0.00542713, Final residual = 3.58682e-05, No Iterations 5
DILUPBiCGStab:  Solving for Uz, Initial residual = 0.0225868, Final residual = 0.00047234, No Iterations 5
linear solve U 966715
DICPBiCGStab:  Solving for p, Initial residual = 0.115619, Final residual = 8.78667e-07, No Iterations 203
linear solve p 10033911
time step continuity errors : sum local = 2.80178e-10, global = -6.05996e-21, cumulative = -4.79464e-20
DICPBiCGStab:  Solving for p, Initial residual = 0.0996285, Final residual = 7.51055e-07, No Iterations 184
linear solve p 9147922
time step continuity errors : sum local = 2.52358e-10, global = -8.25297e-21, cumulative = -5.61994e-20
ExecutionTime = 65.73 s  ClockTime = 66 s

Time = 0.004

Courant Number mean: 0.174968 max: 0.965699
DILUPBiCGStab:  Solving for Ux, Initial residual = 0.0016204, Final residual = 1.1725e-05, No Iterations 5
DILUPBiCGStab:  Solving for Uy, Initial residual = 0.00490827, Final residual = 2.97819e-05, No Iterations 5
DILUPBiCGStab:  Solving for Uz, Initial residual = 0.0199109, Final residual = 0.000417178, No Iterations 5
linear solve U 987097
DICPBiCGStab:  Solving for p, Initial residual = 0.10282, Final residual = 9.90265e-07, No Iterations 189
linear solve p 9341211
time step continuity errors : sum local = 3.60453e-10, global = -3.81581e-21, cumulative = -6.00152e-20
DICPBiCGStab:  Solving for p, Initial residual = 0.0887667, Final residual = 9.56299e-07, No Iterations 198
linear solve p 9789019
time step continuity errors : sum local = 2.94274e-10, global = 2.54819e-21, cumulative = -5.7467e-20
ExecutionTime = 86.35 s  ClockTime = 86 s

Time = 0.005

Courant Number mean: 0.176093 max: 0.965959
DILUPBiCGStab:  Solving for Ux, Initial residual = 0.00147103, Final residual = 1.01371e-05, No Iterations 5
DILUPBiCGStab:  Solving for Uy, Initial residual = 0.00446393, Final residual = 2.55707e-05, No Iterations 5
DILUPBiCGStab:  Solving for Uz, Initial residual = 0.0171203, Final residual = 0.000345195, No Iterations 5
linear solve U 989553
DICPBiCGStab:  Solving for p, Initial residual = 0.090959, Final residual = 8.77851e-07, No Iterations 166
linear solve p 8194625
time step continuity errors : sum local = 4.4347e-10, global = -1.21713e-20, cumulative = -6.96383e-20
DICPBiCGStab:  Solving for p, Initial residual = 0.0783182, Final residual = 9.53814e-07, No Iterations 190
linear solve p 9323975
time step continuity errors : sum local = 2.97328e-10, global = 1.74394e-20, cumulative = -5.21989e-20
ExecutionTime = 105.38 s  ClockTime = 105 s

Time = 0.006

Courant Number mean: 0.177137 max: 0.966209
DILUPBiCGStab:  Solving for Ux, Initial residual = 0.00134454, Final residual = 8.75398e-06, No Iterations 5
DILUPBiCGStab:  Solving for Uy, Initial residual = 0.00406967, Final residual = 2.14577e-05, No Iterations 5
DILUPBiCGStab:  Solving for Uz, Initial residual = 0.0152577, Final residual = 0.000302637, No Iterations 5
linear solve U 974168
DICPBiCGStab:  Solving for p, Initial residual = 0.0807006, Final residual = 9.03239e-07, No Iterations 188
linear solve p 9412123
time step continuity errors : sum local = 3.0573e-10, global = 1.50194e-20, cumulative = -3.71796e-20
DICPBiCGStab:  Solving for p, Initial residual = 0.0695486, Final residual = 9.29285e-07, No Iterations 192
linear solve p 9600007
time step continuity errors : sum local = 2.86791e-10, global = 3.72802e-21, cumulative = -3.34515e-20
ExecutionTime = 125.9 s  ClockTime = 126 s

Time = 0.007

Courant Number mean: 0.178102 max: 0.966418
DILUPBiCGStab:  Solving for Ux, Initial residual = 0.00122558, Final residual = 7.63682e-06, No Iterations 5
DILUPBiCGStab:  Solving for Uy, Initial residual = 0.00371794, Final residual = 1.89144e-05, No Iterations 5
DILUPBiCGStab:  Solving for Uz, Initial residual = 0.0131738, Final residual = 0.00024667, No Iterations 5
linear solve U 983004
DICPBiCGStab:  Solving for p, Initial residual = 0.0717009, Final residual = 8.68264e-07, No Iterations 202
linear solve p 10072705
time step continuity errors : sum local = 2.63532e-10, global = 2.10834e-21, cumulative = -3.13432e-20
DICPBiCGStab:  Solving for p, Initial residual = 0.0616631, Final residual = 9.61046e-07, No Iterations 162
linear solve p 8100521
time step continuity errors : sum local = 3.17952e-10, global = -7.21819e-21, cumulative = -3.85614e-20
ExecutionTime = 145.57 s  ClockTime = 146 s

Time = 0.008

Courant Number mean: 0.179 max: 0.966629
DILUPBiCGStab:  Solving for Ux, Initial residual = 0.00112542, Final residual = 6.61484e-06, No Iterations 5
DILUPBiCGStab:  Solving for Uy, Initial residual = 0.00341001, Final residual = 1.60303e-05, No Iterations 5
DILUPBiCGStab:  Solving for Uz, Initial residual = 0.0118322, Final residual = 0.000215081, No Iterations 5
linear solve U 992870
DICPBiCGStab:  Solving for p, Initial residual = 0.0634707, Final residual = 9.25639e-07, No Iterations 199
linear solve p 9954037
time step continuity errors : sum local = 2.7958e-10, global = -1.10613e-20, cumulative = -4.96227e-20
DICPBiCGStab:  Solving for p, Initial residual = 0.0546123, Final residual = 8.74635e-07, No Iterations 161
linear solve p 8096282
time step continuity errors : sum local = 5.15896e-10, global = 1.53969e-20, cumulative = -3.42259e-20
ExecutionTime = 165.15 s  ClockTime = 165 s

Time = 0.009

Courant Number mean: 0.17983 max: 0.966798
DILUPBiCGStab:  Solving for Ux, Initial residual = 0.00102967, Final residual = 5.7965e-06, No Iterations 5
DILUPBiCGStab:  Solving for Uy, Initial residual = 0.00312758, Final residual = 1.43696e-05, No Iterations 5
DILUPBiCGStab:  Solving for Uz, Initial residual = 0.0102698, Final residual = 0.000172501, No Iterations 5
linear solve U 981724
DICPBiCGStab:  Solving for p, Initial residual = 0.0566206, Final residual = 1.54438e-07, No Iterations 205
linear solve p 10308278
time step continuity errors : sum local = 4.58298e-11, global = 6.41875e-22, cumulative = -3.3584e-20
DICPBiCGStab:  Solving for p, Initial residual = 0.0486404, Final residual = 9.74229e-07, No Iterations 182
linear solve p 9151104
time step continuity errors : sum local = 2.9551e-10, global = 1.46376e-20, cumulative = -1.89463e-20
ExecutionTime = 186.11 s  ClockTime = 186 s

Time = 0.01

Courant Number mean: 0.180604 max: 0.966977
DILUPBiCGStab:  Solving for Ux, Initial residual = 0.000949508, Final residual = 5.03043e-06, No Iterations 5
DILUPBiCGStab:  Solving for Uy, Initial residual = 0.00288047, Final residual = 1.22876e-05, No Iterations 5
DILUPBiCGStab:  Solving for Uz, Initial residual = 0.00929077, Final residual = 0.000150081, No Iterations 5
linear solve U 988662
DICPBiCGStab:  Solving for p, Initial residual = 0.0500216, Final residual = 8.52821e-07, No Iterations 183
linear solve p 9139196
time step continuity errors : sum local = 2.67441e-10, global = -1.62649e-20, cumulative = -3.52112e-20
DICPBiCGStab:  Solving for p, Initial residual = 0.0429812, Final residual = 8.75421e-07, No Iterations 176
linear solve p 8795452
time step continuity errors : sum local = 2.77531e-10, global = -4.10778e-21, cumulative = -3.9319e-20
ExecutionTime = 205.57 s  ClockTime = 206 s

End

