/*---------------------------------------------------------------------------*\
  =========                 |
  \\      /  F ield         | OpenFOAM: The Open Source CFD Toolbox
   \\    /   O peration     | Website:  https://openfoam.org
    \\  /    A nd           | Version:  8
     \\/     M anipulation  |
\*---------------------------------------------------------------------------*/
Build  : 8-ef60d22ea792
Exec   : icoFoam
Date   : Sep 15 2021
Time   : 13:22:13
Host   : "uc2n438.localdomain"
PID    : 3541121
I/O    : uncollated
Case   : /pfs/data5/home/kit/scc/nq7776/data/code/OBR/lidDrivenCavity3D/Variation_init/100/Variation_mesh/75/Variation_matrix_solver/BiCGStab_DIC_Serial/1631704915
nProcs : 1
sigFpe : Enabling floating point exception trapping (FOAM_SIGFPE).
fileModificationChecking : Monitoring run-time modified files using timeStampMaster (fileModificationSkew 10)
allowSystemOperations : Allowing user-supplied system call operations

// * * * * * * * * * * * * * * * * * * * * * * * * * * * * * * * * * * * * * //
Create time

Create mesh for time = 0

Reading transportProperties

Reading field p

Reading field U

Reading/calculating face flux field phi


Starting time loop

Time = 0.00133333

Courant Number mean: 0.170873 max: 0.955248
DILUPBiCGStab:  Solving for Ux, Initial residual = 0.150945, Final residual = 8.53015e-05, No Iterations 5
DILUPBiCGStab:  Solving for Uy, Initial residual = 0.292287, Final residual = 0.000196272, No Iterations 5
DILUPBiCGStab:  Solving for Uz, Initial residual = 0.443155, Final residual = 0.000590488, No Iterations 5
linear solve U 443882
DICPBiCGStab:  Solving for p, Initial residual = 0.621595, Final residual = 9.83144e-07, No Iterations 146
linear solve p 3075181
time step continuity errors : sum local = 1.61181e-09, global = -1.5135e-20, cumulative = -1.5135e-20
DICPBiCGStab:  Solving for p, Initial residual = 0.292224, Final residual = 2.28994e-07, No Iterations 152
linear solve p 3210257
time step continuity errors : sum local = 1.92921e-10, global = -3.00761e-20, cumulative = -4.52111e-20
ExecutionTime = 8.93 s  ClockTime = 9 s

Time = 0.00266667

Courant Number mean: 0.172833 max: 0.953296
DILUPBiCGStab:  Solving for Ux, Initial residual = 0.00633159, Final residual = 3.02525e-05, No Iterations 5
DILUPBiCGStab:  Solving for Uy, Initial residual = 0.0152131, Final residual = 6.99047e-05, No Iterations 5
DILUPBiCGStab:  Solving for Uz, Initial residual = 0.0761729, Final residual = 0.000481058, No Iterations 5
linear solve U 409310
DICPBiCGStab:  Solving for p, Initial residual = 0.306093, Final residual = 9.72557e-07, No Iterations 162
linear solve p 3421294
time step continuity errors : sum local = 6.34008e-10, global = 2.06417e-20, cumulative = -2.45694e-20
DICPBiCGStab:  Solving for p, Initial residual = 0.226019, Final residual = 8.66041e-07, No Iterations 156
linear solve p 3297816
time step continuity errors : sum local = 5.30632e-10, global = -4.05784e-21, cumulative = -2.86273e-20
ExecutionTime = 16.29 s  ClockTime = 17 s

Time = 0.004

Courant Number mean: 0.174523 max: 0.954278
DILUPBiCGStab:  Solving for Ux, Initial residual = 0.00265333, Final residual = 1.63416e-05, No Iterations 5
DILUPBiCGStab:  Solving for Uy, Initial residual = 0.00797254, Final residual = 4.00427e-05, No Iterations 5
DILUPBiCGStab:  Solving for Uz, Initial residual = 0.0352811, Final residual = 0.000275933, No Iterations 5
linear solve U 405202
DICPBiCGStab:  Solving for p, Initial residual = 0.192302, Final residual = 9.16305e-07, No Iterations 143
linear solve p 3035297
time step continuity errors : sum local = 5.79144e-10, global = -7.61301e-22, cumulative = -2.93886e-20
DICPBiCGStab:  Solving for p, Initial residual = 0.148946, Final residual = 9.31308e-07, No Iterations 153
linear solve p 3230921
time step continuity errors : sum local = 5.46737e-10, global = 4.41705e-20, cumulative = 1.47819e-20
ExecutionTime = 23.2 s  ClockTime = 24 s

Time = 0.00533333

Courant Number mean: 0.176005 max: 0.954647
DILUPBiCGStab:  Solving for Ux, Initial residual = 0.00207789, Final residual = 1.18165e-05, No Iterations 5
DILUPBiCGStab:  Solving for Uy, Initial residual = 0.0064431, Final residual = 2.45215e-05, No Iterations 5
DILUPBiCGStab:  Solving for Uz, Initial residual = 0.0234022, Final residual = 0.000159894, No Iterations 5
linear solve U 406455
DICPBiCGStab:  Solving for p, Initial residual = 0.142972, Final residual = 2.02275e-07, No Iterations 147
linear solve p 3115507
time step continuity errors : sum local = 1.42627e-10, global = -2.20634e-20, cumulative = -7.28148e-21
DICPBiCGStab:  Solving for p, Initial residual = 0.114364, Final residual = 8.15255e-07, No Iterations 146
linear solve p 3065487
time step continuity errors : sum local = 4.55798e-10, global = -2.46887e-20, cumulative = -3.19702e-20
ExecutionTime = 30 s  ClockTime = 31 s

Time = 0.00666667

Courant Number mean: 0.177347 max: 0.955032
DILUPBiCGStab:  Solving for Ux, Initial residual = 0.00176726, Final residual = 9.59496e-06, No Iterations 5
DILUPBiCGStab:  Solving for Uy, Initial residual = 0.00540524, Final residual = 1.95374e-05, No Iterations 5
DILUPBiCGStab:  Solving for Uz, Initial residual = 0.0162709, Final residual = 0.000102989, No Iterations 5
linear solve U 405280
DICPBiCGStab:  Solving for p, Initial residual = 0.108082, Final residual = 3.7052e-07, No Iterations 124
linear solve p 2631976
time step continuity errors : sum local = 2.26961e-10, global = 1.91661e-20, cumulative = -1.28041e-20
DICPBiCGStab:  Solving for p, Initial residual = 0.0863152, Final residual = 9.52764e-07, No Iterations 124
linear solve p 2624562
time step continuity errors : sum local = 7.23163e-10, global = -1.78008e-20, cumulative = -3.06049e-20
ExecutionTime = 35.9 s  ClockTime = 37 s

Time = 0.008

Courant Number mean: 0.178568 max: 0.955456
DILUPBiCGStab:  Solving for Ux, Initial residual = 0.00153468, Final residual = 7.80339e-06, No Iterations 5
DILUPBiCGStab:  Solving for Uy, Initial residual = 0.00468831, Final residual = 1.3852e-05, No Iterations 5
DILUPBiCGStab:  Solving for Uz, Initial residual = 0.0134947, Final residual = 6.70886e-05, No Iterations 5
linear solve U 405329
DICPBiCGStab:  Solving for p, Initial residual = 0.0849297, Final residual = 6.54671e-07, No Iterations 148
linear solve p 3119131
time step continuity errors : sum local = 3.59325e-10, global = 3.94392e-20, cumulative = 8.83427e-21
DICPBiCGStab:  Solving for p, Initial residual = 0.068556, Final residual = 1.95813e-07, No Iterations 140
linear solve p 2950377
time step continuity errors : sum local = 1.11138e-10, global = -2.21432e-20, cumulative = -1.33089e-20
ExecutionTime = 42.61 s  ClockTime = 43 s

Time = 0.00933333

Courant Number mean: 0.17967 max: 0.955718
DILUPBiCGStab:  Solving for Ux, Initial residual = 0.00135023, Final residual = 6.54011e-06, No Iterations 5
DILUPBiCGStab:  Solving for Uy, Initial residual = 0.00411482, Final residual = 1.1579e-05, No Iterations 5
DILUPBiCGStab:  Solving for Uz, Initial residual = 0.0104035, Final residual = 4.53592e-05, No Iterations 5
linear solve U 404516
DICPBiCGStab:  Solving for p, Initial residual = 0.0672402, Final residual = 2.03593e-07, No Iterations 147
linear solve p 3087907
time step continuity errors : sum local = 1.06267e-10, global = 5.62605e-21, cumulative = -7.68288e-21
DICPBiCGStab:  Solving for p, Initial residual = 0.0542842, Final residual = 1.88727e-07, No Iterations 131
linear solve p 2769085
time step continuity errors : sum local = 1.18043e-10, global = 2.3116e-21, cumulative = -5.37128e-21
ExecutionTime = 49.11 s  ClockTime = 50 s

Time = 0.0106667

Courant Number mean: 0.180675 max: 0.956053
DILUPBiCGStab:  Solving for Ux, Initial residual = 0.00120433, Final residual = 5.42939e-06, No Iterations 5
DILUPBiCGStab:  Solving for Uy, Initial residual = 0.0036456, Final residual = 8.93383e-06, No Iterations 5
DILUPBiCGStab:  Solving for Uz, Initial residual = 0.0089877, Final residual = 3.40258e-05, No Iterations 5
linear solve U 409676
DICPBiCGStab:  Solving for p, Initial residual = 0.0536016, Final residual = 9.67757e-07, No Iterations 68
linear solve p 1451025
time step continuity errors : sum local = 6.13912e-10, global = 4.57123e-21, cumulative = -8.00055e-22
DICPBiCGStab:  Solving for p, Initial residual = 0.0434696, Final residual = 8.73615e-07, No Iterations 62
linear solve p 1321060
time step continuity errors : sum local = 5.15542e-10, global = -6.50267e-22, cumulative = -1.45032e-21
ExecutionTime = 52.52 s  ClockTime = 53 s

Time = 0.012

Courant Number mean: 0.181586 max: 0.956269
DILUPBiCGStab:  Solving for Ux, Initial residual = 0.00107209, Final residual = 4.24166e-06, No Iterations 5
DILUPBiCGStab:  Solving for Uy, Initial residual = 0.00324836, Final residual = 7.90174e-06, No Iterations 5
DILUPBiCGStab:  Solving for Uz, Initial residual = 0.00733432, Final residual = 2.66299e-05, No Iterations 5
linear solve U 405814
DICPBiCGStab:  Solving for p, Initial residual = 0.0432857, Final residual = 8.56163e-07, No Iterations 120
linear solve p 2525148
time step continuity errors : sum local = 6.97106e-10, global = -1.27244e-20, cumulative = -1.41747e-20
DICPBiCGStab:  Solving for p, Initial residual = 0.035128, Final residual = 8.46246e-07, No Iterations 118
linear solve p 2478735
time step continuity errors : sum local = 6.06317e-10, global = 1.95301e-20, cumulative = 5.35538e-21
ExecutionTime = 58.16 s  ClockTime = 59 s

Time = 0.0133333

Courant Number mean: 0.182419 max: 0.956526
DILUPBiCGStab:  Solving for Ux, Initial residual = 0.000967301, Final residual = 3.81059e-06, No Iterations 5
DILUPBiCGStab:  Solving for Uy, Initial residual = 0.00291585, Final residual = 6.31429e-06, No Iterations 5
DILUPBiCGStab:  Solving for Uz, Initial residual = 0.0065006, Final residual = 2.0548e-05, No Iterations 5
linear solve U 405291
DICPBiCGStab:  Solving for p, Initial residual = 0.0347037, Final residual = 8.55172e-07, No Iterations 136
linear solve p 2866924
time step continuity errors : sum local = 4.67464e-10, global = -1.85032e-20, cumulative = -1.31479e-20
DICPBiCGStab:  Solving for p, Initial residual = 0.0282427, Final residual = 9.64683e-07, No Iterations 124
linear solve p 2610468
time step continuity errors : sum local = 5.42637e-10, global = -1.13347e-21, cumulative = -1.42813e-20
ExecutionTime = 64.27 s  ClockTime = 65 s

End

