/*---------------------------------------------------------------------------*\
  =========                 |
  \\      /  F ield         | OpenFOAM: The Open Source CFD Toolbox
   \\    /   O peration     | Website:  https://openfoam.org
    \\  /    A nd           | Version:  8
     \\/     M anipulation  |
\*---------------------------------------------------------------------------*/
Build  : 8-ef60d22ea792
Exec   : icoFoam
Date   : Sep 15 2021
Time   : 13:07:15
Host   : "uc2n482.localdomain"
PID    : 3625523
I/O    : uncollated
Case   : /pfs/data5/home/kit/scc/nq7776/data/code/OBR/lidDrivenCavity3D/Variation_init/100/Variation_mesh/5/Variation_matrix_solver/CG_BJ_CUDA/Variation_maxBlockSize/8/1631704033
nProcs : 1
sigFpe : Enabling floating point exception trapping (FOAM_SIGFPE).
fileModificationChecking : Monitoring run-time modified files using timeStampMaster (fileModificationSkew 10)
allowSystemOperations : Allowing user-supplied system call operations

// * * * * * * * * * * * * * * * * * * * * * * * * * * * * * * * * * * * * * //
Create time

Create mesh for time = 0

Reading transportProperties

Reading field p

Reading field U

Reading/calculating face flux field phi


Starting time loop

Time = 0.02

Courant Number mean: 0.144178 max: 0.344046
DILUPBiCGStab:  Solving for Ux, Initial residual = 0.270102, Final residual = 1.39043e-14, No Iterations 5
DILUPBiCGStab:  Solving for Uy, Initial residual = 0.217087, Final residual = 1.19184e-13, No Iterations 5
DILUPBiCGStab:  Solving for Uz, Initial residual = 0.216079, Final residual = 2.72531e-14, No Iterations 5
linear solve U 201
[OGL LOG] init_host_sparsity_pattern : 0 ms
[OGL LOG] matrix not stored update host matrix
[OGL LOG] update_host_mtx : 0 ms
[OGL LOG] matrix is not yet sorted, compute sorting idxs
[OGL LOG] compute_sort : 0 ms
[OGL LOG] matrix is not yet sorted, sorting host matrix
[OGL LOG] sort_host_mtx_sparsity_pattern : 0 ms
[OGL LOG] sort_host_mtx : 0 ms
[OGL LOG] init_preconditioner : 0 ms
[OGL LOG] solve : 5 ms
BJcudaGKOCG:  Solving for p, Initial residual = 0.599316, Final residual = 5.63423e-07, No Iterations 32
linear solve p 741582
time step continuity errors : sum local = 4.68817e-08, global = -1.01512e-19, cumulative = -1.01512e-19
[OGL LOG] init_preconditioner : 0 ms
[OGL LOG] solve : 4 ms
BJcudaGKOCG:  Solving for p, Initial residual = 0.288319, Final residual = 5.28835e-07, No Iterations 31
linear solve p 4721
time step continuity errors : sum local = 2.32115e-08, global = -1.20332e-18, cumulative = -1.30483e-18
ExecutionTime = 0.78 s  ClockTime = 1 s

Time = 0.04

Courant Number mean: 0.143461 max: 0.370002
DILUPBiCGStab:  Solving for Ux, Initial residual = 0.0735166, Final residual = 6.10753e-14, No Iterations 5
DILUPBiCGStab:  Solving for Uy, Initial residual = 0.0725789, Final residual = 1.60052e-13, No Iterations 5
DILUPBiCGStab:  Solving for Uz, Initial residual = 0.174731, Final residual = 2.48373e-13, No Iterations 5
linear solve U 101
[OGL LOG] init_preconditioner : 0 ms
[OGL LOG] solve : 4 ms
BJcudaGKOCG:  Solving for p, Initial residual = 0.212157, Final residual = 4.52681e-07, No Iterations 31
linear solve p 4713
time step continuity errors : sum local = 0.00026413, global = -1.26631e-18, cumulative = -2.57114e-18
[OGL LOG] init_preconditioner : 0 ms
[OGL LOG] solve : 4 ms
BJcudaGKOCG:  Solving for p, Initial residual = 0.0746229, Final residual = 5.77046e-07, No Iterations 29
linear solve p 4408
time step continuity errors : sum local = 0.000237011, global = -1.61572e-18, cumulative = -4.18686e-18
ExecutionTime = 0.79 s  ClockTime = 1 s

Time = 0.06

Courant Number mean: 0.145501 max: 0.37555
DILUPBiCGStab:  Solving for Ux, Initial residual = 0.0154114, Final residual = 1.49234e-15, No Iterations 5
DILUPBiCGStab:  Solving for Uy, Initial residual = 0.0201049, Final residual = 2.28395e-14, No Iterations 5
DILUPBiCGStab:  Solving for Uz, Initial residual = 0.097812, Final residual = 1.16464e-13, No Iterations 5
linear solve U 96
[OGL LOG] init_preconditioner : 0 ms
[OGL LOG] solve : 3 ms
BJcudaGKOCG:  Solving for p, Initial residual = 0.0170456, Final residual = 7.43964e-07, No Iterations 26
linear solve p 4055
time step continuity errors : sum local = 0.000237525, global = -8.41739e-19, cumulative = -5.0286e-18
[OGL LOG] init_preconditioner : 0 ms
[OGL LOG] solve : 3 ms
BJcudaGKOCG:  Solving for p, Initial residual = 0.00365031, Final residual = 8.58221e-07, No Iterations 24
linear solve p 3736
time step continuity errors : sum local = 0.000237424, global = -3.70577e-19, cumulative = -5.39917e-18
ExecutionTime = 0.79 s  ClockTime = 1 s

Time = 0.08

Courant Number mean: 0.147029 max: 0.378253
DILUPBiCGStab:  Solving for Ux, Initial residual = 0.00478798, Final residual = 3.38615e-15, No Iterations 5
DILUPBiCGStab:  Solving for Uy, Initial residual = 0.00642998, Final residual = 1.20392e-14, No Iterations 5
DILUPBiCGStab:  Solving for Uz, Initial residual = 0.028432, Final residual = 4.44115e-14, No Iterations 5
linear solve U 94
[OGL LOG] init_preconditioner : 0 ms
[OGL LOG] solve : 3 ms
BJcudaGKOCG:  Solving for p, Initial residual = 0.00482355, Final residual = 6.30239e-07, No Iterations 25
linear solve p 3937
time step continuity errors : sum local = 0.000237962, global = -4.8175e-19, cumulative = -5.88092e-18
[OGL LOG] init_preconditioner : 0 ms
[OGL LOG] solve : 3 ms
BJcudaGKOCG:  Solving for p, Initial residual = 0.00114483, Final residual = 8.06158e-07, No Iterations 23
linear solve p 3654
time step continuity errors : sum local = 0.000237676, global = -1.69407e-19, cumulative = -6.05033e-18
ExecutionTime = 0.81 s  ClockTime = 1 s

Time = 0.1

Courant Number mean: 0.14778 max: 0.379477
DILUPBiCGStab:  Solving for Ux, Initial residual = 0.00171223, Final residual = 8.30554e-16, No Iterations 5
DILUPBiCGStab:  Solving for Uy, Initial residual = 0.0025735, Final residual = 2.28118e-15, No Iterations 5
DILUPBiCGStab:  Solving for Uz, Initial residual = 0.010795, Final residual = 1.45144e-14, No Iterations 5
linear solve U 95
[OGL LOG] init_preconditioner : 0 ms
[OGL LOG] solve : 3 ms
BJcudaGKOCG:  Solving for p, Initial residual = 0.00160362, Final residual = 3.68864e-07, No Iterations 22
linear solve p 3641
time step continuity errors : sum local = 0.00023772, global = 1.40184e-18, cumulative = -4.64849e-18
[OGL LOG] init_preconditioner : 0 ms
[OGL LOG] solve : 3 ms
BJcudaGKOCG:  Solving for p, Initial residual = 0.000367416, Final residual = 5.7233e-07, No Iterations 20
linear solve p 3351
time step continuity errors : sum local = 0.000237667, global = -9.66676e-19, cumulative = -5.61517e-18
ExecutionTime = 0.82 s  ClockTime = 1 s

Time = 0.12

Courant Number mean: 0.148155 max: 0.380093
DILUPBiCGStab:  Solving for Ux, Initial residual = 0.000689989, Final residual = 3.07203e-16, No Iterations 5
DILUPBiCGStab:  Solving for Uy, Initial residual = 0.00109056, Final residual = 3.92859e-16, No Iterations 5
DILUPBiCGStab:  Solving for Uz, Initial residual = 0.00414506, Final residual = 4.97207e-15, No Iterations 5
linear solve U 98
[OGL LOG] init_preconditioner : 0 ms
[OGL LOG] solve : 3 ms
BJcudaGKOCG:  Solving for p, Initial residual = 0.000679761, Final residual = 4.57917e-07, No Iterations 21
linear solve p 3661
time step continuity errors : sum local = 0.000237674, global = 5.39984e-19, cumulative = -5.07518e-18
[OGL LOG] init_preconditioner : 0 ms
[OGL LOG] solve : 3 ms
BJcudaGKOCG:  Solving for p, Initial residual = 0.000161227, Final residual = 6.1476e-07, No Iterations 19
linear solve p 3267
time step continuity errors : sum local = 0.000237659, global = 2.79521e-19, cumulative = -4.79566e-18
ExecutionTime = 0.82 s  ClockTime = 1 s

Time = 0.14

Courant Number mean: 0.148339 max: 0.380409
DILUPBiCGStab:  Solving for Ux, Initial residual = 0.000300363, Final residual = 1.45294e-16, No Iterations 5
DILUPBiCGStab:  Solving for Uy, Initial residual = 0.000488822, Final residual = 2.04336e-16, No Iterations 5
DILUPBiCGStab:  Solving for Uz, Initial residual = 0.00166925, Final residual = 1.78087e-15, No Iterations 5
linear solve U 94
[OGL LOG] init_preconditioner : 0 ms
[OGL LOG] solve : 3 ms
BJcudaGKOCG:  Solving for p, Initial residual = 0.000315633, Final residual = 4.74047e-07, No Iterations 20
linear solve p 3338
time step continuity errors : sum local = 0.00023765, global = -7.96211e-19, cumulative = -5.59187e-18
[OGL LOG] init_preconditioner : 0 ms
[OGL LOG] solve : 1 ms
BJcudaGKOCG:  Solving for p, Initial residual = 7.19045e-05, Final residual = 7.49984e-07, No Iterations 9
linear solve p 1903
time step continuity errors : sum local = 0.000237669, global = -1.28114e-18, cumulative = -6.87301e-18
ExecutionTime = 0.83 s  ClockTime = 1 s

Time = 0.16

Courant Number mean: 0.148428 max: 0.380568
DILUPBiCGStab:  Solving for Ux, Initial residual = 0.000135339, Final residual = 6.76789e-17, No Iterations 5
DILUPBiCGStab:  Solving for Uy, Initial residual = 0.000229145, Final residual = 1.48428e-16, No Iterations 5
DILUPBiCGStab:  Solving for Uz, Initial residual = 0.000709083, Final residual = 6.4674e-16, No Iterations 5
linear solve U 101
[OGL LOG] init_preconditioner : 0 ms
[OGL LOG] solve : 1 ms
BJcudaGKOCG:  Solving for p, Initial residual = 0.000149379, Final residual = 8.32438e-07, No Iterations 9
linear solve p 1844
time step continuity errors : sum local = 0.000237646, global = -5.80218e-19, cumulative = -7.45323e-18
[OGL LOG] init_preconditioner : 0 ms
[OGL LOG] solve : 1 ms
BJcudaGKOCG:  Solving for p, Initial residual = 3.35667e-05, Final residual = 8.1255e-07, No Iterations 7
linear solve p 1526
time step continuity errors : sum local = 0.000237648, global = 1.88465e-19, cumulative = -7.26476e-18
ExecutionTime = 0.83 s  ClockTime = 1 s

Time = 0.18

Courant Number mean: 0.148472 max: 0.380648
DILUPBiCGStab:  Solving for Ux, Initial residual = 6.20498e-05, Final residual = 2.939e-17, No Iterations 5
DILUPBiCGStab:  Solving for Uy, Initial residual = 0.000108567, Final residual = 7.69765e-17, No Iterations 5
DILUPBiCGStab:  Solving for Uz, Initial residual = 0.000314343, Final residual = 1.96114e-16, No Iterations 5
linear solve U 103
[OGL LOG] init_preconditioner : 0 ms
[OGL LOG] solve : 1 ms
BJcudaGKOCG:  Solving for p, Initial residual = 7.08316e-05, Final residual = 6.63101e-07, No Iterations 8
linear solve p 1684
time step continuity errors : sum local = 0.000237641, global = -9.19031e-19, cumulative = -8.18379e-18
[OGL LOG] init_preconditioner : 0 ms
[OGL LOG] solve : 1 ms
BJcudaGKOCG:  Solving for p, Initial residual = 1.57207e-05, Final residual = 8.75047e-07, No Iterations 5
linear solve p 1278
time step continuity errors : sum local = 0.000237645, global = -4.70103e-19, cumulative = -8.6539e-18
ExecutionTime = 0.84 s  ClockTime = 1 s

Time = 0.2

Courant Number mean: 0.148493 max: 0.380687
DILUPBiCGStab:  Solving for Ux, Initial residual = 2.86372e-05, Final residual = 1.10535e-17, No Iterations 5
DILUPBiCGStab:  Solving for Uy, Initial residual = 5.15268e-05, Final residual = 3.68431e-17, No Iterations 5
DILUPBiCGStab:  Solving for Uz, Initial residual = 0.000144837, Final residual = 5.78606e-17, No Iterations 5
linear solve U 94
[OGL LOG] init_preconditioner : 0 ms
[OGL LOG] solve : 1 ms
BJcudaGKOCG:  Solving for p, Initial residual = 3.34966e-05, Final residual = 6.12171e-07, No Iterations 5
linear solve p 1232
time step continuity errors : sum local = 0.00023764, global = -9.0209e-19, cumulative = -9.55599e-18
[OGL LOG] init_preconditioner : 0 ms
[OGL LOG] solve : 0 ms
BJcudaGKOCG:  Solving for p, Initial residual = 7.48252e-06, Final residual = 5.5688e-07, No Iterations 3
linear solve p 1001
time step continuity errors : sum local = 0.000237635, global = 1.09055e-18, cumulative = -8.46543e-18
ExecutionTime = 0.84 s  ClockTime = 1 s

End

