/*---------------------------------------------------------------------------*\
  =========                 |
  \\      /  F ield         | OpenFOAM: The Open Source CFD Toolbox
   \\    /   O peration     | Website:  https://openfoam.org
    \\  /    A nd           | Version:  8
     \\/     M anipulation  |
\*---------------------------------------------------------------------------*/
Build  : 8-ef60d22ea792
Exec   : icoFoam
Date   : Sep 15 2021
Time   : 13:35:44
Host   : "uc2n482.localdomain"
PID    : 3633401
I/O    : uncollated
Case   : /pfs/data5/home/kit/scc/nq7776/data/code/OBR/lidDrivenCavity3D/Variation_init/100/Variation_mesh/40/Variation_matrix_solver/BiCGStab_BJ_CUDA/1631705740
nProcs : 1
sigFpe : Enabling floating point exception trapping (FOAM_SIGFPE).
fileModificationChecking : Monitoring run-time modified files using timeStampMaster (fileModificationSkew 10)
allowSystemOperations : Allowing user-supplied system call operations

// * * * * * * * * * * * * * * * * * * * * * * * * * * * * * * * * * * * * * //
Create time

Create mesh for time = 0

Reading transportProperties

Reading field p

Reading field U

Reading/calculating face flux field phi


Starting time loop

Time = 0.0025

Courant Number mean: 0.170274 max: 0.898977
DILUPBiCGStab:  Solving for Ux, Initial residual = 0.0777941, Final residual = 5.00153e-06, No Iterations 5
DILUPBiCGStab:  Solving for Uy, Initial residual = 0.123446, Final residual = 1.39078e-05, No Iterations 5
DILUPBiCGStab:  Solving for Uz, Initial residual = 0.127456, Final residual = 2.53141e-05, No Iterations 5
linear solve U 52954
[OGL LOG] init_host_sparsity_pattern : 17 ms
[OGL LOG] matrix not stored update host matrix
[OGL LOG] update_host_mtx : 10 ms
[OGL LOG] matrix is not yet sorted, compute sorting idxs
[OGL LOG] compute_sort : 506 ms
[OGL LOG] matrix is not yet sorted, sorting host matrix
[OGL LOG] sort_host_mtx_sparsity_pattern : 12 ms
[OGL LOG] sort_host_mtx : 7 ms
[OGL LOG] init_preconditioner : 8 ms
[OGL LOG] solve : 58 ms
BJcudaGKOBiCGStab:  Solving for p, Initial residual = 0.406972, Final residual = 9.67803e-07, No Iterations 192
linear solve p 1374481
time step continuity errors : sum local = 2.80013e-09, global = 4.15479e-20, cumulative = 4.15479e-20
[OGL LOG] init_preconditioner : 0 ms
[OGL LOG] solve : 63 ms
BJcudaGKOBiCGStab:  Solving for p, Initial residual = 0.212572, Final residual = 9.50059e-07, No Iterations 214
linear solve p 65195
time step continuity errors : sum local = 2.0149e-09, global = 4.53496e-20, cumulative = 8.68975e-20
ExecutionTime = 1.82 s  ClockTime = 2 s

Time = 0.005

Courant Number mean: 0.173472 max: 0.913614
DILUPBiCGStab:  Solving for Ux, Initial residual = 0.00786534, Final residual = 6.97728e-06, No Iterations 5
DILUPBiCGStab:  Solving for Uy, Initial residual = 0.0156869, Final residual = 1.02452e-05, No Iterations 5
DILUPBiCGStab:  Solving for Uz, Initial residual = 0.0331104, Final residual = 1.79341e-05, No Iterations 5
linear solve U 48622
[OGL LOG] init_preconditioner : 0 ms
[OGL LOG] solve : 58 ms
BJcudaGKOBiCGStab:  Solving for p, Initial residual = 0.146663, Final residual = 6.69739e-07, No Iterations 195
linear solve p 59910
time step continuity errors : sum local = 6.6667e-07, global = 5.70274e-20, cumulative = 1.43925e-19
[OGL LOG] init_preconditioner : 0 ms
[OGL LOG] solve : 57 ms
BJcudaGKOBiCGStab:  Solving for p, Initial residual = 0.104785, Final residual = 8.89981e-07, No Iterations 194
linear solve p 59545
time step continuity errors : sum local = 6.28833e-07, global = 1.94616e-19, cumulative = 3.38541e-19
ExecutionTime = 2.02 s  ClockTime = 2 s

Time = 0.0075

Courant Number mean: 0.17602 max: 0.915376
DILUPBiCGStab:  Solving for Ux, Initial residual = 0.00346351, Final residual = 3.3083e-06, No Iterations 5
DILUPBiCGStab:  Solving for Uy, Initial residual = 0.0093041, Final residual = 5.91358e-06, No Iterations 5
DILUPBiCGStab:  Solving for Uz, Initial residual = 0.0178901, Final residual = 9.66252e-06, No Iterations 5
linear solve U 51835
[OGL LOG] init_preconditioner : 0 ms
[OGL LOG] solve : 52 ms
BJcudaGKOBiCGStab:  Solving for p, Initial residual = 0.0595567, Final residual = 7.96066e-07, No Iterations 177
linear solve p 54578
time step continuity errors : sum local = 6.17051e-07, global = -4.24137e-21, cumulative = 3.343e-19
[OGL LOG] init_preconditioner : 0 ms
[OGL LOG] solve : 51 ms
BJcudaGKOBiCGStab:  Solving for p, Initial residual = 0.0435486, Final residual = 9.7715e-07, No Iterations 173
linear solve p 53646
time step continuity errors : sum local = 6.2628e-07, global = 4.18486e-20, cumulative = 3.76149e-19
ExecutionTime = 2.22 s  ClockTime = 2 s

Time = 0.01

Courant Number mean: 0.178224 max: 0.916801
DILUPBiCGStab:  Solving for Ux, Initial residual = 0.00264556, Final residual = 1.07506e-06, No Iterations 5
DILUPBiCGStab:  Solving for Uy, Initial residual = 0.00688092, Final residual = 2.61685e-06, No Iterations 5
DILUPBiCGStab:  Solving for Uz, Initial residual = 0.0130749, Final residual = 5.11346e-06, No Iterations 5
linear solve U 47767
[OGL LOG] init_preconditioner : 0 ms
[OGL LOG] solve : 53 ms
BJcudaGKOBiCGStab:  Solving for p, Initial residual = 0.0322245, Final residual = 3.5561e-07, No Iterations 181
linear solve p 55664
time step continuity errors : sum local = 6.28691e-07, global = 8.70995e-20, cumulative = 4.63248e-19
[OGL LOG] init_preconditioner : 0 ms
[OGL LOG] solve : 52 ms
BJcudaGKOBiCGStab:  Solving for p, Initial residual = 0.0246092, Final residual = 9.62237e-07, No Iterations 177
linear solve p 53963
time step continuity errors : sum local = 6.26207e-07, global = -8.17947e-20, cumulative = 3.81453e-19
ExecutionTime = 2.4 s  ClockTime = 3 s

Time = 0.0125

Courant Number mean: 0.180054 max: 0.917664
DILUPBiCGStab:  Solving for Ux, Initial residual = 0.00210932, Final residual = 6.87278e-07, No Iterations 5
DILUPBiCGStab:  Solving for Uy, Initial residual = 0.00541015, Final residual = 9.63482e-07, No Iterations 5
DILUPBiCGStab:  Solving for Uz, Initial residual = 0.00996922, Final residual = 2.78316e-06, No Iterations 5
linear solve U 47854
[OGL LOG] init_preconditioner : 0 ms
[OGL LOG] solve : 52 ms
BJcudaGKOBiCGStab:  Solving for p, Initial residual = 0.0202295, Final residual = 9.02136e-07, No Iterations 166
linear solve p 54409
time step continuity errors : sum local = 6.2549e-07, global = -4.43886e-21, cumulative = 3.77015e-19
[OGL LOG] init_preconditioner : 0 ms
[OGL LOG] solve : 47 ms
BJcudaGKOBiCGStab:  Solving for p, Initial residual = 0.0155711, Final residual = 9.55605e-07, No Iterations 163
linear solve p 49712
time step continuity errors : sum local = 6.26272e-07, global = 1.62091e-20, cumulative = 3.93224e-19
ExecutionTime = 2.59 s  ClockTime = 3 s

Time = 0.015

Courant Number mean: 0.181609 max: 0.918509
DILUPBiCGStab:  Solving for Ux, Initial residual = 0.0017419, Final residual = 3.58199e-07, No Iterations 5
DILUPBiCGStab:  Solving for Uy, Initial residual = 0.00457655, Final residual = 8.58646e-07, No Iterations 5
DILUPBiCGStab:  Solving for Uz, Initial residual = 0.00838003, Final residual = 2.28955e-06, No Iterations 5
linear solve U 47228
[OGL LOG] init_preconditioner : 0 ms
[OGL LOG] solve : 50 ms
BJcudaGKOBiCGStab:  Solving for p, Initial residual = 0.0124378, Final residual = 9.54139e-07, No Iterations 172
linear solve p 52366
time step continuity errors : sum local = 6.27222e-07, global = -1.32943e-20, cumulative = 3.79929e-19
[OGL LOG] init_preconditioner : 0 ms
[OGL LOG] solve : 46 ms
BJcudaGKOBiCGStab:  Solving for p, Initial residual = 0.00997494, Final residual = 9.42567e-07, No Iterations 156
linear solve p 48132
time step continuity errors : sum local = 6.2734e-07, global = 7.48237e-20, cumulative = 4.54753e-19
ExecutionTime = 2.77 s  ClockTime = 3 s

Time = 0.0175

Courant Number mean: 0.182919 max: 0.919116
DILUPBiCGStab:  Solving for Ux, Initial residual = 0.00145823, Final residual = 2.82184e-07, No Iterations 5
DILUPBiCGStab:  Solving for Uy, Initial residual = 0.00377676, Final residual = 5.36806e-07, No Iterations 5
DILUPBiCGStab:  Solving for Uz, Initial residual = 0.00673197, Final residual = 1.38368e-06, No Iterations 5
linear solve U 46998
[OGL LOG] init_preconditioner : 0 ms
[OGL LOG] solve : 26 ms
BJcudaGKOBiCGStab:  Solving for p, Initial residual = 0.00873678, Final residual = 8.18291e-07, No Iterations 87
linear solve p 28400
time step continuity errors : sum local = 6.2682e-07, global = -5.98579e-20, cumulative = 3.94895e-19
[OGL LOG] init_preconditioner : 0 ms
[OGL LOG] solve : 27 ms
BJcudaGKOBiCGStab:  Solving for p, Initial residual = 0.00701453, Final residual = 8.95272e-07, No Iterations 91
linear solve p 29339
time step continuity errors : sum local = 6.27398e-07, global = -2.49964e-20, cumulative = 3.69899e-19
ExecutionTime = 2.91 s  ClockTime = 3 s

Time = 0.02

Courant Number mean: 0.184033 max: 0.919668
DILUPBiCGStab:  Solving for Ux, Initial residual = 0.00122755, Final residual = 1.57426e-07, No Iterations 5
DILUPBiCGStab:  Solving for Uy, Initial residual = 0.00323282, Final residual = 5.24527e-07, No Iterations 5
DILUPBiCGStab:  Solving for Uz, Initial residual = 0.00575033, Final residual = 1.21778e-06, No Iterations 5
linear solve U 47515
[OGL LOG] init_preconditioner : 0 ms
[OGL LOG] solve : 26 ms
BJcudaGKOBiCGStab:  Solving for p, Initial residual = 0.00586491, Final residual = 9.84241e-07, No Iterations 86
linear solve p 27967
time step continuity errors : sum local = 6.27915e-07, global = -8.59068e-20, cumulative = 2.83992e-19
[OGL LOG] init_preconditioner : 0 ms
[OGL LOG] solve : 23 ms
BJcudaGKOBiCGStab:  Solving for p, Initial residual = 0.00492492, Final residual = 9.93985e-07, No Iterations 78
linear solve p 25464
time step continuity errors : sum local = 6.27092e-07, global = 7.12761e-20, cumulative = 3.55268e-19
ExecutionTime = 3.05 s  ClockTime = 3 s

Time = 0.0225

Courant Number mean: 0.184978 max: 0.920092
DILUPBiCGStab:  Solving for Ux, Initial residual = 0.00103984, Final residual = 1.36288e-07, No Iterations 5
DILUPBiCGStab:  Solving for Uy, Initial residual = 0.0027272, Final residual = 3.75317e-07, No Iterations 5
DILUPBiCGStab:  Solving for Uz, Initial residual = 0.00473763, Final residual = 9.16749e-07, No Iterations 5
linear solve U 46907
[OGL LOG] init_preconditioner : 0 ms
[OGL LOG] solve : 29 ms
BJcudaGKOBiCGStab:  Solving for p, Initial residual = 0.00446347, Final residual = 4.13379e-07, No Iterations 99
linear solve p 31405
time step continuity errors : sum local = 6.2619e-07, global = -4.80535e-20, cumulative = 3.07214e-19
[OGL LOG] init_preconditioner : 0 ms
[OGL LOG] solve : 24 ms
BJcudaGKOBiCGStab:  Solving for p, Initial residual = 0.00379895, Final residual = 9.98792e-07, No Iterations 81
linear solve p 26580
time step continuity errors : sum local = 6.26952e-07, global = -1.87243e-20, cumulative = 2.8849e-19
ExecutionTime = 3.18 s  ClockTime = 3 s

Time = 0.025

Courant Number mean: 0.185785 max: 0.920464
DILUPBiCGStab:  Solving for Ux, Initial residual = 0.000883963, Final residual = 9.17842e-08, No Iterations 5
DILUPBiCGStab:  Solving for Uy, Initial residual = 0.00234092, Final residual = 4.81362e-07, No Iterations 5
DILUPBiCGStab:  Solving for Uz, Initial residual = 0.00403146, Final residual = 7.83529e-07, No Iterations 5
linear solve U 47224
[OGL LOG] init_preconditioner : 0 ms
[OGL LOG] solve : 25 ms
BJcudaGKOBiCGStab:  Solving for p, Initial residual = 0.00328648, Final residual = 9.99165e-07, No Iterations 81
linear solve p 26955
time step continuity errors : sum local = 6.27679e-07, global = -6.22557e-21, cumulative = 2.82265e-19
[OGL LOG] init_preconditioner : 0 ms
[OGL LOG] solve : 23 ms
BJcudaGKOBiCGStab:  Solving for p, Initial residual = 0.00289266, Final residual = 9.21743e-07, No Iterations 75
linear solve p 25139
time step continuity errors : sum local = 6.26511e-07, global = 5.07315e-20, cumulative = 3.32996e-19
ExecutionTime = 3.31 s  ClockTime = 3 s

End

