/*---------------------------------------------------------------------------*\
  =========                 |
  \\      /  F ield         | OpenFOAM: The Open Source CFD Toolbox
   \\    /   O peration     | Website:  https://openfoam.org
    \\  /    A nd           | Version:  8
     \\/     M anipulation  |
\*---------------------------------------------------------------------------*/
Build  : 8-ef60d22ea792
Exec   : icoFoam
Date   : Sep 15 2021
Time   : 14:41:33
Host   : "uc2n482.localdomain"
PID    : 3652979
I/O    : uncollated
Case   : /pfs/data5/home/kit/scc/nq7776/data/code/OBR/lidDrivenCavity3D/Variation_init/100/Variation_mesh/80/Variation_matrix_solver/IR_NoPrecond_CUDA/Variation_innerReductionFactor/0.01/1631709673
nProcs : 1
sigFpe : Enabling floating point exception trapping (FOAM_SIGFPE).
fileModificationChecking : Monitoring run-time modified files using timeStampMaster (fileModificationSkew 10)
allowSystemOperations : Allowing user-supplied system call operations

// * * * * * * * * * * * * * * * * * * * * * * * * * * * * * * * * * * * * * //
Create time

Create mesh for time = 0

Reading transportProperties

Reading field p

Reading field U

Reading/calculating face flux field phi


Starting time loop

Time = 0.00125

Courant Number mean: 0.170872 max: 0.956305
DILUPBiCGStab:  Solving for Ux, Initial residual = 0.0907333, Final residual = 0.00013873, No Iterations 5
DILUPBiCGStab:  Solving for Uy, Initial residual = 0.175752, Final residual = 0.000395244, No Iterations 5
DILUPBiCGStab:  Solving for Uz, Initial residual = 0.2223, Final residual = 0.000391641, No Iterations 5
linear solve U 546399
[OGL LOG] init_host_sparsity_pattern : 146 ms
[OGL LOG] matrix not stored update host matrix
[OGL LOG] update_host_mtx : 81 ms
[OGL LOG] matrix is not yet sorted, compute sorting idxs
[OGL LOG] compute_sort : 4649 ms
[OGL LOG] matrix is not yet sorted, sorting host matrix
[OGL LOG] sort_host_mtx_sparsity_pattern : 103 ms
[OGL LOG] sort_host_mtx : 63 ms
[OGL LOG] init_preconditioner : 0 ms
[OGL LOG] solve : 262 ms
nonecudaGKOIR:  Solving for p, Initial residual = 0.619793, Final residual = 3.19647e-08, No Iterations 4
linear solve p 6107060
time step continuity errors : sum local = 2.64012e-11, global = -1.45843e-20, cumulative = -1.45843e-20
[OGL LOG] init_preconditioner : 0 ms
[OGL LOG] solve : 264 ms
nonecudaGKOIR:  Solving for p, Initial residual = 0.305886, Final residual = 1.6761e-08, No Iterations 4
linear solve p 280169
time step continuity errors : sum local = 1.10523e-11, global = -2.05592e-21, cumulative = -1.66402e-20
ExecutionTime = 9.5 s  ClockTime = 9 s

Time = 0.0025

Courant Number mean: 0.172587 max: 0.956625
DILUPBiCGStab:  Solving for Ux, Initial residual = 0.00609836, Final residual = 2.52818e-05, No Iterations 5
DILUPBiCGStab:  Solving for Uy, Initial residual = 0.0152778, Final residual = 8.34401e-05, No Iterations 5
DILUPBiCGStab:  Solving for Uz, Initial residual = 0.0343257, Final residual = 0.000455101, No Iterations 5
linear solve U 501099
[OGL LOG] init_preconditioner : 0 ms
[OGL LOG] solve : 283 ms
nonecudaGKOIR:  Solving for p, Initial residual = 0.304274, Final residual = 9.58073e-09, No Iterations 4
linear solve p 299673
time step continuity errors : sum local = 7.89874e-08, global = -1.21712e-20, cumulative = -2.88114e-20
[OGL LOG] init_preconditioner : 0 ms
[OGL LOG] solve : 251 ms
nonecudaGKOIR:  Solving for p, Initial residual = 0.186321, Final residual = 6.53701e-07, No Iterations 3
linear solve p 267639
time step continuity errors : sum local = 7.66263e-08, global = 3.79443e-20, cumulative = 9.13291e-21
ExecutionTime = 10.87 s  ClockTime = 11 s

Time = 0.00375

Courant Number mean: 0.174167 max: 0.956979
DILUPBiCGStab:  Solving for Ux, Initial residual = 0.00272597, Final residual = 1.98743e-05, No Iterations 5
DILUPBiCGStab:  Solving for Uy, Initial residual = 0.00797019, Final residual = 4.87011e-05, No Iterations 5
DILUPBiCGStab:  Solving for Uz, Initial residual = 0.0231336, Final residual = 0.000236754, No Iterations 5
linear solve U 509309
[OGL LOG] init_preconditioner : 0 ms
[OGL LOG] solve : 236 ms
nonecudaGKOIR:  Solving for p, Initial residual = 0.175565, Final residual = 5.31629e-07, No Iterations 3
linear solve p 252705
time step continuity errors : sum local = 7.80345e-08, global = -5.55171e-21, cumulative = 3.5812e-21
[OGL LOG] init_preconditioner : 0 ms
[OGL LOG] solve : 240 ms
nonecudaGKOIR:  Solving for p, Initial residual = 0.128458, Final residual = 3.78607e-07, No Iterations 3
linear solve p 256061
time step continuity errors : sum local = 7.63308e-08, global = -4.2943e-21, cumulative = -7.13092e-22
ExecutionTime = 12.18 s  ClockTime = 12 s

Time = 0.005

Courant Number mean: 0.175607 max: 0.957348
DILUPBiCGStab:  Solving for Ux, Initial residual = 0.00209245, Final residual = 1.42155e-05, No Iterations 5
DILUPBiCGStab:  Solving for Uy, Initial residual = 0.0066496, Final residual = 3.32671e-05, No Iterations 5
DILUPBiCGStab:  Solving for Uz, Initial residual = 0.0198718, Final residual = 0.0001869, No Iterations 5
linear solve U 491939
[OGL LOG] init_preconditioner : 0 ms
[OGL LOG] solve : 241 ms
nonecudaGKOIR:  Solving for p, Initial residual = 0.13121, Final residual = 3.11597e-07, No Iterations 3
linear solve p 257644
time step continuity errors : sum local = 7.55166e-08, global = -6.20995e-21, cumulative = -6.92304e-21
[OGL LOG] init_preconditioner : 0 ms
[OGL LOG] solve : 254 ms
nonecudaGKOIR:  Solving for p, Initial residual = 0.103885, Final residual = 2.50864e-07, No Iterations 3
linear solve p 270101
time step continuity errors : sum local = 7.63926e-08, global = -4.63623e-21, cumulative = -1.15593e-20
ExecutionTime = 13.5 s  ClockTime = 13 s

Time = 0.00625

Courant Number mean: 0.176919 max: 0.957715
DILUPBiCGStab:  Solving for Ux, Initial residual = 0.00180829, Final residual = 1.12384e-05, No Iterations 5
DILUPBiCGStab:  Solving for Uy, Initial residual = 0.00546601, Final residual = 2.38185e-05, No Iterations 5
DILUPBiCGStab:  Solving for Uz, Initial residual = 0.0155377, Final residual = 0.000136081, No Iterations 5
linear solve U 497554
[OGL LOG] init_preconditioner : 0 ms
[OGL LOG] solve : 242 ms
nonecudaGKOIR:  Solving for p, Initial residual = 0.102546, Final residual = 2.40801e-07, No Iterations 3
linear solve p 261090
time step continuity errors : sum local = 7.70926e-08, global = 4.5812e-20, cumulative = 3.42527e-20
[OGL LOG] init_preconditioner : 0 ms
[OGL LOG] solve : 241 ms
nonecudaGKOIR:  Solving for p, Initial residual = 0.0820772, Final residual = 1.67133e-07, No Iterations 3
linear solve p 257023
time step continuity errors : sum local = 7.63432e-08, global = -3.75723e-21, cumulative = 3.04955e-20
ExecutionTime = 14.84 s  ClockTime = 15 s

Time = 0.0075

Courant Number mean: 0.178117 max: 0.95808
DILUPBiCGStab:  Solving for Ux, Initial residual = 0.00156866, Final residual = 9.33976e-06, No Iterations 5
DILUPBiCGStab:  Solving for Uy, Initial residual = 0.0048063, Final residual = 1.83339e-05, No Iterations 5
DILUPBiCGStab:  Solving for Uz, Initial residual = 0.0133341, Final residual = 9.97651e-05, No Iterations 5
linear solve U 492963
[OGL LOG] init_preconditioner : 0 ms
[OGL LOG] solve : 245 ms
nonecudaGKOIR:  Solving for p, Initial residual = 0.0841101, Final residual = 1.77087e-07, No Iterations 3
linear solve p 261467
time step continuity errors : sum local = 7.5976e-08, global = 1.87781e-20, cumulative = 4.92736e-20
[OGL LOG] init_preconditioner : 0 ms
[OGL LOG] solve : 253 ms
nonecudaGKOIR:  Solving for p, Initial residual = 0.0682277, Final residual = 1.34831e-07, No Iterations 3
linear solve p 269943
time step continuity errors : sum local = 7.63527e-08, global = -5.55132e-21, cumulative = 4.37223e-20
ExecutionTime = 16.16 s  ClockTime = 16 s

Time = 0.00875

Courant Number mean: 0.179203 max: 0.958354
DILUPBiCGStab:  Solving for Ux, Initial residual = 0.00137905, Final residual = 7.58867e-06, No Iterations 5
DILUPBiCGStab:  Solving for Uy, Initial residual = 0.00418586, Final residual = 1.4932e-05, No Iterations 5
DILUPBiCGStab:  Solving for Uz, Initial residual = 0.0107652, Final residual = 6.68937e-05, No Iterations 5
linear solve U 501383
[OGL LOG] init_preconditioner : 0 ms
[OGL LOG] solve : 234 ms
nonecudaGKOIR:  Solving for p, Initial residual = 0.0688135, Final residual = 1.35402e-07, No Iterations 3
linear solve p 250827
time step continuity errors : sum local = 7.66408e-08, global = -2.20287e-20, cumulative = 2.16936e-20
[OGL LOG] init_preconditioner : 0 ms
[OGL LOG] solve : 243 ms
nonecudaGKOIR:  Solving for p, Initial residual = 0.0558623, Final residual = 1.02143e-07, No Iterations 3
linear solve p 258966
time step continuity errors : sum local = 7.63437e-08, global = -2.9003e-20, cumulative = -7.30945e-21
ExecutionTime = 17.47 s  ClockTime = 17 s

Time = 0.01

Courant Number mean: 0.180199 max: 0.958646
DILUPBiCGStab:  Solving for Ux, Initial residual = 0.0012365, Final residual = 6.6441e-06, No Iterations 5
DILUPBiCGStab:  Solving for Uy, Initial residual = 0.00372456, Final residual = 1.06846e-05, No Iterations 5
DILUPBiCGStab:  Solving for Uz, Initial residual = 0.00938494, Final residual = 5.11671e-05, No Iterations 5
linear solve U 506266
[OGL LOG] init_preconditioner : 0 ms
[OGL LOG] solve : 237 ms
nonecudaGKOIR:  Solving for p, Initial residual = 0.0568364, Final residual = 1.04682e-07, No Iterations 3
linear solve p 253515
time step continuity errors : sum local = 7.6205e-08, global = -5.44453e-23, cumulative = -7.3639e-21
[OGL LOG] init_preconditioner : 0 ms
[OGL LOG] solve : 236 ms
nonecudaGKOIR:  Solving for p, Initial residual = 0.0464023, Final residual = 7.46373e-08, No Iterations 3
linear solve p 252963
time step continuity errors : sum local = 7.63432e-08, global = 1.30746e-20, cumulative = 5.71069e-21
ExecutionTime = 18.77 s  ClockTime = 19 s

Time = 0.01125

Courant Number mean: 0.181104 max: 0.958866
DILUPBiCGStab:  Solving for Ux, Initial residual = 0.00109738, Final residual = 5.11505e-06, No Iterations 5
DILUPBiCGStab:  Solving for Uy, Initial residual = 0.0033211, Final residual = 9.68049e-06, No Iterations 5
DILUPBiCGStab:  Solving for Uz, Initial residual = 0.00777817, Final residual = 3.55528e-05, No Iterations 5
linear solve U 499380
[OGL LOG] init_preconditioner : 0 ms
[OGL LOG] solve : 246 ms
nonecudaGKOIR:  Solving for p, Initial residual = 0.0471988, Final residual = 7.91547e-08, No Iterations 3
linear solve p 262457
time step continuity errors : sum local = 7.64582e-08, global = 5.53568e-21, cumulative = 1.12464e-20
[OGL LOG] init_preconditioner : 0 ms
[OGL LOG] solve : 247 ms
nonecudaGKOIR:  Solving for p, Initial residual = 0.0385698, Final residual = 5.8696e-08, No Iterations 3
linear solve p 263060
time step continuity errors : sum local = 7.63421e-08, global = 2.46955e-20, cumulative = 3.59419e-20
ExecutionTime = 20.11 s  ClockTime = 20 s

Time = 0.0125

Courant Number mean: 0.181936 max: 0.959098
DILUPBiCGStab:  Solving for Ux, Initial residual = 0.000997478, Final residual = 4.78132e-06, No Iterations 5
DILUPBiCGStab:  Solving for Uy, Initial residual = 0.00298586, Final residual = 6.76128e-06, No Iterations 5
DILUPBiCGStab:  Solving for Uz, Initial residual = 0.00690873, Final residual = 2.94002e-05, No Iterations 5
linear solve U 498491
[OGL LOG] init_preconditioner : 0 ms
[OGL LOG] solve : 237 ms
nonecudaGKOIR:  Solving for p, Initial residual = 0.0390471, Final residual = 6.6859e-08, No Iterations 3
linear solve p 252921
time step continuity errors : sum local = 7.62933e-08, global = -6.80127e-21, cumulative = 2.91406e-20
[OGL LOG] init_preconditioner : 0 ms
[OGL LOG] solve : 244 ms
nonecudaGKOIR:  Solving for p, Initial residual = 0.0320093, Final residual = 5.50532e-08, No Iterations 3
linear solve p 261131
time step continuity errors : sum local = 7.63419e-08, global = -8.58746e-21, cumulative = 2.05532e-20
ExecutionTime = 21.42 s  ClockTime = 21 s

End

