/*---------------------------------------------------------------------------*\
  =========                 |
  \\      /  F ield         | OpenFOAM: The Open Source CFD Toolbox
   \\    /   O peration     | Website:  https://openfoam.org
    \\  /    A nd           | Version:  8
     \\/     M anipulation  |
\*---------------------------------------------------------------------------*/
Build  : 8-ef60d22ea792
Exec   : icoFoam
Date   : Sep 15 2021
Time   : 13:51:40
Host   : "uc2n438.localdomain"
PID    : 3545798
I/O    : uncollated
Case   : /pfs/data5/home/kit/scc/nq7776/data/code/OBR/lidDrivenCavity3D/Variation_init/100/Variation_mesh/70/Variation_matrix_solver/CG_NoPrecond_Serial/1631706686
nProcs : 1
sigFpe : Enabling floating point exception trapping (FOAM_SIGFPE).
fileModificationChecking : Monitoring run-time modified files using timeStampMaster (fileModificationSkew 10)
allowSystemOperations : Allowing user-supplied system call operations

// * * * * * * * * * * * * * * * * * * * * * * * * * * * * * * * * * * * * * //
Create time

Create mesh for time = 0

Reading transportProperties

Reading field p

Reading field U

Reading/calculating face flux field phi


Starting time loop

Time = 0.00142857

Courant Number mean: 0.170837 max: 0.954853
DILUPBiCGStab:  Solving for Ux, Initial residual = 0.123158, Final residual = 4.78684e-05, No Iterations 5
DILUPBiCGStab:  Solving for Uy, Initial residual = 0.240191, Final residual = 8.17702e-05, No Iterations 5
DILUPBiCGStab:  Solving for Uz, Initial residual = 0.328596, Final residual = 0.000523545, No Iterations 5
linear solve U 362102
nonePCG:  Solving for p, Initial residual = 0.567453, Final residual = 9.40764e-07, No Iterations 574
linear solve p 2393064
time step continuity errors : sum local = 1.13101e-09, global = 1.24396e-20, cumulative = 1.24396e-20
nonePCG:  Solving for p, Initial residual = 0.279391, Final residual = 9.40643e-07, No Iterations 577
linear solve p 2418922
time step continuity errors : sum local = 6.69837e-10, global = -1.74786e-20, cumulative = -5.03905e-21
ExecutionTime = 6.98 s  ClockTime = 7 s

Time = 0.00285714

Courant Number mean: 0.172875 max: 0.950141
DILUPBiCGStab:  Solving for Ux, Initial residual = 0.00605369, Final residual = 2.356e-05, No Iterations 5
DILUPBiCGStab:  Solving for Uy, Initial residual = 0.0139616, Final residual = 4.5309e-05, No Iterations 5
DILUPBiCGStab:  Solving for Uz, Initial residual = 0.0507768, Final residual = 0.000286306, No Iterations 5
linear solve U 335202
nonePCG:  Solving for p, Initial residual = 0.26128, Final residual = 9.98061e-07, No Iterations 573
linear solve p 2389972
time step continuity errors : sum local = 6.92219e-10, global = 1.58296e-20, cumulative = 1.07906e-20
nonePCG:  Solving for p, Initial residual = 0.183728, Final residual = 9.68689e-07, No Iterations 571
linear solve p 2388351
time step continuity errors : sum local = 6.53754e-10, global = -3.58756e-21, cumulative = 7.20302e-21
ExecutionTime = 12.27 s  ClockTime = 13 s

Time = 0.00428571

Courant Number mean: 0.17465 max: 0.951231
DILUPBiCGStab:  Solving for Ux, Initial residual = 0.00280721, Final residual = 1.28896e-05, No Iterations 5
DILUPBiCGStab:  Solving for Uy, Initial residual = 0.00743891, Final residual = 2.49749e-05, No Iterations 5
DILUPBiCGStab:  Solving for Uz, Initial residual = 0.0269118, Final residual = 0.000161766, No Iterations 5
linear solve U 329739
nonePCG:  Solving for p, Initial residual = 0.167743, Final residual = 9.46666e-07, No Iterations 568
linear solve p 2377735
time step continuity errors : sum local = 6.18017e-10, global = -1.25597e-20, cumulative = -5.35664e-21
nonePCG:  Solving for p, Initial residual = 0.122039, Final residual = 9.52126e-07, No Iterations 565
linear solve p 2369997
time step continuity errors : sum local = 6.22267e-10, global = 4.07629e-20, cumulative = 3.54062e-20
ExecutionTime = 17.53 s  ClockTime = 18 s

Time = 0.00571429

Courant Number mean: 0.176201 max: 0.951516
DILUPBiCGStab:  Solving for Ux, Initial residual = 0.00217509, Final residual = 7.97266e-06, No Iterations 5
DILUPBiCGStab:  Solving for Uy, Initial residual = 0.00611263, Final residual = 1.44624e-05, No Iterations 5
DILUPBiCGStab:  Solving for Uz, Initial residual = 0.0192787, Final residual = 8.86714e-05, No Iterations 5
linear solve U 327997
nonePCG:  Solving for p, Initial residual = 0.120392, Final residual = 9.95376e-07, No Iterations 559
linear solve p 2347119
time step continuity errors : sum local = 6.11272e-10, global = 3.29455e-20, cumulative = 6.83517e-20
nonePCG:  Solving for p, Initial residual = 0.0892155, Final residual = 9.16848e-07, No Iterations 558
linear solve p 2357461
time step continuity errors : sum local = 5.58213e-10, global = 2.71194e-21, cumulative = 7.10637e-20
ExecutionTime = 22.74 s  ClockTime = 23 s

Time = 0.00714286

Courant Number mean: 0.177607 max: 0.951995
DILUPBiCGStab:  Solving for Ux, Initial residual = 0.00184423, Final residual = 6.05765e-06, No Iterations 5
DILUPBiCGStab:  Solving for Uy, Initial residual = 0.0050969, Final residual = 1.21899e-05, No Iterations 5
DILUPBiCGStab:  Solving for Uz, Initial residual = 0.0137054, Final residual = 5.49532e-05, No Iterations 5
linear solve U 324861
nonePCG:  Solving for p, Initial residual = 0.086789, Final residual = 9.51255e-07, No Iterations 555
linear solve p 2319015
time step continuity errors : sum local = 5.77563e-10, global = -2.44765e-21, cumulative = 6.8616e-20
nonePCG:  Solving for p, Initial residual = 0.0641279, Final residual = 9.72693e-07, No Iterations 553
linear solve p 2311530
time step continuity errors : sum local = 5.91377e-10, global = -2.81632e-20, cumulative = 4.04528e-20
ExecutionTime = 27.89 s  ClockTime = 28 s

Time = 0.00857143

Courant Number mean: 0.178874 max: 0.952386
DILUPBiCGStab:  Solving for Ux, Initial residual = 0.00157906, Final residual = 4.29138e-06, No Iterations 5
DILUPBiCGStab:  Solving for Uy, Initial residual = 0.00443631, Final residual = 9.91231e-06, No Iterations 5
DILUPBiCGStab:  Solving for Uz, Initial residual = 0.0114961, Final residual = 3.87754e-05, No Iterations 5
linear solve U 326146
nonePCG:  Solving for p, Initial residual = 0.0636334, Final residual = 9.42117e-07, No Iterations 550
linear solve p 2306892
time step continuity errors : sum local = 5.56705e-10, global = 9.40433e-21, cumulative = 4.98572e-20
nonePCG:  Solving for p, Initial residual = 0.0474818, Final residual = 9.80538e-07, No Iterations 548
linear solve p 2315865
time step continuity errors : sum local = 5.77447e-10, global = 9.65016e-21, cumulative = 5.95073e-20
ExecutionTime = 33.01 s  ClockTime = 33 s

Time = 0.01

Courant Number mean: 0.180014 max: 0.952713
DILUPBiCGStab:  Solving for Ux, Initial residual = 0.00137777, Final residual = 3.00497e-06, No Iterations 5
DILUPBiCGStab:  Solving for Uy, Initial residual = 0.00387062, Final residual = 8.11049e-06, No Iterations 5
DILUPBiCGStab:  Solving for Uz, Initial residual = 0.00901723, Final residual = 3.06662e-05, No Iterations 5
linear solve U 325387
nonePCG:  Solving for p, Initial residual = 0.0474044, Final residual = 9.61004e-07, No Iterations 547
linear solve p 2286557
time step continuity errors : sum local = 5.65417e-10, global = -2.90846e-20, cumulative = 3.04227e-20
nonePCG:  Solving for p, Initial residual = 0.0355041, Final residual = 9.98994e-07, No Iterations 545
linear solve p 2281508
time step continuity errors : sum local = 5.88118e-10, global = -2.45241e-20, cumulative = 5.89862e-21
ExecutionTime = 38.08 s  ClockTime = 39 s

Time = 0.0114286

Courant Number mean: 0.181045 max: 0.953038
DILUPBiCGStab:  Solving for Ux, Initial residual = 0.00121486, Final residual = 2.01121e-06, No Iterations 5
DILUPBiCGStab:  Solving for Uy, Initial residual = 0.00345405, Final residual = 6.14347e-06, No Iterations 5
DILUPBiCGStab:  Solving for Uz, Initial residual = 0.00785967, Final residual = 2.31856e-05, No Iterations 5
linear solve U 328736
nonePCG:  Solving for p, Initial residual = 0.0350944, Final residual = 9.89618e-07, No Iterations 544
linear solve p 2281053
time step continuity errors : sum local = 5.75136e-10, global = -6.90084e-21, cumulative = -1.00223e-21
nonePCG:  Solving for p, Initial residual = 0.0265495, Final residual = 9.29373e-07, No Iterations 543
linear solve p 2293998
time step continuity errors : sum local = 5.3949e-10, global = 1.46931e-20, cumulative = 1.36908e-20
ExecutionTime = 43.16 s  ClockTime = 44 s

Time = 0.0128571

Courant Number mean: 0.181976 max: 0.953292
DILUPBiCGStab:  Solving for Ux, Initial residual = 0.00107674, Final residual = 1.45079e-06, No Iterations 5
DILUPBiCGStab:  Solving for Uy, Initial residual = 0.00306253, Final residual = 4.4555e-06, No Iterations 5
DILUPBiCGStab:  Solving for Uz, Initial residual = 0.00652935, Final residual = 2.11632e-05, No Iterations 5
linear solve U 325379
nonePCG:  Solving for p, Initial residual = 0.0268318, Final residual = 9.52933e-07, No Iterations 540
linear solve p 2265682
time step continuity errors : sum local = 5.52566e-10, global = 1.8646e-20, cumulative = 3.23368e-20
nonePCG:  Solving for p, Initial residual = 0.0204001, Final residual = 9.54659e-07, No Iterations 537
linear solve p 2247556
time step continuity errors : sum local = 5.53751e-10, global = 1.1994e-20, cumulative = 4.43308e-20
ExecutionTime = 48.18 s  ClockTime = 49 s

Time = 0.0142857

Courant Number mean: 0.182821 max: 0.953549
DILUPBiCGStab:  Solving for Ux, Initial residual = 0.000963111, Final residual = 1.08101e-06, No Iterations 5
DILUPBiCGStab:  Solving for Uy, Initial residual = 0.00277209, Final residual = 3.39758e-06, No Iterations 5
DILUPBiCGStab:  Solving for Uz, Initial residual = 0.00580701, Final residual = 1.56254e-05, No Iterations 5
linear solve U 326503
nonePCG:  Solving for p, Initial residual = 0.0200686, Final residual = 9.99189e-07, No Iterations 535
linear solve p 2244698
time step continuity errors : sum local = 5.76095e-10, global = 3.00771e-20, cumulative = 7.44079e-20
nonePCG:  Solving for p, Initial residual = 0.0154265, Final residual = 9.84608e-07, No Iterations 533
linear solve p 2251398
time step continuity errors : sum local = 5.6747e-10, global = -1.59469e-20, cumulative = 5.8461e-20
ExecutionTime = 53.18 s  ClockTime = 54 s

End

