/*---------------------------------------------------------------------------*\
  =========                 |
  \\      /  F ield         | OpenFOAM: The Open Source CFD Toolbox
   \\    /   O peration     | Website:  https://openfoam.org
    \\  /    A nd           | Version:  8
     \\/     M anipulation  |
\*---------------------------------------------------------------------------*/
Build  : 8-ef60d22ea792
Exec   : icoFoam
Date   : Sep 15 2021
Time   : 13:42:51
Host   : "uc2n482.localdomain"
PID    : 3636215
I/O    : uncollated
Case   : /pfs/data5/home/kit/scc/nq7776/data/code/OBR/lidDrivenCavity3D/Variation_init/100/Variation_mesh/65/Variation_matrix_solver/BiCGStab_BJ_CUDA/1631706158
nProcs : 1
sigFpe : Enabling floating point exception trapping (FOAM_SIGFPE).
fileModificationChecking : Monitoring run-time modified files using timeStampMaster (fileModificationSkew 10)
allowSystemOperations : Allowing user-supplied system call operations

// * * * * * * * * * * * * * * * * * * * * * * * * * * * * * * * * * * * * * //
Create time

Create mesh for time = 0

Reading transportProperties

Reading field p

Reading field U

Reading/calculating face flux field phi


Starting time loop

Time = 0.00153846

Courant Number mean: 0.17093 max: 0.953778
DILUPBiCGStab:  Solving for Ux, Initial residual = 0.112594, Final residual = 8.25037e-05, No Iterations 5
DILUPBiCGStab:  Solving for Uy, Initial residual = 0.214167, Final residual = 0.00019351, No Iterations 5
DILUPBiCGStab:  Solving for Uz, Initial residual = 0.265767, Final residual = 0.000360103, No Iterations 5
linear solve U 283440
[OGL LOG] init_host_sparsity_pattern : 77 ms
[OGL LOG] matrix not stored update host matrix
[OGL LOG] update_host_mtx : 43 ms
[OGL LOG] matrix is not yet sorted, compute sorting idxs
[OGL LOG] compute_sort : 2474 ms
[OGL LOG] matrix is not yet sorted, sorting host matrix
[OGL LOG] sort_host_mtx_sparsity_pattern : 54 ms
[OGL LOG] sort_host_mtx : 30 ms
[OGL LOG] init_preconditioner : 30 ms
[OGL LOG] solve : 387 ms
BJcudaGKOBiCGStab:  Solving for p, Initial residual = 0.554571, Final residual = 8.40425e-07, No Iterations 353
linear solve p 3881482
time step continuity errors : sum local = 2.30647e-06, global = 2.12626e-20, cumulative = 2.12626e-20
[OGL LOG] init_preconditioner : 0 ms
[OGL LOG] solve : 361 ms
BJcudaGKOBiCGStab:  Solving for p, Initial residual = 0.329846, Final residual = 8.64982e-07, No Iterations 331
linear solve p 370838
time step continuity errors : sum local = 1.69738e-06, global = -8.67075e-21, cumulative = 1.25919e-20
ExecutionTime = 5.98 s  ClockTime = 6 s

Time = 0.00307692

Courant Number mean: 0.173153 max: 0.946982
DILUPBiCGStab:  Solving for Ux, Initial residual = 0.00646134, Final residual = 2.9108e-05, No Iterations 5
DILUPBiCGStab:  Solving for Uy, Initial residual = 0.0152939, Final residual = 6.58923e-05, No Iterations 5
DILUPBiCGStab:  Solving for Uz, Initial residual = 0.0487435, Final residual = 0.000298019, No Iterations 5
linear solve U 264159
[OGL LOG] init_preconditioner : 0 ms
[OGL LOG] solve : 355 ms
BJcudaGKOBiCGStab:  Solving for p, Initial residual = 0.26675, Final residual = 5.83033e-07, No Iterations 324
linear solve p 363787
time step continuity errors : sum local = 2.58285e-07, global = 4.39806e-21, cumulative = 1.69899e-20
[OGL LOG] init_preconditioner : 0 ms
[OGL LOG] solve : 337 ms
BJcudaGKOBiCGStab:  Solving for p, Initial residual = 0.216901, Final residual = 9.00314e-07, No Iterations 310
linear solve p 345852
time step continuity errors : sum local = 1.33718e-06, global = 8.86519e-21, cumulative = 2.58551e-20
ExecutionTime = 7.12 s  ClockTime = 7 s

Time = 0.00461538

Courant Number mean: 0.174968 max: 0.947874
DILUPBiCGStab:  Solving for Ux, Initial residual = 0.00331087, Final residual = 1.28454e-05, No Iterations 5
DILUPBiCGStab:  Solving for Uy, Initial residual = 0.00811051, Final residual = 2.89772e-05, No Iterations 5
DILUPBiCGStab:  Solving for Uz, Initial residual = 0.0339434, Final residual = 0.000191718, No Iterations 5
linear solve U 256314
[OGL LOG] init_preconditioner : 0 ms
[OGL LOG] solve : 332 ms
BJcudaGKOBiCGStab:  Solving for p, Initial residual = 0.177806, Final residual = 8.1039e-07, No Iterations 305
linear solve p 342430
time step continuity errors : sum local = 2.47475e-07, global = -2.99547e-20, cumulative = -4.09961e-21
[OGL LOG] init_preconditioner : 0 ms
[OGL LOG] solve : 351 ms
BJcudaGKOBiCGStab:  Solving for p, Initial residual = 0.143349, Final residual = 8.66237e-07, No Iterations 324
linear solve p 359733
time step continuity errors : sum local = 1.93983e-06, global = -2.07132e-20, cumulative = -2.48129e-20
ExecutionTime = 8.25 s  ClockTime = 8 s

Time = 0.00615385

Courant Number mean: 0.176518 max: 0.94811
DILUPBiCGStab:  Solving for Ux, Initial residual = 0.00229965, Final residual = 8.48568e-06, No Iterations 5
DILUPBiCGStab:  Solving for Uy, Initial residual = 0.00670817, Final residual = 1.83652e-05, No Iterations 5
DILUPBiCGStab:  Solving for Uz, Initial residual = 0.030415, Final residual = 0.000157503, No Iterations 5
linear solve U 261320
[OGL LOG] init_preconditioner : 0 ms
[OGL LOG] solve : 360 ms
BJcudaGKOBiCGStab:  Solving for p, Initial residual = 0.133331, Final residual = 5.22655e-07, No Iterations 330
linear solve p 369793
time step continuity errors : sum local = 1.38467e-06, global = 1.03272e-20, cumulative = -1.44857e-20
[OGL LOG] init_preconditioner : 0 ms
[OGL LOG] solve : 350 ms
BJcudaGKOBiCGStab:  Solving for p, Initial residual = 0.106639, Final residual = 9.80871e-07, No Iterations 325
linear solve p 359032
time step continuity errors : sum local = 3.83182e-07, global = 4.50072e-20, cumulative = 3.05215e-20
ExecutionTime = 9.41 s  ClockTime = 9 s

Time = 0.00769231

Courant Number mean: 0.177971 max: 0.948443
DILUPBiCGStab:  Solving for Ux, Initial residual = 0.00195051, Final residual = 6.6038e-06, No Iterations 5
DILUPBiCGStab:  Solving for Uy, Initial residual = 0.00524911, Final residual = 1.3604e-05, No Iterations 5
DILUPBiCGStab:  Solving for Uz, Initial residual = 0.0257962, Final residual = 0.000131304, No Iterations 5
linear solve U 256777
[OGL LOG] init_preconditioner : 0 ms
[OGL LOG] solve : 186 ms
BJcudaGKOBiCGStab:  Solving for p, Initial residual = 0.100489, Final residual = 8.06338e-07, No Iterations 171
linear solve p 195668
time step continuity errors : sum local = 2.48091e-07, global = 3.09289e-20, cumulative = 6.14504e-20
[OGL LOG] init_preconditioner : 0 ms
[OGL LOG] solve : 177 ms
BJcudaGKOBiCGStab:  Solving for p, Initial residual = 0.0812131, Final residual = 9.20161e-07, No Iterations 160
linear solve p 185930
time step continuity errors : sum local = 2.474e-07, global = 6.94445e-20, cumulative = 1.30895e-19
ExecutionTime = 10.2 s  ClockTime = 10 s

Time = 0.00923077

Courant Number mean: 0.179261 max: 0.949024
DILUPBiCGStab:  Solving for Ux, Initial residual = 0.00160399, Final residual = 5.25634e-06, No Iterations 5
DILUPBiCGStab:  Solving for Uy, Initial residual = 0.00456942, Final residual = 9.19703e-06, No Iterations 5
DILUPBiCGStab:  Solving for Uz, Initial residual = 0.0209922, Final residual = 7.45054e-05, No Iterations 5
linear solve U 269910
[OGL LOG] init_preconditioner : 0 ms
[OGL LOG] solve : 309 ms
BJcudaGKOBiCGStab:  Solving for p, Initial residual = 0.0741924, Final residual = 9.99327e-07, No Iterations 282
linear solve p 318940
time step continuity errors : sum local = 2.46978e-07, global = 4.53752e-21, cumulative = 1.35432e-19
[OGL LOG] init_preconditioner : 0 ms
[OGL LOG] solve : 159 ms
BJcudaGKOBiCGStab:  Solving for p, Initial residual = 0.0602241, Final residual = 9.37609e-07, No Iterations 143
linear solve p 168229
time step continuity errors : sum local = 2.47134e-07, global = 9.948e-21, cumulative = 1.4538e-19
ExecutionTime = 11.13 s  ClockTime = 11 s

Time = 0.0107692

Courant Number mean: 0.180428 max: 0.949207
DILUPBiCGStab:  Solving for Ux, Initial residual = 0.00140775, Final residual = 4.23824e-06, No Iterations 5
DILUPBiCGStab:  Solving for Uy, Initial residual = 0.00392438, Final residual = 6.21811e-06, No Iterations 5
DILUPBiCGStab:  Solving for Uz, Initial residual = 0.0157483, Final residual = 4.9734e-05, No Iterations 5
linear solve U 256044
[OGL LOG] init_preconditioner : 0 ms
[OGL LOG] solve : 170 ms
BJcudaGKOBiCGStab:  Solving for p, Initial residual = 0.0551683, Final residual = 9.73183e-07, No Iterations 156
linear solve p 179501
time step continuity errors : sum local = 2.46738e-07, global = 4.38465e-20, cumulative = 1.89227e-19
[OGL LOG] init_preconditioner : 0 ms
[OGL LOG] solve : 192 ms
BJcudaGKOBiCGStab:  Solving for p, Initial residual = 0.0444438, Final residual = 9.26152e-07, No Iterations 177
linear solve p 201206
time step continuity errors : sum local = 2.47075e-07, global = 1.19134e-21, cumulative = 1.90418e-19
ExecutionTime = 11.93 s  ClockTime = 12 s

Time = 0.0123077

Courant Number mean: 0.181475 max: 0.94963
DILUPBiCGStab:  Solving for Ux, Initial residual = 0.00121937, Final residual = 3.14867e-06, No Iterations 5
DILUPBiCGStab:  Solving for Uy, Initial residual = 0.00347578, Final residual = 4.49963e-06, No Iterations 5
DILUPBiCGStab:  Solving for Uz, Initial residual = 0.0125508, Final residual = 3.52726e-05, No Iterations 5
linear solve U 257736
[OGL LOG] init_preconditioner : 0 ms
[OGL LOG] solve : 167 ms
BJcudaGKOBiCGStab:  Solving for p, Initial residual = 0.0415916, Final residual = 9.98107e-07, No Iterations 153
linear solve p 176266
time step continuity errors : sum local = 2.47039e-07, global = -2.98602e-20, cumulative = 1.60558e-19
[OGL LOG] init_preconditioner : 0 ms
[OGL LOG] solve : 159 ms
BJcudaGKOBiCGStab:  Solving for p, Initial residual = 0.033622, Final residual = 9.44981e-07, No Iterations 145
linear solve p 167847
time step continuity errors : sum local = 2.47e-07, global = -2.39071e-20, cumulative = 1.36651e-19
ExecutionTime = 12.7 s  ClockTime = 13 s

Time = 0.0138462

Courant Number mean: 0.182417 max: 0.949846
DILUPBiCGStab:  Solving for Ux, Initial residual = 0.00108393, Final residual = 2.39731e-06, No Iterations 5
DILUPBiCGStab:  Solving for Uy, Initial residual = 0.00306703, Final residual = 3.31436e-06, No Iterations 5
DILUPBiCGStab:  Solving for Uz, Initial residual = 0.00991217, Final residual = 2.28406e-05, No Iterations 5
linear solve U 259154
[OGL LOG] init_preconditioner : 0 ms
[OGL LOG] solve : 171 ms
BJcudaGKOBiCGStab:  Solving for p, Initial residual = 0.0314514, Final residual = 8.94436e-07, No Iterations 151
linear solve p 181317
time step continuity errors : sum local = 2.488e-07, global = -1.88499e-20, cumulative = 1.17801e-19
[OGL LOG] init_preconditioner : 0 ms
[OGL LOG] solve : 165 ms
BJcudaGKOBiCGStab:  Solving for p, Initial residual = 0.0252825, Final residual = 9.6128e-07, No Iterations 151
linear solve p 173995
time step continuity errors : sum local = 2.48744e-07, global = 9.90807e-21, cumulative = 1.27709e-19
ExecutionTime = 13.49 s  ClockTime = 13 s

Time = 0.0153846

Courant Number mean: 0.183267 max: 0.95015
DILUPBiCGStab:  Solving for Ux, Initial residual = 0.000958932, Final residual = 1.63796e-06, No Iterations 5
DILUPBiCGStab:  Solving for Uy, Initial residual = 0.00274919, Final residual = 2.34516e-06, No Iterations 5
DILUPBiCGStab:  Solving for Uz, Initial residual = 0.00816259, Final residual = 1.38093e-05, No Iterations 5
linear solve U 257848
[OGL LOG] init_preconditioner : 0 ms
[OGL LOG] solve : 159 ms
BJcudaGKOBiCGStab:  Solving for p, Initial residual = 0.024028, Final residual = 9.20365e-07, No Iterations 145
linear solve p 167855
time step continuity errors : sum local = 2.47797e-07, global = -2.8769e-20, cumulative = 9.894e-20
[OGL LOG] init_preconditioner : 0 ms
[OGL LOG] solve : 145 ms
BJcudaGKOBiCGStab:  Solving for p, Initial residual = 0.0194293, Final residual = 9.77513e-07, No Iterations 132
linear solve p 154188
time step continuity errors : sum local = 2.47142e-07, global = -1.07465e-20, cumulative = 8.81935e-20
ExecutionTime = 14.23 s  ClockTime = 14 s

End

