/*---------------------------------------------------------------------------*\
  =========                 |
  \\      /  F ield         | OpenFOAM: The Open Source CFD Toolbox
   \\    /   O peration     | Website:  https://openfoam.org
    \\  /    A nd           | Version:  8
     \\/     M anipulation  |
\*---------------------------------------------------------------------------*/
Build  : 8-ef60d22ea792
Exec   : icoFoam
Date   : Sep 15 2021
Time   : 14:02:56
Host   : "uc2n482.localdomain"
PID    : 3639619
I/O    : uncollated
Case   : /pfs/data5/home/kit/scc/nq7776/data/code/OBR/lidDrivenCavity3D/Variation_init/100/Variation_mesh/30/Variation_matrix_solver/BiCGStab_ILU_CUDA/1631707373
nProcs : 1
sigFpe : Enabling floating point exception trapping (FOAM_SIGFPE).
fileModificationChecking : Monitoring run-time modified files using timeStampMaster (fileModificationSkew 10)
allowSystemOperations : Allowing user-supplied system call operations

// * * * * * * * * * * * * * * * * * * * * * * * * * * * * * * * * * * * * * //
Create time

Create mesh for time = 0

Reading transportProperties

Reading field p

Reading field U

Reading/calculating face flux field phi


Starting time loop

Time = 0.00333333

Courant Number mean: 0.169907 max: 0.893517
DILUPBiCGStab:  Solving for Ux, Initial residual = 0.0911511, Final residual = 3.95829e-06, No Iterations 5
DILUPBiCGStab:  Solving for Uy, Initial residual = 0.158672, Final residual = 5.65407e-06, No Iterations 5
DILUPBiCGStab:  Solving for Uz, Initial residual = 0.266117, Final residual = 9.88141e-06, No Iterations 5
linear solve U 19915
[OGL LOG] init_host_sparsity_pattern : 7 ms
[OGL LOG] matrix not stored update host matrix
[OGL LOG] update_host_mtx : 3 ms
[OGL LOG] matrix is not yet sorted, compute sorting idxs
[OGL LOG] compute_sort : 202 ms
[OGL LOG] matrix is not yet sorted, sorting host matrix
[OGL LOG] sort_host_mtx_sparsity_pattern : 5 ms
[OGL LOG] sort_host_mtx : 2 ms
[OGL LOG] init_preconditioner : 12 ms
[OGL LOG] solve : 56 ms
ILUcudaGKOBiCGStab:  Solving for p, Initial residual = 0.542954, Final residual = 7.7654e-07, No Iterations 56
linear solve p 1044307
time step continuity errors : sum local = 3.68242e-09, global = 6.61801e-20, cumulative = 6.61801e-20
[OGL LOG] init_preconditioner : 0 ms
[OGL LOG] solve : 61 ms
ILUcudaGKOBiCGStab:  Solving for p, Initial residual = 0.318921, Final residual = 9.6759e-07, No Iterations 62
linear solve p 61989
time step continuity errors : sum local = 2.99994e-09, global = 4.31421e-20, cumulative = 1.09322e-19
ExecutionTime = 1.27 s  ClockTime = 1 s

Time = 0.00666667

Courant Number mean: 0.173776 max: 0.888266
DILUPBiCGStab:  Solving for Ux, Initial residual = 0.0119484, Final residual = 2.97191e-06, No Iterations 5
DILUPBiCGStab:  Solving for Uy, Initial residual = 0.0223253, Final residual = 3.40089e-06, No Iterations 5
DILUPBiCGStab:  Solving for Uz, Initial residual = 0.0596879, Final residual = 5.28021e-06, No Iterations 5
linear solve U 22910
[OGL LOG] init_preconditioner : 0 ms
[OGL LOG] solve : 62 ms
ILUcudaGKOBiCGStab:  Solving for p, Initial residual = 0.156723, Final residual = 2.71952e-07, No Iterations 63
linear solve p 63674
time step continuity errors : sum local = 9.92243e-07, global = 8.61429e-20, cumulative = 1.95465e-19
[OGL LOG] init_preconditioner : 0 ms
[OGL LOG] solve : 57 ms
ILUcudaGKOBiCGStab:  Solving for p, Initial residual = 0.0960154, Final residual = 7.70562e-07, No Iterations 58
linear solve p 58246
time step continuity errors : sum local = 8.86651e-07, global = 1.69854e-19, cumulative = 3.65319e-19
ExecutionTime = 1.43 s  ClockTime = 1 s

Time = 0.01

Courant Number mean: 0.176716 max: 0.888542
DILUPBiCGStab:  Solving for Ux, Initial residual = 0.00409282, Final residual = 6.70305e-07, No Iterations 5
DILUPBiCGStab:  Solving for Uy, Initial residual = 0.00964186, Final residual = 1.18597e-06, No Iterations 5
DILUPBiCGStab:  Solving for Uz, Initial residual = 0.0232406, Final residual = 3.0774e-06, No Iterations 5
linear solve U 18303
[OGL LOG] init_preconditioner : 0 ms
[OGL LOG] solve : 55 ms
ILUcudaGKOBiCGStab:  Solving for p, Initial residual = 0.0542683, Final residual = 5.09591e-07, No Iterations 56
linear solve p 56703
time step continuity errors : sum local = 8.68548e-07, global = 1.76641e-20, cumulative = 3.82983e-19
[OGL LOG] init_preconditioner : 0 ms
[OGL LOG] solve : 55 ms
ILUcudaGKOBiCGStab:  Solving for p, Initial residual = 0.0362401, Final residual = 2.51588e-07, No Iterations 56
linear solve p 56331
time step continuity errors : sum local = 8.81239e-07, global = -1.18154e-20, cumulative = 3.71168e-19
ExecutionTime = 1.58 s  ClockTime = 2 s

Time = 0.0133333

Courant Number mean: 0.179156 max: 0.890256
DILUPBiCGStab:  Solving for Ux, Initial residual = 0.00297549, Final residual = 3.26014e-07, No Iterations 5
DILUPBiCGStab:  Solving for Uy, Initial residual = 0.00703721, Final residual = 6.19647e-07, No Iterations 5
DILUPBiCGStab:  Solving for Uz, Initial residual = 0.0128703, Final residual = 1.19031e-06, No Iterations 5
linear solve U 17382
[OGL LOG] init_preconditioner : 0 ms
[OGL LOG] solve : 52 ms
ILUcudaGKOBiCGStab:  Solving for p, Initial residual = 0.0253461, Final residual = 8.75137e-07, No Iterations 53
linear solve p 53310
time step continuity errors : sum local = 8.8398e-07, global = -4.0887e-20, cumulative = 3.30281e-19
[OGL LOG] init_preconditioner : 0 ms
[OGL LOG] solve : 52 ms
ILUcudaGKOBiCGStab:  Solving for p, Initial residual = 0.0181712, Final residual = 7.12675e-07, No Iterations 54
linear solve p 53506
time step continuity errors : sum local = 8.82371e-07, global = -4.36369e-20, cumulative = 2.86644e-19
ExecutionTime = 1.71 s  ClockTime = 2 s

Time = 0.0166667

Courant Number mean: 0.181129 max: 0.891457
DILUPBiCGStab:  Solving for Ux, Initial residual = 0.00228089, Final residual = 2.37418e-07, No Iterations 5
DILUPBiCGStab:  Solving for Uy, Initial residual = 0.00534364, Final residual = 4.68767e-07, No Iterations 5
DILUPBiCGStab:  Solving for Uz, Initial residual = 0.00927687, Final residual = 5.69162e-07, No Iterations 5
linear solve U 21208
[OGL LOG] init_preconditioner : 0 ms
[OGL LOG] solve : 55 ms
ILUcudaGKOBiCGStab:  Solving for p, Initial residual = 0.0142899, Final residual = 1.17343e-07, No Iterations 56
linear solve p 56101
time step continuity errors : sum local = 8.80195e-07, global = 9.42262e-20, cumulative = 3.8087e-19
[OGL LOG] init_preconditioner : 0 ms
[OGL LOG] solve : 51 ms
ILUcudaGKOBiCGStab:  Solving for p, Initial residual = 0.0104766, Final residual = 9.38098e-07, No Iterations 52
linear solve p 52291
time step continuity errors : sum local = 8.81951e-07, global = 9.40615e-20, cumulative = 4.74932e-19
ExecutionTime = 1.85 s  ClockTime = 2 s

Time = 0.02

Courant Number mean: 0.182723 max: 0.892518
DILUPBiCGStab:  Solving for Ux, Initial residual = 0.00179235, Final residual = 1.43191e-07, No Iterations 5
DILUPBiCGStab:  Solving for Uy, Initial residual = 0.00435015, Final residual = 3.47983e-07, No Iterations 5
DILUPBiCGStab:  Solving for Uz, Initial residual = 0.00736556, Final residual = 4.37157e-07, No Iterations 5
linear solve U 17477
[OGL LOG] init_preconditioner : 0 ms
[OGL LOG] solve : 50 ms
ILUcudaGKOBiCGStab:  Solving for p, Initial residual = 0.00820949, Final residual = 7.26707e-07, No Iterations 51
linear solve p 51214
time step continuity errors : sum local = 8.81273e-07, global = -1.18759e-20, cumulative = 4.63056e-19
[OGL LOG] init_preconditioner : 0 ms
[OGL LOG] solve : 47 ms
ILUcudaGKOBiCGStab:  Solving for p, Initial residual = 0.00653763, Final residual = 8.27868e-07, No Iterations 48
linear solve p 48440
time step continuity errors : sum local = 8.81905e-07, global = 7.07053e-20, cumulative = 5.33761e-19
ExecutionTime = 1.98 s  ClockTime = 2 s

Time = 0.0233333

Courant Number mean: 0.184011 max: 0.893289
DILUPBiCGStab:  Solving for Ux, Initial residual = 0.00143711, Final residual = 1.09441e-07, No Iterations 5
DILUPBiCGStab:  Solving for Uy, Initial residual = 0.00347928, Final residual = 2.42901e-07, No Iterations 5
DILUPBiCGStab:  Solving for Uz, Initial residual = 0.00575485, Final residual = 2.60119e-07, No Iterations 5
linear solve U 17377
[OGL LOG] init_preconditioner : 0 ms
[OGL LOG] solve : 44 ms
ILUcudaGKOBiCGStab:  Solving for p, Initial residual = 0.00545103, Final residual = 5.2526e-07, No Iterations 45
linear solve p 45463
time step continuity errors : sum local = 8.81668e-07, global = 6.03139e-20, cumulative = 5.94075e-19
[OGL LOG] init_preconditioner : 0 ms
[OGL LOG] solve : 46 ms
ILUcudaGKOBiCGStab:  Solving for p, Initial residual = 0.00442377, Final residual = 6.97176e-07, No Iterations 47
linear solve p 47318
time step continuity errors : sum local = 8.81865e-07, global = -2.57963e-20, cumulative = 5.68279e-19
ExecutionTime = 2.1 s  ClockTime = 2 s

Time = 0.0266667

Courant Number mean: 0.185057 max: 0.893926
DILUPBiCGStab:  Solving for Ux, Initial residual = 0.00115902, Final residual = 5.40338e-08, No Iterations 5
DILUPBiCGStab:  Solving for Uy, Initial residual = 0.00285471, Final residual = 1.87573e-07, No Iterations 5
DILUPBiCGStab:  Solving for Uz, Initial residual = 0.00465779, Final residual = 2.31534e-07, No Iterations 5
linear solve U 17432
[OGL LOG] init_preconditioner : 0 ms
[OGL LOG] solve : 50 ms
ILUcudaGKOBiCGStab:  Solving for p, Initial residual = 0.00385847, Final residual = 9.45025e-07, No Iterations 50
linear solve p 51410
time step continuity errors : sum local = 8.81547e-07, global = -5.51337e-20, cumulative = 5.13145e-19
[OGL LOG] init_preconditioner : 0 ms
[OGL LOG] solve : 47 ms
ILUcudaGKOBiCGStab:  Solving for p, Initial residual = 0.00327641, Final residual = 6.40506e-07, No Iterations 48
linear solve p 48205
time step continuity errors : sum local = 8.81658e-07, global = 1.9649e-20, cumulative = 5.32794e-19
ExecutionTime = 2.24 s  ClockTime = 2 s

Time = 0.03

Courant Number mean: 0.185908 max: 0.894414
DILUPBiCGStab:  Solving for Ux, Initial residual = 0.000942615, Final residual = 5.12654e-08, No Iterations 5
DILUPBiCGStab:  Solving for Uy, Initial residual = 0.00232467, Final residual = 1.37594e-07, No Iterations 5
DILUPBiCGStab:  Solving for Uz, Initial residual = 0.00370602, Final residual = 1.71992e-07, No Iterations 5
linear solve U 17471
[OGL LOG] init_preconditioner : 0 ms
[OGL LOG] solve : 46 ms
ILUcudaGKOBiCGStab:  Solving for p, Initial residual = 0.00291419, Final residual = 7.64088e-07, No Iterations 47
linear solve p 46873
time step continuity errors : sum local = 8.81808e-07, global = -4.78862e-20, cumulative = 4.84908e-19
[OGL LOG] init_preconditioner : 0 ms
[OGL LOG] solve : 45 ms
ILUcudaGKOBiCGStab:  Solving for p, Initial residual = 0.00251322, Final residual = 5.99797e-07, No Iterations 46
linear solve p 46299
time step continuity errors : sum local = 8.81826e-07, global = -9.83466e-21, cumulative = 4.75073e-19
ExecutionTime = 2.35 s  ClockTime = 2 s

Time = 0.0333333

Courant Number mean: 0.186602 max: 0.894809
DILUPBiCGStab:  Solving for Ux, Initial residual = 0.000767451, Final residual = 2.93513e-08, No Iterations 5
DILUPBiCGStab:  Solving for Uy, Initial residual = 0.0019143, Final residual = 1.25961e-07, No Iterations 5
DILUPBiCGStab:  Solving for Uz, Initial residual = 0.00299652, Final residual = 1.47304e-07, No Iterations 5
linear solve U 17728
[OGL LOG] init_preconditioner : 0 ms
[OGL LOG] solve : 39 ms
ILUcudaGKOBiCGStab:  Solving for p, Initial residual = 0.00225496, Final residual = 8.34077e-07, No Iterations 40
linear solve p 40154
time step continuity errors : sum local = 8.83729e-07, global = 1.92608e-19, cumulative = 6.67681e-19
[OGL LOG] init_preconditioner : 0 ms
[OGL LOG] solve : 22 ms
ILUcudaGKOBiCGStab:  Solving for p, Initial residual = 0.00197897, Final residual = 9.51747e-07, No Iterations 22
linear solve p 23139
time step continuity errors : sum local = 8.8464e-07, global = -3.87253e-20, cumulative = 6.28956e-19
ExecutionTime = 2.45 s  ClockTime = 2 s

End

