/*---------------------------------------------------------------------------*\
  =========                 |
  \\      /  F ield         | OpenFOAM: The Open Source CFD Toolbox
   \\    /   O peration     | Website:  https://openfoam.org
    \\  /    A nd           | Version:  8
     \\/     M anipulation  |
\*---------------------------------------------------------------------------*/
Build  : 8-ef60d22ea792
Exec   : icoFoam
Date   : Sep 15 2021
Time   : 14:37:24
Host   : "uc2n482.localdomain"
PID    : 3652051
I/O    : uncollated
Case   : /pfs/data5/home/kit/scc/nq7776/data/code/OBR/lidDrivenCavity3D/Variation_init/100/Variation_mesh/80/Variation_matrix_solver/CG_BJ_CUDA/Variation_maxBlockSize/1/1631709424
nProcs : 1
sigFpe : Enabling floating point exception trapping (FOAM_SIGFPE).
fileModificationChecking : Monitoring run-time modified files using timeStampMaster (fileModificationSkew 10)
allowSystemOperations : Allowing user-supplied system call operations

// * * * * * * * * * * * * * * * * * * * * * * * * * * * * * * * * * * * * * //
Create time

Create mesh for time = 0

Reading transportProperties

Reading field p

Reading field U

Reading/calculating face flux field phi


Starting time loop

Time = 0.00125

Courant Number mean: 0.170872 max: 0.956305
DILUPBiCGStab:  Solving for Ux, Initial residual = 0.0907333, Final residual = 0.00013873, No Iterations 5
DILUPBiCGStab:  Solving for Uy, Initial residual = 0.175752, Final residual = 0.000395244, No Iterations 5
DILUPBiCGStab:  Solving for Uz, Initial residual = 0.2223, Final residual = 0.000391641, No Iterations 5
linear solve U 538720
[OGL LOG] init_host_sparsity_pattern : 153 ms
[OGL LOG] matrix not stored update host matrix
[OGL LOG] update_host_mtx : 83 ms
[OGL LOG] matrix is not yet sorted, compute sorting idxs
[OGL LOG] compute_sort : 4671 ms
[OGL LOG] matrix is not yet sorted, sorting host matrix
[OGL LOG] sort_host_mtx_sparsity_pattern : 107 ms
[OGL LOG] sort_host_mtx : 66 ms
[OGL LOG] init_preconditioner : 1 ms
[OGL LOG] solve : 481 ms
BJcudaGKOCG:  Solving for p, Initial residual = 0.619793, Final residual = 9.66329e-07, No Iterations 650
linear solve p 6364006
time step continuity errors : sum local = 7.98052e-10, global = -5.84284e-21, cumulative = -5.84284e-21
[OGL LOG] init_preconditioner : 0 ms
[OGL LOG] solve : 485 ms
BJcudaGKOCG:  Solving for p, Initial residual = 0.305886, Final residual = 9.67656e-07, No Iterations 650
linear solve p 501059
time step continuity errors : sum local = 6.38096e-10, global = 6.17702e-21, cumulative = 3.34179e-22
ExecutionTime = 9.97 s  ClockTime = 10 s

Time = 0.0025

Courant Number mean: 0.172587 max: 0.956625
DILUPBiCGStab:  Solving for Ux, Initial residual = 0.00609836, Final residual = 2.52817e-05, No Iterations 5
DILUPBiCGStab:  Solving for Uy, Initial residual = 0.0152778, Final residual = 8.34406e-05, No Iterations 5
DILUPBiCGStab:  Solving for Uz, Initial residual = 0.0343266, Final residual = 0.000455125, No Iterations 5
linear solve U 501103
[OGL LOG] init_preconditioner : 0 ms
[OGL LOG] solve : 484 ms
BJcudaGKOCG:  Solving for p, Initial residual = 0.304274, Final residual = 9.6357e-07, No Iterations 654
linear solve p 500338
time step continuity errors : sum local = 7.9253e-08, global = 2.49241e-20, cumulative = 2.52582e-20
[OGL LOG] init_preconditioner : 0 ms
[OGL LOG] solve : 487 ms
BJcudaGKOCG:  Solving for p, Initial residual = 0.186321, Final residual = 9.53976e-07, No Iterations 652
linear solve p 503853
time step continuity errors : sum local = 7.67125e-08, global = 1.8906e-20, cumulative = 4.41642e-20
ExecutionTime = 11.78 s  ClockTime = 12 s

Time = 0.00375

Courant Number mean: 0.174167 max: 0.956979
DILUPBiCGStab:  Solving for Ux, Initial residual = 0.00272596, Final residual = 1.98742e-05, No Iterations 5
DILUPBiCGStab:  Solving for Uy, Initial residual = 0.00797017, Final residual = 4.87006e-05, No Iterations 5
DILUPBiCGStab:  Solving for Uz, Initial residual = 0.0231327, Final residual = 0.000236745, No Iterations 5
linear solve U 508477
[OGL LOG] init_preconditioner : 0 ms
[OGL LOG] solve : 490 ms
BJcudaGKOCG:  Solving for p, Initial residual = 0.175565, Final residual = 9.76655e-07, No Iterations 652
linear solve p 507881
time step continuity errors : sum local = 7.81566e-08, global = -1.72444e-20, cumulative = 2.69198e-20
[OGL LOG] init_preconditioner : 0 ms
[OGL LOG] solve : 481 ms
BJcudaGKOCG:  Solving for p, Initial residual = 0.128458, Final residual = 9.88427e-07, No Iterations 648
linear solve p 497304
time step continuity errors : sum local = 7.64954e-08, global = -4.38658e-21, cumulative = 2.25332e-20
ExecutionTime = 13.59 s  ClockTime = 14 s

Time = 0.005

Courant Number mean: 0.175607 max: 0.957347
DILUPBiCGStab:  Solving for Ux, Initial residual = 0.00209245, Final residual = 1.42153e-05, No Iterations 5
DILUPBiCGStab:  Solving for Uy, Initial residual = 0.00664959, Final residual = 3.32676e-05, No Iterations 5
DILUPBiCGStab:  Solving for Uz, Initial residual = 0.0198723, Final residual = 0.000186915, No Iterations 5
linear solve U 494885
[OGL LOG] init_preconditioner : 0 ms
[OGL LOG] solve : 480 ms
BJcudaGKOCG:  Solving for p, Initial residual = 0.13121, Final residual = 9.54933e-07, No Iterations 640
linear solve p 498962
time step continuity errors : sum local = 7.56803e-08, global = -1.68092e-20, cumulative = 5.72399e-21
[OGL LOG] init_preconditioner : 0 ms
[OGL LOG] solve : 473 ms
BJcudaGKOCG:  Solving for p, Initial residual = 0.103885, Final residual = 9.59031e-07, No Iterations 638
linear solve p 489620
time step continuity errors : sum local = 7.6554e-08, global = 1.30468e-20, cumulative = 1.87708e-20
ExecutionTime = 15.39 s  ClockTime = 16 s

Time = 0.00625

Courant Number mean: 0.176919 max: 0.957715
DILUPBiCGStab:  Solving for Ux, Initial residual = 0.00180829, Final residual = 1.12383e-05, No Iterations 5
DILUPBiCGStab:  Solving for Uy, Initial residual = 0.005466, Final residual = 2.38181e-05, No Iterations 5
DILUPBiCGStab:  Solving for Uz, Initial residual = 0.0155373, Final residual = 0.00013609, No Iterations 5
linear solve U 496505
[OGL LOG] init_preconditioner : 0 ms
[OGL LOG] solve : 474 ms
BJcudaGKOCG:  Solving for p, Initial residual = 0.102546, Final residual = 9.57013e-07, No Iterations 635
linear solve p 490223
time step continuity errors : sum local = 7.72727e-08, global = -1.21656e-20, cumulative = 6.60511e-21
[OGL LOG] init_preconditioner : 0 ms
[OGL LOG] solve : 471 ms
BJcudaGKOCG:  Solving for p, Initial residual = 0.0820778, Final residual = 9.63383e-07, No Iterations 633
linear solve p 487390
time step continuity errors : sum local = 7.65257e-08, global = 9.19143e-21, cumulative = 1.57965e-20
ExecutionTime = 17.16 s  ClockTime = 17 s

Time = 0.0075

Courant Number mean: 0.178117 max: 0.95808
DILUPBiCGStab:  Solving for Ux, Initial residual = 0.00156865, Final residual = 9.33958e-06, No Iterations 5
DILUPBiCGStab:  Solving for Uy, Initial residual = 0.00480632, Final residual = 1.83351e-05, No Iterations 5
DILUPBiCGStab:  Solving for Uz, Initial residual = 0.0133347, Final residual = 9.97795e-05, No Iterations 5
linear solve U 496176
[OGL LOG] init_preconditioner : 0 ms
[OGL LOG] solve : 470 ms
BJcudaGKOCG:  Solving for p, Initial residual = 0.084109, Final residual = 9.89237e-07, No Iterations 629
linear solve p 485716
time step continuity errors : sum local = 7.61597e-08, global = -3.5155e-20, cumulative = -1.93585e-20
[OGL LOG] init_preconditioner : 0 ms
[OGL LOG] solve : 466 ms
BJcudaGKOCG:  Solving for p, Initial residual = 0.0682268, Final residual = 9.61469e-07, No Iterations 627
linear solve p 481899
time step continuity errors : sum local = 7.65336e-08, global = 2.1626e-20, cumulative = 2.26755e-21
ExecutionTime = 18.92 s  ClockTime = 19 s

Time = 0.00875

Courant Number mean: 0.179203 max: 0.958354
DILUPBiCGStab:  Solving for Ux, Initial residual = 0.00137904, Final residual = 7.58839e-06, No Iterations 5
DILUPBiCGStab:  Solving for Uy, Initial residual = 0.00418586, Final residual = 1.49321e-05, No Iterations 5
DILUPBiCGStab:  Solving for Uz, Initial residual = 0.0107647, Final residual = 6.69072e-05, No Iterations 5
linear solve U 501818
[OGL LOG] init_preconditioner : 0 ms
[OGL LOG] solve : 464 ms
BJcudaGKOCG:  Solving for p, Initial residual = 0.0688141, Final residual = 9.84621e-07, No Iterations 621
linear solve p 481152
time step continuity errors : sum local = 7.6833e-08, global = -2.83861e-20, cumulative = -2.61186e-20
[OGL LOG] init_preconditioner : 0 ms
[OGL LOG] solve : 461 ms
BJcudaGKOCG:  Solving for p, Initial residual = 0.0558631, Final residual = 9.4919e-07, No Iterations 622
linear solve p 476666
time step continuity errors : sum local = 7.65224e-08, global = -1.14634e-20, cumulative = -3.7582e-20
ExecutionTime = 20.68 s  ClockTime = 21 s

Time = 0.01

Courant Number mean: 0.180199 max: 0.958646
DILUPBiCGStab:  Solving for Ux, Initial residual = 0.00123651, Final residual = 6.64398e-06, No Iterations 5
DILUPBiCGStab:  Solving for Uy, Initial residual = 0.00372451, Final residual = 1.06868e-05, No Iterations 5
DILUPBiCGStab:  Solving for Uz, Initial residual = 0.00938566, Final residual = 5.1173e-05, No Iterations 5
linear solve U 500260
[OGL LOG] init_preconditioner : 0 ms
[OGL LOG] solve : 462 ms
BJcudaGKOCG:  Solving for p, Initial residual = 0.0568352, Final residual = 9.416e-07, No Iterations 621
linear solve p 477503
time step continuity errors : sum local = 7.63817e-08, global = -4.35087e-21, cumulative = -4.19328e-20
[OGL LOG] init_preconditioner : 0 ms
[OGL LOG] solve : 460 ms
BJcudaGKOCG:  Solving for p, Initial residual = 0.0464012, Final residual = 9.75738e-07, No Iterations 619
linear solve p 476306
time step continuity errors : sum local = 7.65267e-08, global = -1.70969e-20, cumulative = -5.90297e-20
ExecutionTime = 22.46 s  ClockTime = 23 s

Time = 0.01125

Courant Number mean: 0.181104 max: 0.958866
DILUPBiCGStab:  Solving for Ux, Initial residual = 0.00109737, Final residual = 5.11441e-06, No Iterations 5
DILUPBiCGStab:  Solving for Uy, Initial residual = 0.00332112, Final residual = 9.68098e-06, No Iterations 5
DILUPBiCGStab:  Solving for Uz, Initial residual = 0.00777873, Final residual = 3.55588e-05, No Iterations 5
linear solve U 498593
[OGL LOG] init_preconditioner : 0 ms
[OGL LOG] solve : 456 ms
BJcudaGKOCG:  Solving for p, Initial residual = 0.0471994, Final residual = 9.1664e-07, No Iterations 620
linear solve p 472400
time step continuity errors : sum local = 7.66374e-08, global = -6.04486e-21, cumulative = -6.50746e-20
[OGL LOG] init_preconditioner : 0 ms
[OGL LOG] solve : 449 ms
BJcudaGKOCG:  Solving for p, Initial residual = 0.0385702, Final residual = 9.57576e-07, No Iterations 618
linear solve p 465115
time step continuity errors : sum local = 7.65205e-08, global = 3.37267e-20, cumulative = -3.13479e-20
ExecutionTime = 24.19 s  ClockTime = 24 s

Time = 0.0125

Courant Number mean: 0.181936 max: 0.959099
DILUPBiCGStab:  Solving for Ux, Initial residual = 0.000997478, Final residual = 4.78121e-06, No Iterations 5
DILUPBiCGStab:  Solving for Uy, Initial residual = 0.00298584, Final residual = 6.76245e-06, No Iterations 5
DILUPBiCGStab:  Solving for Uz, Initial residual = 0.00690869, Final residual = 2.94009e-05, No Iterations 5
linear solve U 493744
[OGL LOG] init_preconditioner : 0 ms
[OGL LOG] solve : 262 ms
BJcudaGKOCG:  Solving for p, Initial residual = 0.0390471, Final residual = 9.75406e-07, No Iterations 360
linear solve p 278340
time step continuity errors : sum local = 7.64761e-08, global = -2.20048e-20, cumulative = -5.33527e-20
[OGL LOG] init_preconditioner : 0 ms
[OGL LOG] solve : 260 ms
BJcudaGKOCG:  Solving for p, Initial residual = 0.0320093, Final residual = 9.68381e-07, No Iterations 359
linear solve p 276201
time step continuity errors : sum local = 7.65444e-08, global = -1.24215e-20, cumulative = -6.57742e-20
ExecutionTime = 25.53 s  ClockTime = 26 s

End

