/*---------------------------------------------------------------------------*\
  =========                 |
  \\      /  F ield         | OpenFOAM: The Open Source CFD Toolbox
   \\    /   O peration     | Website:  https://openfoam.org
    \\  /    A nd           | Version:  8
     \\/     M anipulation  |
\*---------------------------------------------------------------------------*/
Build  : 8-ef60d22ea792
Exec   : icoFoam
Date   : Sep 15 2021
Time   : 14:02:30
Host   : "uc2n482.localdomain"
PID    : 3639194
I/O    : uncollated
Case   : /pfs/data5/home/kit/scc/nq7776/data/code/OBR/lidDrivenCavity3D/Variation_init/100/Variation_mesh/30/Variation_matrix_solver/CG_BJ_CUDA/Variation_maxBlockSize/16/1631707347
nProcs : 1
sigFpe : Enabling floating point exception trapping (FOAM_SIGFPE).
fileModificationChecking : Monitoring run-time modified files using timeStampMaster (fileModificationSkew 10)
allowSystemOperations : Allowing user-supplied system call operations

// * * * * * * * * * * * * * * * * * * * * * * * * * * * * * * * * * * * * * //
Create time

Create mesh for time = 0

Reading transportProperties

Reading field p

Reading field U

Reading/calculating face flux field phi


Starting time loop

Time = 0.00333333

Courant Number mean: 0.169907 max: 0.893517
DILUPBiCGStab:  Solving for Ux, Initial residual = 0.0911511, Final residual = 3.95829e-06, No Iterations 5
DILUPBiCGStab:  Solving for Uy, Initial residual = 0.158672, Final residual = 5.65407e-06, No Iterations 5
DILUPBiCGStab:  Solving for Uz, Initial residual = 0.266117, Final residual = 9.88141e-06, No Iterations 5
linear solve U 20420
[OGL LOG] init_host_sparsity_pattern : 7 ms
[OGL LOG] matrix not stored update host matrix
[OGL LOG] update_host_mtx : 3 ms
[OGL LOG] matrix is not yet sorted, compute sorting idxs
[OGL LOG] compute_sort : 197 ms
[OGL LOG] matrix is not yet sorted, sorting host matrix
[OGL LOG] sort_host_mtx_sparsity_pattern : 4 ms
[OGL LOG] sort_host_mtx : 2 ms
[OGL LOG] init_preconditioner : 3 ms
[OGL LOG] solve : 30 ms
BJcudaGKOCG:  Solving for p, Initial residual = 0.542954, Final residual = 8.59504e-07, No Iterations 220
linear solve p 1001822
time step continuity errors : sum local = 4.01719e-09, global = 9.52919e-20, cumulative = 9.52919e-20
[OGL LOG] init_preconditioner : 0 ms
[OGL LOG] solve : 29 ms
BJcudaGKOCG:  Solving for p, Initial residual = 0.318921, Final residual = 9.54369e-07, No Iterations 219
linear solve p 30188
time step continuity errors : sum local = 2.92996e-09, global = -3.97128e-20, cumulative = 5.55791e-20
ExecutionTime = 1.21 s  ClockTime = 2 s

Time = 0.00666667

Courant Number mean: 0.173776 max: 0.888266
DILUPBiCGStab:  Solving for Ux, Initial residual = 0.0119482, Final residual = 2.97168e-06, No Iterations 5
DILUPBiCGStab:  Solving for Uy, Initial residual = 0.0223252, Final residual = 3.40241e-06, No Iterations 5
DILUPBiCGStab:  Solving for Uz, Initial residual = 0.0596875, Final residual = 5.25973e-06, No Iterations 5
linear solve U 17724
[OGL LOG] init_preconditioner : 0 ms
[OGL LOG] solve : 28 ms
BJcudaGKOCG:  Solving for p, Initial residual = 0.156723, Final residual = 9.1692e-07, No Iterations 209
linear solve p 28906
time step continuity errors : sum local = 9.92837e-07, global = -9.11381e-21, cumulative = 4.64653e-20
[OGL LOG] init_preconditioner : 0 ms
[OGL LOG] solve : 27 ms
BJcudaGKOCG:  Solving for p, Initial residual = 0.0960171, Final residual = 9.07097e-07, No Iterations 204
linear solve p 28079
time step continuity errors : sum local = 8.86675e-07, global = -9.75546e-20, cumulative = -5.10893e-20
ExecutionTime = 1.29 s  ClockTime = 2 s

Time = 0.01

Courant Number mean: 0.176716 max: 0.888542
DILUPBiCGStab:  Solving for Ux, Initial residual = 0.00409279, Final residual = 6.70309e-07, No Iterations 5
DILUPBiCGStab:  Solving for Uy, Initial residual = 0.00964208, Final residual = 1.18554e-06, No Iterations 5
DILUPBiCGStab:  Solving for Uz, Initial residual = 0.0232399, Final residual = 3.07754e-06, No Iterations 5
linear solve U 21701
[OGL LOG] init_preconditioner : 0 ms
[OGL LOG] solve : 26 ms
BJcudaGKOCG:  Solving for p, Initial residual = 0.0542662, Final residual = 8.57558e-07, No Iterations 190
linear solve p 27263
time step continuity errors : sum local = 8.68119e-07, global = -6.18417e-20, cumulative = -1.12931e-19
[OGL LOG] init_preconditioner : 0 ms
[OGL LOG] solve : 25 ms
BJcudaGKOCG:  Solving for p, Initial residual = 0.0362378, Final residual = 8.0357e-07, No Iterations 189
linear solve p 26129
time step continuity errors : sum local = 8.80917e-07, global = 1.19198e-19, cumulative = 6.26708e-21
ExecutionTime = 1.37 s  ClockTime = 2 s

Time = 0.0133333

Courant Number mean: 0.179156 max: 0.890256
DILUPBiCGStab:  Solving for Ux, Initial residual = 0.00297515, Final residual = 3.25975e-07, No Iterations 5
DILUPBiCGStab:  Solving for Uy, Initial residual = 0.00703812, Final residual = 6.19371e-07, No Iterations 5
DILUPBiCGStab:  Solving for Uz, Initial residual = 0.0128657, Final residual = 1.19831e-06, No Iterations 5
linear solve U 17490
[OGL LOG] init_preconditioner : 0 ms
[OGL LOG] solve : 25 ms
BJcudaGKOCG:  Solving for p, Initial residual = 0.0253452, Final residual = 9.84119e-07, No Iterations 190
linear solve p 26400
time step continuity errors : sum local = 8.83985e-07, global = 4.12253e-20, cumulative = 4.74924e-20
[OGL LOG] init_preconditioner : 0 ms
[OGL LOG] solve : 25 ms
BJcudaGKOCG:  Solving for p, Initial residual = 0.0181706, Final residual = 9.42469e-07, No Iterations 189
linear solve p 26565
time step continuity errors : sum local = 8.81916e-07, global = -6.52425e-20, cumulative = -1.77501e-20
ExecutionTime = 1.46 s  ClockTime = 2 s

Time = 0.0166667

Courant Number mean: 0.181129 max: 0.891457
DILUPBiCGStab:  Solving for Ux, Initial residual = 0.00228119, Final residual = 2.37436e-07, No Iterations 5
DILUPBiCGStab:  Solving for Uy, Initial residual = 0.00534278, Final residual = 4.68988e-07, No Iterations 5
DILUPBiCGStab:  Solving for Uz, Initial residual = 0.00928226, Final residual = 5.64315e-07, No Iterations 5
linear solve U 17257
[OGL LOG] init_preconditioner : 0 ms
[OGL LOG] solve : 26 ms
BJcudaGKOCG:  Solving for p, Initial residual = 0.0142918, Final residual = 8.95663e-07, No Iterations 185
linear solve p 26919
time step continuity errors : sum local = 8.80764e-07, global = 2.22532e-20, cumulative = 4.50312e-21
[OGL LOG] init_preconditioner : 0 ms
[OGL LOG] solve : 25 ms
BJcudaGKOCG:  Solving for p, Initial residual = 0.0104782, Final residual = 9.95487e-07, No Iterations 183
linear solve p 25801
time step continuity errors : sum local = 8.81981e-07, global = -4.48659e-20, cumulative = -4.03628e-20
ExecutionTime = 1.55 s  ClockTime = 2 s

Time = 0.02

Courant Number mean: 0.182723 max: 0.892519
DILUPBiCGStab:  Solving for Ux, Initial residual = 0.00179241, Final residual = 1.43083e-07, No Iterations 5
DILUPBiCGStab:  Solving for Uy, Initial residual = 0.00435027, Final residual = 3.47594e-07, No Iterations 5
DILUPBiCGStab:  Solving for Uz, Initial residual = 0.00736053, Final residual = 4.39865e-07, No Iterations 5
linear solve U 17960
[OGL LOG] init_preconditioner : 0 ms
[OGL LOG] solve : 24 ms
BJcudaGKOCG:  Solving for p, Initial residual = 0.00820788, Final residual = 9.96893e-07, No Iterations 182
linear solve p 25648
time step continuity errors : sum local = 8.81555e-07, global = -4.45209e-20, cumulative = -8.48837e-20
[OGL LOG] init_preconditioner : 0 ms
[OGL LOG] solve : 24 ms
BJcudaGKOCG:  Solving for p, Initial residual = 0.00653591, Final residual = 9.03358e-07, No Iterations 181
linear solve p 25339
time step continuity errors : sum local = 8.8187e-07, global = 4.69253e-20, cumulative = -3.79585e-20
ExecutionTime = 1.62 s  ClockTime = 2 s

Time = 0.0233333

Courant Number mean: 0.184011 max: 0.893289
DILUPBiCGStab:  Solving for Ux, Initial residual = 0.00143715, Final residual = 1.09337e-07, No Iterations 5
DILUPBiCGStab:  Solving for Uy, Initial residual = 0.00347901, Final residual = 2.43277e-07, No Iterations 5
DILUPBiCGStab:  Solving for Uz, Initial residual = 0.00575581, Final residual = 2.57581e-07, No Iterations 5
linear solve U 17417
[OGL LOG] init_preconditioner : 0 ms
[OGL LOG] solve : 23 ms
BJcudaGKOCG:  Solving for p, Initial residual = 0.00545551, Final residual = 8.62049e-07, No Iterations 173
linear solve p 24571
time step continuity errors : sum local = 8.81517e-07, global = -1.20327e-19, cumulative = -1.58285e-19
[OGL LOG] init_preconditioner : 0 ms
[OGL LOG] solve : 23 ms
BJcudaGKOCG:  Solving for p, Initial residual = 0.00442744, Final residual = 8.74368e-07, No Iterations 172
linear solve p 23934
time step continuity errors : sum local = 8.81878e-07, global = 1.13379e-19, cumulative = -4.49058e-20
ExecutionTime = 1.7 s  ClockTime = 2 s

Time = 0.0266667

Courant Number mean: 0.185057 max: 0.893926
DILUPBiCGStab:  Solving for Ux, Initial residual = 0.00115894, Final residual = 5.42652e-08, No Iterations 5
DILUPBiCGStab:  Solving for Uy, Initial residual = 0.00285491, Final residual = 1.87603e-07, No Iterations 5
DILUPBiCGStab:  Solving for Uz, Initial residual = 0.00465683, Final residual = 2.31723e-07, No Iterations 5
linear solve U 17391
[OGL LOG] init_preconditioner : 0 ms
[OGL LOG] solve : 23 ms
BJcudaGKOCG:  Solving for p, Initial residual = 0.00385803, Final residual = 9.22326e-07, No Iterations 171
linear solve p 23875
time step continuity errors : sum local = 8.81679e-07, global = 3.40114e-20, cumulative = -1.08943e-20
[OGL LOG] init_preconditioner : 0 ms
[OGL LOG] solve : 23 ms
BJcudaGKOCG:  Solving for p, Initial residual = 0.00327632, Final residual = 9.28027e-07, No Iterations 170
linear solve p 23991
time step continuity errors : sum local = 8.81944e-07, global = -4.61496e-20, cumulative = -5.70439e-20
ExecutionTime = 1.79 s  ClockTime = 2 s

Time = 0.03

Courant Number mean: 0.185908 max: 0.894414
DILUPBiCGStab:  Solving for Ux, Initial residual = 0.00094262, Final residual = 5.13332e-08, No Iterations 5
DILUPBiCGStab:  Solving for Uy, Initial residual = 0.00232452, Final residual = 1.37955e-07, No Iterations 5
DILUPBiCGStab:  Solving for Uz, Initial residual = 0.00370656, Final residual = 1.70441e-07, No Iterations 5
linear solve U 17385
[OGL LOG] init_preconditioner : 0 ms
[OGL LOG] solve : 23 ms
BJcudaGKOCG:  Solving for p, Initial residual = 0.00291705, Final residual = 9.99864e-07, No Iterations 169
linear solve p 24591
time step continuity errors : sum local = 8.81895e-07, global = 9.92272e-21, cumulative = -4.71212e-20
[OGL LOG] init_preconditioner : 0 ms
[OGL LOG] solve : 22 ms
BJcudaGKOCG:  Solving for p, Initial residual = 0.00251573, Final residual = 9.70787e-07, No Iterations 168
linear solve p 23661
time step continuity errors : sum local = 8.82013e-07, global = -9.2352e-20, cumulative = -1.39473e-19
ExecutionTime = 1.86 s  ClockTime = 2 s

Time = 0.0333333

Courant Number mean: 0.186602 max: 0.894809
DILUPBiCGStab:  Solving for Ux, Initial residual = 0.00076754, Final residual = 2.9496e-08, No Iterations 5
DILUPBiCGStab:  Solving for Uy, Initial residual = 0.00191399, Final residual = 1.26266e-07, No Iterations 5
DILUPBiCGStab:  Solving for Uz, Initial residual = 0.00299458, Final residual = 1.454e-07, No Iterations 5
linear solve U 18329
[OGL LOG] init_preconditioner : 0 ms
[OGL LOG] solve : 23 ms
BJcudaGKOCG:  Solving for p, Initial residual = 0.00225682, Final residual = 9.68479e-07, No Iterations 163
linear solve p 24330
time step continuity errors : sum local = 8.81924e-07, global = -2.65268e-20, cumulative = -1.66e-19
[OGL LOG] init_preconditioner : 0 ms
[OGL LOG] solve : 23 ms
BJcudaGKOCG:  Solving for p, Initial residual = 0.00198012, Final residual = 9.41818e-07, No Iterations 162
linear solve p 23960
time step continuity errors : sum local = 8.82024e-07, global = -2.07988e-20, cumulative = -1.86799e-19
ExecutionTime = 1.94 s  ClockTime = 2 s

End

