/*---------------------------------------------------------------------------*\
  =========                 |
  \\      /  F ield         | OpenFOAM: The Open Source CFD Toolbox
   \\    /   O peration     | Website:  https://openfoam.org
    \\  /    A nd           | Version:  8
     \\/     M anipulation  |
\*---------------------------------------------------------------------------*/
Build  : 8-ef60d22ea792
Exec   : icoFoam
Date   : Sep 15 2021
Time   : 14:58:57
Host   : "uc2n482.localdomain"
PID    : 3656884
I/O    : uncollated
Case   : /pfs/data5/home/kit/scc/nq7776/data/code/OBR/lidDrivenCavity3D/Variation_init/100/Variation_mesh/10/Variation_matrix_solver/CG_BJ_CUDA/Variation_maxBlockSize/4/1631710734
nProcs : 1
sigFpe : Enabling floating point exception trapping (FOAM_SIGFPE).
fileModificationChecking : Monitoring run-time modified files using timeStampMaster (fileModificationSkew 10)
allowSystemOperations : Allowing user-supplied system call operations

// * * * * * * * * * * * * * * * * * * * * * * * * * * * * * * * * * * * * * //
Create time

Create mesh for time = 0

Reading transportProperties

Reading field p

Reading field U

Reading/calculating face flux field phi


Starting time loop

Time = 0.01

Courant Number mean: 0.164367 max: 0.687382
DILUPBiCGStab:  Solving for Ux, Initial residual = 0.143876, Final residual = 4.90416e-10, No Iterations 5
DILUPBiCGStab:  Solving for Uy, Initial residual = 0.166383, Final residual = 9.49899e-10, No Iterations 5
DILUPBiCGStab:  Solving for Uz, Initial residual = 0.331866, Final residual = 6.25857e-09, No Iterations 5
linear solve U 788
[OGL LOG] init_host_sparsity_pattern : 0 ms
[OGL LOG] matrix not stored update host matrix
[OGL LOG] update_host_mtx : 0 ms
[OGL LOG] matrix is not yet sorted, compute sorting idxs
[OGL LOG] compute_sort : 5 ms
[OGL LOG] matrix is not yet sorted, sorting host matrix
[OGL LOG] sort_host_mtx_sparsity_pattern : 0 ms
[OGL LOG] sort_host_mtx : 0 ms
[OGL LOG] init_preconditioner : 0 ms
[OGL LOG] solve : 10 ms
BJcudaGKOCG:  Solving for p, Initial residual = 0.61492, Final residual = 7.55521e-07, No Iterations 74
linear solve p 764592
time step continuity errors : sum local = 2.30018e-08, global = -2.74132e-19, cumulative = -2.74132e-19
[OGL LOG] init_preconditioner : 0 ms
[OGL LOG] solve : 10 ms
BJcudaGKOCG:  Solving for p, Initial residual = 0.306169, Final residual = 7.0118e-07, No Iterations 73
linear solve p 10364
time step continuity errors : sum local = 1.1994e-08, global = -1.22347e-19, cumulative = -3.96479e-19
ExecutionTime = 0.81 s  ClockTime = 0 s

Time = 0.02

Courant Number mean: 0.168824 max: 0.675339
DILUPBiCGStab:  Solving for Ux, Initial residual = 0.0355474, Final residual = 1.50456e-09, No Iterations 5
DILUPBiCGStab:  Solving for Uy, Initial residual = 0.0400342, Final residual = 6.38401e-10, No Iterations 5
DILUPBiCGStab:  Solving for Uz, Initial residual = 0.103396, Final residual = 1.83469e-09, No Iterations 5
linear solve U 587
[OGL LOG] init_preconditioner : 0 ms
[OGL LOG] solve : 9 ms
BJcudaGKOCG:  Solving for p, Initial residual = 0.153464, Final residual = 9.19069e-07, No Iterations 69
linear solve p 9739
time step continuity errors : sum local = 2.73792e-05, global = -3.08174e-19, cumulative = -7.04653e-19
[OGL LOG] init_preconditioner : 0 ms
[OGL LOG] solve : 9 ms
BJcudaGKOCG:  Solving for p, Initial residual = 0.0682514, Final residual = 9.21997e-07, No Iterations 67
linear solve p 9483
time step continuity errors : sum local = 2.45599e-05, global = -9.13207e-21, cumulative = -7.13786e-19
ExecutionTime = 0.83 s  ClockTime = 0 s

Time = 0.03

Courant Number mean: 0.172125 max: 0.67452
DILUPBiCGStab:  Solving for Ux, Initial residual = 0.0078625, Final residual = 3.41259e-10, No Iterations 5
DILUPBiCGStab:  Solving for Uy, Initial residual = 0.0117526, Final residual = 1.81685e-10, No Iterations 5
DILUPBiCGStab:  Solving for Uz, Initial residual = 0.0329067, Final residual = 7.71236e-10, No Iterations 5
linear solve U 590
[OGL LOG] init_preconditioner : 0 ms
[OGL LOG] solve : 8 ms
BJcudaGKOCG:  Solving for p, Initial residual = 0.0151556, Final residual = 8.56708e-07, No Iterations 59
linear solve p 8640
time step continuity errors : sum local = 2.43574e-05, global = 4.60177e-19, cumulative = -2.53608e-19
[OGL LOG] init_preconditioner : 0 ms
[OGL LOG] solve : 8 ms
BJcudaGKOCG:  Solving for p, Initial residual = 0.00703038, Final residual = 7.77566e-07, No Iterations 57
linear solve p 8288
time step continuity errors : sum local = 2.43934e-05, global = 1.92038e-19, cumulative = -6.15702e-20
ExecutionTime = 0.86 s  ClockTime = 0 s

Time = 0.04

Courant Number mean: 0.174438 max: 0.676488
DILUPBiCGStab:  Solving for Ux, Initial residual = 0.00346891, Final residual = 8.54584e-11, No Iterations 5
DILUPBiCGStab:  Solving for Uy, Initial residual = 0.00573782, Final residual = 8.30406e-11, No Iterations 5
DILUPBiCGStab:  Solving for Uz, Initial residual = 0.0109296, Final residual = 1.47731e-10, No Iterations 5
linear solve U 578
[OGL LOG] init_preconditioner : 0 ms
[OGL LOG] solve : 7 ms
BJcudaGKOCG:  Solving for p, Initial residual = 0.00633133, Final residual = 8.98374e-07, No Iterations 55
linear solve p 7980
time step continuity errors : sum local = 2.44215e-05, global = 4.53096e-19, cumulative = 3.91526e-19
[OGL LOG] init_preconditioner : 0 ms
[OGL LOG] solve : 7 ms
BJcudaGKOCG:  Solving for p, Initial residual = 0.00352243, Final residual = 8.13483e-07, No Iterations 53
linear solve p 7588
time step continuity errors : sum local = 2.4394e-05, global = 1.44393e-19, cumulative = 5.35919e-19
ExecutionTime = 0.88 s  ClockTime = 0 s

Time = 0.05

Courant Number mean: 0.17593 max: 0.67828
DILUPBiCGStab:  Solving for Ux, Initial residual = 0.00187323, Final residual = 4.14609e-11, No Iterations 5
DILUPBiCGStab:  Solving for Uy, Initial residual = 0.00338895, Final residual = 1.90878e-11, No Iterations 5
DILUPBiCGStab:  Solving for Uz, Initial residual = 0.00559415, Final residual = 7.64812e-11, No Iterations 5
linear solve U 576
[OGL LOG] init_preconditioner : 0 ms
[OGL LOG] solve : 7 ms
BJcudaGKOCG:  Solving for p, Initial residual = 0.00308555, Final residual = 8.3311e-07, No Iterations 53
linear solve p 7980
time step continuity errors : sum local = 2.43873e-05, global = 5.41506e-19, cumulative = 1.07742e-18
[OGL LOG] init_preconditioner : 0 ms
[OGL LOG] solve : 7 ms
BJcudaGKOCG:  Solving for p, Initial residual = 0.00176197, Final residual = 6.75694e-07, No Iterations 52
linear solve p 7885
time step continuity errors : sum local = 2.43853e-05, global = 2.2539e-19, cumulative = 1.30281e-18
ExecutionTime = 0.89 s  ClockTime = 0 s

Time = 0.06

Courant Number mean: 0.176864 max: 0.679468
DILUPBiCGStab:  Solving for Ux, Initial residual = 0.00111327, Final residual = 1.55538e-11, No Iterations 5
DILUPBiCGStab:  Solving for Uy, Initial residual = 0.0020947, Final residual = 1.01724e-11, No Iterations 5
DILUPBiCGStab:  Solving for Uz, Initial residual = 0.00301944, Final residual = 5.28653e-11, No Iterations 5
linear solve U 598
[OGL LOG] init_preconditioner : 0 ms
[OGL LOG] solve : 7 ms
BJcudaGKOCG:  Solving for p, Initial residual = 0.00188602, Final residual = 7.51097e-07, No Iterations 52
linear solve p 7616
time step continuity errors : sum local = 2.43804e-05, global = -1.88994e-19, cumulative = 1.11382e-18
[OGL LOG] init_preconditioner : 0 ms
[OGL LOG] solve : 7 ms
BJcudaGKOCG:  Solving for p, Initial residual = 0.00108226, Final residual = 8.92796e-07, No Iterations 50
linear solve p 7197
time step continuity errors : sum local = 2.43813e-05, global = 5.66519e-19, cumulative = 1.68034e-18
ExecutionTime = 0.9 s  ClockTime = 0 s

Time = 0.07

Courant Number mean: 0.177444 max: 0.680222
DILUPBiCGStab:  Solving for Ux, Initial residual = 0.000680245, Final residual = 7.14764e-12, No Iterations 5
DILUPBiCGStab:  Solving for Uy, Initial residual = 0.00129782, Final residual = 6.10563e-12, No Iterations 5
DILUPBiCGStab:  Solving for Uz, Initial residual = 0.00176907, Final residual = 3.58029e-11, No Iterations 5
linear solve U 581
[OGL LOG] init_preconditioner : 0 ms
[OGL LOG] solve : 7 ms
BJcudaGKOCG:  Solving for p, Initial residual = 0.00115069, Final residual = 8.45633e-07, No Iterations 50
linear solve p 7503
time step continuity errors : sum local = 2.43765e-05, global = 2.63838e-19, cumulative = 1.94418e-18
[OGL LOG] init_preconditioner : 0 ms
[OGL LOG] solve : 6 ms
BJcudaGKOCG:  Solving for p, Initial residual = 0.000656125, Final residual = 9.77106e-07, No Iterations 47
linear solve p 6918
time step continuity errors : sum local = 2.43794e-05, global = -5.09543e-20, cumulative = 1.89322e-18
ExecutionTime = 0.92 s  ClockTime = 0 s

Time = 0.08

Courant Number mean: 0.177803 max: 0.680688
DILUPBiCGStab:  Solving for Ux, Initial residual = 0.000418542, Final residual = 3.5353e-12, No Iterations 5
DILUPBiCGStab:  Solving for Uy, Initial residual = 0.000805927, Final residual = 3.70643e-12, No Iterations 5
DILUPBiCGStab:  Solving for Uz, Initial residual = 0.00106586, Final residual = 2.17355e-11, No Iterations 5
linear solve U 571
[OGL LOG] init_preconditioner : 0 ms
[OGL LOG] solve : 6 ms
BJcudaGKOCG:  Solving for p, Initial residual = 0.00070784, Final residual = 7.94897e-07, No Iterations 47
linear solve p 7087
time step continuity errors : sum local = 2.43747e-05, global = 3.66342e-19, cumulative = 2.25956e-18
[OGL LOG] init_preconditioner : 0 ms
[OGL LOG] solve : 6 ms
BJcudaGKOCG:  Solving for p, Initial residual = 0.00040385, Final residual = 9.00868e-07, No Iterations 45
linear solve p 6550
time step continuity errors : sum local = 2.43762e-05, global = 2.04975e-19, cumulative = 2.46454e-18
ExecutionTime = 0.93 s  ClockTime = 0 s

Time = 0.09

Courant Number mean: 0.178025 max: 0.680973
DILUPBiCGStab:  Solving for Ux, Initial residual = 0.000258417, Final residual = 1.77897e-12, No Iterations 5
DILUPBiCGStab:  Solving for Uy, Initial residual = 0.000500328, Final residual = 2.2597e-12, No Iterations 5
DILUPBiCGStab:  Solving for Uz, Initial residual = 0.000648989, Final residual = 1.29346e-11, No Iterations 5
linear solve U 574
[OGL LOG] init_preconditioner : 0 ms
[OGL LOG] solve : 6 ms
BJcudaGKOCG:  Solving for p, Initial residual = 0.00043648, Final residual = 7.76307e-07, No Iterations 45
linear solve p 6560
time step continuity errors : sum local = 2.43764e-05, global = -5.79423e-19, cumulative = 1.88512e-18
[OGL LOG] init_preconditioner : 0 ms
[OGL LOG] solve : 6 ms
BJcudaGKOCG:  Solving for p, Initial residual = 0.000248629, Final residual = 9.84886e-07, No Iterations 43
linear solve p 6523
time step continuity errors : sum local = 2.43761e-05, global = -4.02407e-19, cumulative = 1.48271e-18
ExecutionTime = 0.95 s  ClockTime = 0 s

Time = 0.1

Courant Number mean: 0.178162 max: 0.681146
DILUPBiCGStab:  Solving for Ux, Initial residual = 0.00015982, Final residual = 8.9064e-13, No Iterations 5
DILUPBiCGStab:  Solving for Uy, Initial residual = 0.000310565, Final residual = 1.38349e-12, No Iterations 5
DILUPBiCGStab:  Solving for Uz, Initial residual = 0.000397274, Final residual = 7.7826e-12, No Iterations 5
linear solve U 580
[OGL LOG] init_preconditioner : 0 ms
[OGL LOG] solve : 6 ms
BJcudaGKOCG:  Solving for p, Initial residual = 0.000269058, Final residual = 6.33809e-07, No Iterations 44
linear solve p 6636
time step continuity errors : sum local = 2.43747e-05, global = 1.02901e-19, cumulative = 1.58561e-18
[OGL LOG] init_preconditioner : 0 ms
[OGL LOG] solve : 2 ms
BJcudaGKOCG:  Solving for p, Initial residual = 0.000153315, Final residual = 9.53077e-07, No Iterations 19
linear solve p 3141
time step continuity errors : sum local = 2.43833e-05, global = 9.65485e-20, cumulative = 1.68216e-18
ExecutionTime = 0.96 s  ClockTime = 0 s

End

