/*---------------------------------------------------------------------------*\
  =========                 |
  \\      /  F ield         | OpenFOAM: The Open Source CFD Toolbox
   \\    /   O peration     | Website:  https://openfoam.org
    \\  /    A nd           | Version:  8
     \\/     M anipulation  |
\*---------------------------------------------------------------------------*/
Build  : 8-ef60d22ea792
Exec   : icoFoam
Date   : Sep 15 2021
Time   : 14:56:05
Host   : "uc2n482.localdomain"
PID    : 3656056
I/O    : uncollated
Case   : /pfs/data5/home/kit/scc/nq7776/data/code/OBR/lidDrivenCavity3D/Variation_init/100/Variation_mesh/85/Variation_matrix_solver/IR_NoPrecond_CUDA/Variation_innerReductionFactor/0.001/1631710541
nProcs : 1
sigFpe : Enabling floating point exception trapping (FOAM_SIGFPE).
fileModificationChecking : Monitoring run-time modified files using timeStampMaster (fileModificationSkew 10)
allowSystemOperations : Allowing user-supplied system call operations

// * * * * * * * * * * * * * * * * * * * * * * * * * * * * * * * * * * * * * //
Create time

Create mesh for time = 0

Reading transportProperties

Reading field p

Reading field U

Reading/calculating face flux field phi


Starting time loop

Time = 0.00117647

Courant Number mean: 0.17078 max: 0.958539
DILUPBiCGStab:  Solving for Ux, Initial residual = 0.08035, Final residual = 0.000200532, No Iterations 5
DILUPBiCGStab:  Solving for Uy, Initial residual = 0.159613, Final residual = 0.00056519, No Iterations 5
DILUPBiCGStab:  Solving for Uz, Initial residual = 0.222246, Final residual = 0.000790216, No Iterations 5
linear solve U 662636
[OGL LOG] init_host_sparsity_pattern : 179 ms
[OGL LOG] matrix not stored update host matrix
[OGL LOG] update_host_mtx : 99 ms
[OGL LOG] matrix is not yet sorted, compute sorting idxs
[OGL LOG] compute_sort : 5804 ms
[OGL LOG] matrix is not yet sorted, sorting host matrix
[OGL LOG] sort_host_mtx_sparsity_pattern : 123 ms
[OGL LOG] sort_host_mtx : 74 ms
[OGL LOG] init_preconditioner : 0 ms
[OGL LOG] solve : 341 ms
nonecudaGKOIR:  Solving for p, Initial residual = 0.643964, Final residual = 2.80879e-09, No Iterations 3
linear solve p 7427519
time step continuity errors : sum local = 2.2566e-12, global = 1.66682e-20, cumulative = 1.66682e-20
[OGL LOG] init_preconditioner : 0 ms
[OGL LOG] solve : 365 ms
nonecudaGKOIR:  Solving for p, Initial residual = 0.369996, Final residual = 1.64546e-09, No Iterations 3
linear solve p 384514
time step continuity errors : sum local = 1.17442e-12, global = -1.92227e-20, cumulative = -2.55452e-21
ExecutionTime = 11.71 s  ClockTime = 12 s

Time = 0.00235294

Courant Number mean: 0.17242 max: 0.959521
DILUPBiCGStab:  Solving for Ux, Initial residual = 0.0066867, Final residual = 4.22368e-05, No Iterations 5
DILUPBiCGStab:  Solving for Uy, Initial residual = 0.0171906, Final residual = 0.000144527, No Iterations 5
DILUPBiCGStab:  Solving for Uz, Initial residual = 0.0433635, Final residual = 0.000582272, No Iterations 5
linear solve U 621060
[OGL LOG] init_preconditioner : 0 ms
[OGL LOG] solve : 357 ms
nonecudaGKOIR:  Solving for p, Initial residual = 0.435511, Final residual = 1.25853e-09, No Iterations 3
linear solve p 376620
time step continuity errors : sum local = 8.09626e-08, global = 1.27723e-20, cumulative = 1.02178e-20
[OGL LOG] init_preconditioner : 0 ms
[OGL LOG] solve : 256 ms
nonecudaGKOIR:  Solving for p, Initial residual = 0.303854, Final residual = 9.31041e-07, No Iterations 2
linear solve p 275999
time step continuity errors : sum local = 7.02087e-08, global = -5.7575e-22, cumulative = 9.64207e-21
ExecutionTime = 13.34 s  ClockTime = 14 s

Time = 0.00352941

Courant Number mean: 0.173894 max: 0.959456
DILUPBiCGStab:  Solving for Ux, Initial residual = 0.00333715, Final residual = 3.14698e-05, No Iterations 5
DILUPBiCGStab:  Solving for Uy, Initial residual = 0.00945604, Final residual = 8.96579e-05, No Iterations 5
DILUPBiCGStab:  Solving for Uz, Initial residual = 0.0306859, Final residual = 0.000410319, No Iterations 5
linear solve U 611655
[OGL LOG] init_preconditioner : 0 ms
[OGL LOG] solve : 272 ms
nonecudaGKOIR:  Solving for p, Initial residual = 0.299931, Final residual = 7.40368e-07, No Iterations 2
linear solve p 291846
time step continuity errors : sum local = 6.82177e-08, global = 1.26704e-20, cumulative = 2.23125e-20
[OGL LOG] init_preconditioner : 0 ms
[OGL LOG] solve : 273 ms
nonecudaGKOIR:  Solving for p, Initial residual = 0.215688, Final residual = 5.80718e-07, No Iterations 2
linear solve p 292565
time step continuity errors : sum local = 6.83398e-08, global = -2.91125e-22, cumulative = 2.20214e-20
ExecutionTime = 14.9 s  ClockTime = 15 s

Time = 0.00470588

Courant Number mean: 0.175264 max: 0.959792
DILUPBiCGStab:  Solving for Ux, Initial residual = 0.00248732, Final residual = 2.07235e-05, No Iterations 5
DILUPBiCGStab:  Solving for Uy, Initial residual = 0.00741669, Final residual = 5.77354e-05, No Iterations 5
DILUPBiCGStab:  Solving for Uz, Initial residual = 0.0248494, Final residual = 0.000346966, No Iterations 5
linear solve U 607174
[OGL LOG] init_preconditioner : 0 ms
[OGL LOG] solve : 270 ms
nonecudaGKOIR:  Solving for p, Initial residual = 0.231305, Final residual = 5.13066e-07, No Iterations 2
linear solve p 290793
time step continuity errors : sum local = 6.98005e-08, global = 2.27274e-20, cumulative = 4.47488e-20
[OGL LOG] init_preconditioner : 0 ms
[OGL LOG] solve : 269 ms
nonecudaGKOIR:  Solving for p, Initial residual = 0.174242, Final residual = 4.3075e-07, No Iterations 2
linear solve p 289320
time step continuity errors : sum local = 6.90413e-08, global = 1.48426e-20, cumulative = 5.95914e-20
ExecutionTime = 16.46 s  ClockTime = 17 s

Time = 0.00588235

Courant Number mean: 0.176537 max: 0.960088
DILUPBiCGStab:  Solving for Ux, Initial residual = 0.00205609, Final residual = 1.50287e-05, No Iterations 5
DILUPBiCGStab:  Solving for Uy, Initial residual = 0.00597115, Final residual = 3.61316e-05, No Iterations 5
DILUPBiCGStab:  Solving for Uz, Initial residual = 0.0198556, Final residual = 0.000272465, No Iterations 5
linear solve U 604199
[OGL LOG] init_preconditioner : 0 ms
[OGL LOG] solve : 251 ms
nonecudaGKOIR:  Solving for p, Initial residual = 0.174288, Final residual = 3.8975e-07, No Iterations 2
linear solve p 270406
time step continuity errors : sum local = 6.90719e-08, global = 8.48373e-21, cumulative = 6.80751e-20
[OGL LOG] init_preconditioner : 0 ms
[OGL LOG] solve : 258 ms
nonecudaGKOIR:  Solving for p, Initial residual = 0.135155, Final residual = 2.94133e-07, No Iterations 2
linear solve p 279409
time step continuity errors : sum local = 6.86277e-08, global = -1.14981e-20, cumulative = 5.6577e-20
ExecutionTime = 17.99 s  ClockTime = 19 s

Time = 0.00705882

Courant Number mean: 0.177704 max: 0.960428
DILUPBiCGStab:  Solving for Ux, Initial residual = 0.00174907, Final residual = 1.21877e-05, No Iterations 5
DILUPBiCGStab:  Solving for Uy, Initial residual = 0.00512407, Final residual = 2.67732e-05, No Iterations 5
DILUPBiCGStab:  Solving for Uz, Initial residual = 0.0165769, Final residual = 0.000216559, No Iterations 5
linear solve U 610129
[OGL LOG] init_preconditioner : 0 ms
[OGL LOG] solve : 273 ms
nonecudaGKOIR:  Solving for p, Initial residual = 0.141168, Final residual = 2.84346e-07, No Iterations 2
linear solve p 292679
time step continuity errors : sum local = 6.88048e-08, global = -2.14385e-21, cumulative = 5.44331e-20
[OGL LOG] init_preconditioner : 0 ms
[OGL LOG] solve : 273 ms
nonecudaGKOIR:  Solving for p, Initial residual = 0.112335, Final residual = 2.33119e-07, No Iterations 2
linear solve p 294074
time step continuity errors : sum local = 6.88147e-08, global = 8.84197e-21, cumulative = 6.32751e-20
ExecutionTime = 19.57 s  ClockTime = 20 s

Time = 0.00823529

Courant Number mean: 0.178771 max: 0.960686
DILUPBiCGStab:  Solving for Ux, Initial residual = 0.00151462, Final residual = 9.78441e-06, No Iterations 5
DILUPBiCGStab:  Solving for Uy, Initial residual = 0.00444479, Final residual = 2.00469e-05, No Iterations 5
DILUPBiCGStab:  Solving for Uz, Initial residual = 0.0136239, Final residual = 0.000161984, No Iterations 5
linear solve U 604134
[OGL LOG] init_preconditioner : 0 ms
[OGL LOG] solve : 284 ms
nonecudaGKOIR:  Solving for p, Initial residual = 0.11392, Final residual = 2.19366e-07, No Iterations 2
linear solve p 304240
time step continuity errors : sum local = 6.89801e-08, global = -8.06493e-22, cumulative = 6.24686e-20
[OGL LOG] init_preconditioner : 0 ms
[OGL LOG] solve : 288 ms
nonecudaGKOIR:  Solving for p, Initial residual = 0.0918215, Final residual = 1.73735e-07, No Iterations 2
linear solve p 307521
time step continuity errors : sum local = 6.86902e-08, global = 1.4528e-20, cumulative = 7.69966e-20
ExecutionTime = 21.14 s  ClockTime = 22 s

Time = 0.00941176

Courant Number mean: 0.179753 max: 0.960953
DILUPBiCGStab:  Solving for Ux, Initial residual = 0.00134501, Final residual = 8.39649e-06, No Iterations 5
DILUPBiCGStab:  Solving for Uy, Initial residual = 0.00391831, Final residual = 1.64921e-05, No Iterations 5
DILUPBiCGStab:  Solving for Uz, Initial residual = 0.0115639, Final residual = 0.000123219, No Iterations 5
linear solve U 603327
[OGL LOG] init_preconditioner : 0 ms
[OGL LOG] solve : 274 ms
nonecudaGKOIR:  Solving for p, Initial residual = 0.0945184, Final residual = 1.72013e-07, No Iterations 2
linear solve p 293642
time step continuity errors : sum local = 6.86966e-08, global = -1.33073e-20, cumulative = 6.36893e-20
[OGL LOG] init_preconditioner : 0 ms
[OGL LOG] solve : 271 ms
nonecudaGKOIR:  Solving for p, Initial residual = 0.0771011, Final residual = 1.38303e-07, No Iterations 2
linear solve p 291357
time step continuity errors : sum local = 6.87492e-08, global = -1.43834e-20, cumulative = 4.93059e-20
ExecutionTime = 22.69 s  ClockTime = 23 s

Time = 0.0105882

Courant Number mean: 0.180649 max: 0.961168
DILUPBiCGStab:  Solving for Ux, Initial residual = 0.00118527, Final residual = 6.93776e-06, No Iterations 5
DILUPBiCGStab:  Solving for Uy, Initial residual = 0.00349482, Final residual = 1.38695e-05, No Iterations 5
DILUPBiCGStab:  Solving for Uz, Initial residual = 0.00963738, Final residual = 8.71428e-05, No Iterations 5
linear solve U 616320
[OGL LOG] init_preconditioner : 0 ms
[OGL LOG] solve : 257 ms
nonecudaGKOIR:  Solving for p, Initial residual = 0.078701, Final residual = 1.3581e-07, No Iterations 2
linear solve p 276485
time step continuity errors : sum local = 6.88733e-08, global = -6.12032e-21, cumulative = 4.31855e-20
[OGL LOG] init_preconditioner : 0 ms
[OGL LOG] solve : 257 ms
nonecudaGKOIR:  Solving for p, Initial residual = 0.0644998, Final residual = 1.17063e-07, No Iterations 2
linear solve p 277152
time step continuity errors : sum local = 6.87081e-08, global = 1.62483e-20, cumulative = 5.94338e-20
ExecutionTime = 24.23 s  ClockTime = 25 s

Time = 0.0117647

Courant Number mean: 0.181477 max: 0.961382
DILUPBiCGStab:  Solving for Ux, Initial residual = 0.00107352, Final residual = 6.12233e-06, No Iterations 5
DILUPBiCGStab:  Solving for Uy, Initial residual = 0.00312572, Final residual = 1.24594e-05, No Iterations 5
DILUPBiCGStab:  Solving for Uz, Initial residual = 0.00836284, Final residual = 6.59391e-05, No Iterations 5
linear solve U 607378
[OGL LOG] init_preconditioner : 0 ms
[OGL LOG] solve : 271 ms
nonecudaGKOIR:  Solving for p, Initial residual = 0.0658937, Final residual = 1.11458e-07, No Iterations 2
linear solve p 291264
time step continuity errors : sum local = 6.86877e-08, global = -1.26462e-20, cumulative = 4.67877e-20
[OGL LOG] init_preconditioner : 0 ms
[OGL LOG] solve : 270 ms
nonecudaGKOIR:  Solving for p, Initial residual = 0.0542659, Final residual = 8.88154e-08, No Iterations 2
linear solve p 290357
time step continuity errors : sum local = 6.87267e-08, global = -2.93594e-21, cumulative = 4.38517e-20
ExecutionTime = 25.77 s  ClockTime = 26 s

End

