/*---------------------------------------------------------------------------*\
  =========                 |
  \\      /  F ield         | OpenFOAM: The Open Source CFD Toolbox
   \\    /   O peration     | Website:  https://openfoam.org
    \\  /    A nd           | Version:  8
     \\/     M anipulation  |
\*---------------------------------------------------------------------------*/
Build  : 8-ef60d22ea792
Exec   : icoFoam
Date   : Sep 15 2021
Time   : 15:04:16
Host   : "uc2n482.localdomain"
PID    : 3660020
I/O    : uncollated
Case   : /pfs/data5/home/kit/scc/nq7776/data/code/OBR/lidDrivenCavity3D/Variation_init/100/Variation_mesh/55/Variation_matrix_solver/BiCGStab_NoPrecond_CUDA/1631711048
nProcs : 1
sigFpe : Enabling floating point exception trapping (FOAM_SIGFPE).
fileModificationChecking : Monitoring run-time modified files using timeStampMaster (fileModificationSkew 10)
allowSystemOperations : Allowing user-supplied system call operations

// * * * * * * * * * * * * * * * * * * * * * * * * * * * * * * * * * * * * * //
Create time

Create mesh for time = 0

Reading transportProperties

Reading field p

Reading field U

Reading/calculating face flux field phi


Starting time loop

Time = 0.00181818

Courant Number mean: 0.170885 max: 0.951813
DILUPBiCGStab:  Solving for Ux, Initial residual = 0.0617772, Final residual = 8.17367e-05, No Iterations 5
DILUPBiCGStab:  Solving for Uy, Initial residual = 0.127918, Final residual = 0.000176819, No Iterations 5
DILUPBiCGStab:  Solving for Uz, Initial residual = 0.177193, Final residual = 0.000215685, No Iterations 5
linear solve U 167987
[OGL LOG] init_host_sparsity_pattern : 47 ms
[OGL LOG] matrix not stored update host matrix
[OGL LOG] update_host_mtx : 26 ms
[OGL LOG] matrix is not yet sorted, compute sorting idxs
[OGL LOG] compute_sort : 1433 ms
[OGL LOG] matrix is not yet sorted, sorting host matrix
[OGL LOG] sort_host_mtx_sparsity_pattern : 32 ms
[OGL LOG] sort_host_mtx : 18 ms
[OGL LOG] init_preconditioner : 0 ms
[OGL LOG] solve : 219 ms
nonecudaGKOBiCGStab:  Solving for p, Initial residual = 0.614449, Final residual = 9.27357e-07, No Iterations 349
linear solve p 2543959
time step continuity errors : sum local = 2.95694e-09, global = 3.54007e-22, cumulative = 3.54007e-22
[OGL LOG] init_preconditioner : 0 ms
[OGL LOG] solve : 223 ms
nonecudaGKOBiCGStab:  Solving for p, Initial residual = 0.429361, Final residual = 9.73535e-07, No Iterations 360
linear solve p 228762
time step continuity errors : sum local = 9.77939e-07, global = 3.5474e-20, cumulative = 3.5828e-20
ExecutionTime = 3.82 s  ClockTime = 4 s

Time = 0.00363636

Courant Number mean: 0.173201 max: 0.938447
DILUPBiCGStab:  Solving for Ux, Initial residual = 0.00803524, Final residual = 1.32169e-05, No Iterations 5
DILUPBiCGStab:  Solving for Uy, Initial residual = 0.0188026, Final residual = 2.49148e-05, No Iterations 5
DILUPBiCGStab:  Solving for Uz, Initial residual = 0.0441754, Final residual = 0.000134029, No Iterations 5
linear solve U 150146
[OGL LOG] init_preconditioner : 0 ms
[OGL LOG] solve : 234 ms
nonecudaGKOBiCGStab:  Solving for p, Initial residual = 0.309801, Final residual = 8.75698e-07, No Iterations 371
linear solve p 239842
time step continuity errors : sum local = 1.78726e-06, global = -3.32677e-21, cumulative = 3.25013e-20
[OGL LOG] init_preconditioner : 0 ms
[OGL LOG] solve : 230 ms
nonecudaGKOBiCGStab:  Solving for p, Initial residual = 0.196677, Final residual = 3.40877e-07, No Iterations 367
linear solve p 235424
time step continuity errors : sum local = 1.20162e-05, global = 7.31528e-21, cumulative = 3.98165e-20
ExecutionTime = 4.53 s  ClockTime = 5 s

Time = 0.00545455

Courant Number mean: 0.175257 max: 0.938255
DILUPBiCGStab:  Solving for Ux, Initial residual = 0.00375106, Final residual = 1.01169e-05, No Iterations 5
DILUPBiCGStab:  Solving for Uy, Initial residual = 0.00921949, Final residual = 1.43819e-05, No Iterations 5
DILUPBiCGStab:  Solving for Uz, Initial residual = 0.0430411, Final residual = 0.000146601, No Iterations 5
linear solve U 151837
[OGL LOG] init_preconditioner : 0 ms
[OGL LOG] solve : 220 ms
nonecudaGKOBiCGStab:  Solving for p, Initial residual = 0.196341, Final residual = 9.33239e-07, No Iterations 352
linear solve p 225594
time step continuity errors : sum local = 1.90823e-06, global = -6.77085e-21, cumulative = 3.30457e-20
[OGL LOG] init_preconditioner : 0 ms
[OGL LOG] solve : 223 ms
nonecudaGKOBiCGStab:  Solving for p, Initial residual = 0.135932, Final residual = 8.59624e-07, No Iterations 354
linear solve p 229861
time step continuity errors : sum local = 5.16669e-06, global = 8.39515e-20, cumulative = 1.16997e-19
ExecutionTime = 5.25 s  ClockTime = 6 s

Time = 0.00727273

Courant Number mean: 0.17705 max: 0.93878
DILUPBiCGStab:  Solving for Ux, Initial residual = 0.00267037, Final residual = 6.47488e-06, No Iterations 5
DILUPBiCGStab:  Solving for Uy, Initial residual = 0.00708275, Final residual = 1.02692e-05, No Iterations 5
DILUPBiCGStab:  Solving for Uz, Initial residual = 0.0437968, Final residual = 0.000139278, No Iterations 5
linear solve U 148713
[OGL LOG] init_preconditioner : 0 ms
[OGL LOG] solve : 217 ms
nonecudaGKOBiCGStab:  Solving for p, Initial residual = 0.136236, Final residual = 9.90763e-07, No Iterations 350
linear solve p 223190
time step continuity errors : sum local = 1.24649e-06, global = 1.53013e-20, cumulative = 1.32299e-19
[OGL LOG] init_preconditioner : 0 ms
[OGL LOG] solve : 242 ms
nonecudaGKOBiCGStab:  Solving for p, Initial residual = 0.100816, Final residual = 7.23188e-07, No Iterations 390
linear solve p 247693
time step continuity errors : sum local = 2.34149e-06, global = 7.14393e-21, cumulative = 1.39442e-19
ExecutionTime = 5.96 s  ClockTime = 6 s

Time = 0.00909091

Courant Number mean: 0.178659 max: 0.939358
DILUPBiCGStab:  Solving for Ux, Initial residual = 0.00215207, Final residual = 4.50202e-06, No Iterations 5
DILUPBiCGStab:  Solving for Uy, Initial residual = 0.0055678, Final residual = 7.89004e-06, No Iterations 5
DILUPBiCGStab:  Solving for Uz, Initial residual = 0.0364978, Final residual = 0.000100092, No Iterations 5
linear solve U 145872
[OGL LOG] init_preconditioner : 0 ms
[OGL LOG] solve : 213 ms
nonecudaGKOBiCGStab:  Solving for p, Initial residual = 0.100187, Final residual = 4.33686e-07, No Iterations 341
linear solve p 218314
time step continuity errors : sum local = 2.07912e-06, global = -6.72874e-21, cumulative = 1.32714e-19
[OGL LOG] init_preconditioner : 0 ms
[OGL LOG] solve : 211 ms
nonecudaGKOBiCGStab:  Solving for p, Initial residual = 0.0758007, Final residual = 8.42349e-07, No Iterations 340
linear solve p 216267
time step continuity errors : sum local = 1.39765e-06, global = -7.39364e-20, cumulative = 5.87773e-20
ExecutionTime = 6.64 s  ClockTime = 7 s

Time = 0.0109091

Courant Number mean: 0.180069 max: 0.939963
DILUPBiCGStab:  Solving for Ux, Initial residual = 0.00177686, Final residual = 3.04235e-06, No Iterations 5
DILUPBiCGStab:  Solving for Uy, Initial residual = 0.00475832, Final residual = 5.99564e-06, No Iterations 5
DILUPBiCGStab:  Solving for Uz, Initial residual = 0.031104, Final residual = 7.94217e-05, No Iterations 5
linear solve U 156040
[OGL LOG] init_preconditioner : 0 ms
[OGL LOG] solve : 217 ms
nonecudaGKOBiCGStab:  Solving for p, Initial residual = 0.0753946, Final residual = 8.47625e-07, No Iterations 350
linear solve p 223012
time step continuity errors : sum local = 1.00739e-05, global = -1.29341e-20, cumulative = 4.58432e-20
[OGL LOG] init_preconditioner : 0 ms
[OGL LOG] solve : 101 ms
nonecudaGKOBiCGStab:  Solving for p, Initial residual = 0.0565898, Final residual = 8.95078e-07, No Iterations 156
linear solve p 106387
time step continuity errors : sum local = 3.64277e-07, global = -3.43096e-20, cumulative = 1.15336e-20
ExecutionTime = 7.23 s  ClockTime = 8 s

Time = 0.0127273

Courant Number mean: 0.18131 max: 0.940376
DILUPBiCGStab:  Solving for Ux, Initial residual = 0.00150502, Final residual = 1.90778e-06, No Iterations 5
DILUPBiCGStab:  Solving for Uy, Initial residual = 0.0040066, Final residual = 4.71443e-06, No Iterations 5
DILUPBiCGStab:  Solving for Uz, Initial residual = 0.0352275, Final residual = 0.000111599, No Iterations 5
linear solve U 145483
[OGL LOG] init_preconditioner : 0 ms
[OGL LOG] solve : 207 ms
nonecudaGKOBiCGStab:  Solving for p, Initial residual = 0.0736547, Final residual = 7.69854e-07, No Iterations 334
linear solve p 212735
time step continuity errors : sum local = 1.80326e-06, global = -2.82745e-22, cumulative = 1.12509e-20
[OGL LOG] init_preconditioner : 0 ms
[OGL LOG] solve : 203 ms
nonecudaGKOBiCGStab:  Solving for p, Initial residual = 0.0574868, Final residual = 9.63536e-07, No Iterations 330
linear solve p 207907
time step continuity errors : sum local = 9.83318e-07, global = -9.41482e-21, cumulative = 1.83607e-21
ExecutionTime = 7.89 s  ClockTime = 8 s

Time = 0.0145455

Courant Number mean: 0.182405 max: 0.940818
DILUPBiCGStab:  Solving for Ux, Initial residual = 0.00129266, Final residual = 1.33672e-06, No Iterations 5
DILUPBiCGStab:  Solving for Uy, Initial residual = 0.00353551, Final residual = 3.82746e-06, No Iterations 5
DILUPBiCGStab:  Solving for Uz, Initial residual = 0.0291241, Final residual = 7.54236e-05, No Iterations 5
linear solve U 146328
[OGL LOG] init_preconditioner : 0 ms
[OGL LOG] solve : 206 ms
nonecudaGKOBiCGStab:  Solving for p, Initial residual = 0.0577888, Final residual = 6.82401e-07, No Iterations 336
linear solve p 211670
time step continuity errors : sum local = 3.6625e-06, global = 3.61312e-20, cumulative = 3.79673e-20
[OGL LOG] init_preconditioner : 0 ms
[OGL LOG] solve : 200 ms
nonecudaGKOBiCGStab:  Solving for p, Initial residual = 0.0450128, Final residual = 8.85068e-07, No Iterations 319
linear solve p 206241
time step continuity errors : sum local = 3.64296e-07, global = -2.55407e-20, cumulative = 1.24266e-20
ExecutionTime = 8.54 s  ClockTime = 9 s

Time = 0.0163636

Courant Number mean: 0.183372 max: 0.941134
DILUPBiCGStab:  Solving for Ux, Initial residual = 0.00112331, Final residual = 8.22075e-07, No Iterations 5
DILUPBiCGStab:  Solving for Uy, Initial residual = 0.00303356, Final residual = 2.82755e-06, No Iterations 5
DILUPBiCGStab:  Solving for Uz, Initial residual = 0.0259352, Final residual = 6.41057e-05, No Iterations 5
linear solve U 148527
[OGL LOG] init_preconditioner : 0 ms
[OGL LOG] solve : 193 ms
nonecudaGKOBiCGStab:  Solving for p, Initial residual = 0.0497277, Final residual = 9.63803e-07, No Iterations 310
linear solve p 198104
time step continuity errors : sum local = 4.91152e-06, global = -2.30046e-20, cumulative = -1.0578e-20
[OGL LOG] init_preconditioner : 0 ms
[OGL LOG] solve : 201 ms
nonecudaGKOBiCGStab:  Solving for p, Initial residual = 0.0384702, Final residual = 9.28003e-07, No Iterations 325
linear solve p 206093
time step continuity errors : sum local = 7.06781e-07, global = -2.08029e-20, cumulative = -3.1381e-20
ExecutionTime = 9.19 s  ClockTime = 10 s

Time = 0.0181818

Courant Number mean: 0.18423 max: 0.941455
DILUPBiCGStab:  Solving for Ux, Initial residual = 0.000974402, Final residual = 7.78727e-07, No Iterations 5
DILUPBiCGStab:  Solving for Uy, Initial residual = 0.00271057, Final residual = 2.94395e-06, No Iterations 5
DILUPBiCGStab:  Solving for Uz, Initial residual = 0.0252224, Final residual = 6.54423e-05, No Iterations 5
linear solve U 149381
[OGL LOG] init_preconditioner : 0 ms
[OGL LOG] solve : 192 ms
nonecudaGKOBiCGStab:  Solving for p, Initial residual = 0.0464869, Final residual = 7.93487e-07, No Iterations 308
linear solve p 197303
time step continuity errors : sum local = 3.63892e-07, global = 8.26654e-21, cumulative = -2.31144e-20
[OGL LOG] init_preconditioner : 0 ms
[OGL LOG] solve : 197 ms
nonecudaGKOBiCGStab:  Solving for p, Initial residual = 0.0371751, Final residual = 9.98822e-07, No Iterations 318
linear solve p 202596
time step continuity errors : sum local = 4.85977e-07, global = -7.24975e-20, cumulative = -9.56119e-20
ExecutionTime = 9.83 s  ClockTime = 10 s

End

