/*---------------------------------------------------------------------------*\
  =========                 |
  \\      /  F ield         | OpenFOAM: The Open Source CFD Toolbox
   \\    /   O peration     | Website:  https://openfoam.org
    \\  /    A nd           | Version:  8
     \\/     M anipulation  |
\*---------------------------------------------------------------------------*/
Build  : 8-ef60d22ea792
Exec   : icoFoam
Date   : Sep 15 2021
Time   : 13:37:54
Host   : "uc2n482.localdomain"
PID    : 3634909
I/O    : uncollated
Case   : /pfs/data5/home/kit/scc/nq7776/data/code/OBR/lidDrivenCavity3D/Variation_init/100/Variation_mesh/65/Variation_matrix_solver/CG_BJ_CUDA/Variation_maxBlockSize/2/1631705862
nProcs : 1
sigFpe : Enabling floating point exception trapping (FOAM_SIGFPE).
fileModificationChecking : Monitoring run-time modified files using timeStampMaster (fileModificationSkew 10)
allowSystemOperations : Allowing user-supplied system call operations

// * * * * * * * * * * * * * * * * * * * * * * * * * * * * * * * * * * * * * //
Create time

Create mesh for time = 0

Reading transportProperties

Reading field p

Reading field U

Reading/calculating face flux field phi


Starting time loop

Time = 0.00153846

Courant Number mean: 0.17093 max: 0.953778
DILUPBiCGStab:  Solving for Ux, Initial residual = 0.112594, Final residual = 8.25037e-05, No Iterations 5
DILUPBiCGStab:  Solving for Uy, Initial residual = 0.214167, Final residual = 0.00019351, No Iterations 5
DILUPBiCGStab:  Solving for Uz, Initial residual = 0.265767, Final residual = 0.000360103, No Iterations 5
linear solve U 279085
[OGL LOG] init_host_sparsity_pattern : 77 ms
[OGL LOG] matrix not stored update host matrix
[OGL LOG] update_host_mtx : 43 ms
[OGL LOG] matrix is not yet sorted, compute sorting idxs
[OGL LOG] compute_sort : 2474 ms
[OGL LOG] matrix is not yet sorted, sorting host matrix
[OGL LOG] sort_host_mtx_sparsity_pattern : 55 ms
[OGL LOG] sort_host_mtx : 30 ms
[OGL LOG] init_preconditioner : 30 ms
[OGL LOG] solve : 225 ms
BJcudaGKOCG:  Solving for p, Initial residual = 0.554571, Final residual = 9.10069e-07, No Iterations 456
linear solve p 3719911
time step continuity errors : sum local = 1.21088e-09, global = -4.776e-21, cumulative = -4.776e-21
[OGL LOG] init_preconditioner : 0 ms
[OGL LOG] solve : 222 ms
BJcudaGKOCG:  Solving for p, Initial residual = 0.328964, Final residual = 9.95518e-07, No Iterations 462
linear solve p 231183
time step continuity errors : sum local = 8.03036e-10, global = 1.17133e-21, cumulative = -3.60467e-21
ExecutionTime = 5.74 s  ClockTime = 6 s

Time = 0.00307692

Courant Number mean: 0.173153 max: 0.946981
DILUPBiCGStab:  Solving for Ux, Initial residual = 0.00646101, Final residual = 2.91063e-05, No Iterations 5
DILUPBiCGStab:  Solving for Uy, Initial residual = 0.0152954, Final residual = 6.58736e-05, No Iterations 5
DILUPBiCGStab:  Solving for Uz, Initial residual = 0.0410364, Final residual = 0.000215693, No Iterations 5
linear solve U 251959
[OGL LOG] init_preconditioner : 0 ms
[OGL LOG] solve : 241 ms
BJcudaGKOCG:  Solving for p, Initial residual = 0.25902, Final residual = 9.91684e-07, No Iterations 492
linear solve p 251665
time step continuity errors : sum local = 2.58251e-07, global = 7.79347e-21, cumulative = 4.18881e-21
[OGL LOG] init_preconditioner : 0 ms
[OGL LOG] solve : 246 ms
BJcudaGKOCG:  Solving for p, Initial residual = 0.210446, Final residual = 9.73042e-07, No Iterations 490
linear solve p 255137
time step continuity errors : sum local = 2.47647e-07, global = 1.19735e-20, cumulative = 1.61623e-20
ExecutionTime = 6.67 s  ClockTime = 7 s

Time = 0.00461538

Courant Number mean: 0.174968 max: 0.947843
DILUPBiCGStab:  Solving for Ux, Initial residual = 0.00331102, Final residual = 1.28475e-05, No Iterations 5
DILUPBiCGStab:  Solving for Uy, Initial residual = 0.00810313, Final residual = 2.89735e-05, No Iterations 5
DILUPBiCGStab:  Solving for Uz, Initial residual = 0.0238027, Final residual = 0.000136591, No Iterations 5
linear solve U 263957
[OGL LOG] init_preconditioner : 0 ms
[OGL LOG] solve : 230 ms
BJcudaGKOCG:  Solving for p, Initial residual = 0.16804, Final residual = 9.94572e-07, No Iterations 456
linear solve p 239162
time step continuity errors : sum local = 2.472e-07, global = -3.38456e-21, cumulative = 1.27777e-20
[OGL LOG] init_preconditioner : 0 ms
[OGL LOG] solve : 219 ms
BJcudaGKOCG:  Solving for p, Initial residual = 0.135523, Final residual = 9.85373e-07, No Iterations 451
linear solve p 230146
time step continuity errors : sum local = 2.46531e-07, global = -2.44073e-20, cumulative = -1.16296e-20
ExecutionTime = 7.58 s  ClockTime = 8 s

Time = 0.00615385

Courant Number mean: 0.176518 max: 0.947985
DILUPBiCGStab:  Solving for Ux, Initial residual = 0.00229886, Final residual = 8.4857e-06, No Iterations 5
DILUPBiCGStab:  Solving for Uy, Initial residual = 0.00670339, Final residual = 1.83242e-05, No Iterations 5
DILUPBiCGStab:  Solving for Uz, Initial residual = 0.0192851, Final residual = 8.40774e-05, No Iterations 5
linear solve U 252034
[OGL LOG] init_preconditioner : 0 ms
[OGL LOG] solve : 216 ms
BJcudaGKOCG:  Solving for p, Initial residual = 0.117474, Final residual = 9.32828e-07, No Iterations 448
linear solve p 225328
time step continuity errors : sum local = 2.46834e-07, global = 2.58958e-20, cumulative = 1.42662e-20
[OGL LOG] init_preconditioner : 0 ms
[OGL LOG] solve : 216 ms
BJcudaGKOCG:  Solving for p, Initial residual = 0.0952296, Final residual = 9.42619e-07, No Iterations 446
linear solve p 225058
time step continuity errors : sum local = 2.46713e-07, global = 5.69904e-21, cumulative = 1.99652e-20
ExecutionTime = 8.46 s  ClockTime = 8 s

Time = 0.00769231

Courant Number mean: 0.17797 max: 0.948443
DILUPBiCGStab:  Solving for Ux, Initial residual = 0.00194859, Final residual = 6.6008e-06, No Iterations 5
DILUPBiCGStab:  Solving for Uy, Initial residual = 0.00523611, Final residual = 1.35812e-05, No Iterations 5
DILUPBiCGStab:  Solving for Uz, Initial residual = 0.013723, Final residual = 5.09375e-05, No Iterations 5
linear solve U 256435
[OGL LOG] init_preconditioner : 0 ms
[OGL LOG] solve : 209 ms
BJcudaGKOCG:  Solving for p, Initial residual = 0.0839282, Final residual = 9.96096e-07, No Iterations 431
linear solve p 217913
time step continuity errors : sum local = 2.46931e-07, global = -2.74089e-20, cumulative = -7.44362e-21
[OGL LOG] init_preconditioner : 0 ms
[OGL LOG] solve : 208 ms
BJcudaGKOCG:  Solving for p, Initial residual = 0.0673243, Final residual = 9.45452e-07, No Iterations 430
linear solve p 217124
time step continuity errors : sum local = 2.46635e-07, global = -1.83368e-21, cumulative = -9.2773e-21
ExecutionTime = 9.31 s  ClockTime = 9 s

Time = 0.00923077

Courant Number mean: 0.179261 max: 0.948913
DILUPBiCGStab:  Solving for Ux, Initial residual = 0.00160216, Final residual = 5.24921e-06, No Iterations 5
DILUPBiCGStab:  Solving for Uy, Initial residual = 0.00455728, Final residual = 9.17216e-06, No Iterations 5
DILUPBiCGStab:  Solving for Uz, Initial residual = 0.0115556, Final residual = 3.57826e-05, No Iterations 5
linear solve U 256675
[OGL LOG] init_preconditioner : 0 ms
[OGL LOG] solve : 132 ms
BJcudaGKOCG:  Solving for p, Initial residual = 0.0613606, Final residual = 9.68011e-07, No Iterations 273
linear solve p 141171
time step continuity errors : sum local = 2.46771e-07, global = -6.76884e-21, cumulative = -1.60461e-20
[OGL LOG] init_preconditioner : 0 ms
[OGL LOG] solve : 128 ms
BJcudaGKOCG:  Solving for p, Initial residual = 0.04949, Final residual = 9.95051e-07, No Iterations 264
linear solve p 136501
time step continuity errors : sum local = 2.46705e-07, global = -2.88157e-21, cumulative = -1.89277e-20
ExecutionTime = 10.01 s  ClockTime = 10 s

Time = 0.0107692

Courant Number mean: 0.180428 max: 0.949219
DILUPBiCGStab:  Solving for Ux, Initial residual = 0.00140673, Final residual = 4.23223e-06, No Iterations 5
DILUPBiCGStab:  Solving for Uy, Initial residual = 0.00391319, Final residual = 6.18751e-06, No Iterations 5
DILUPBiCGStab:  Solving for Uz, Initial residual = 0.00900426, Final residual = 2.49478e-05, No Iterations 5
linear solve U 252512
[OGL LOG] init_preconditioner : 0 ms
[OGL LOG] solve : 214 ms
BJcudaGKOCG:  Solving for p, Initial residual = 0.045372, Final residual = 9.74402e-07, No Iterations 436
linear solve p 223932
time step continuity errors : sum local = 2.46698e-07, global = 5.85548e-21, cumulative = -1.30722e-20
[OGL LOG] init_preconditioner : 0 ms
[OGL LOG] solve : 210 ms
BJcudaGKOCG:  Solving for p, Initial residual = 0.03632, Final residual = 9.99569e-07, No Iterations 434
linear solve p 218832
time step continuity errors : sum local = 2.46669e-07, global = -2.52984e-20, cumulative = -3.83707e-20
ExecutionTime = 10.88 s  ClockTime = 11 s

Time = 0.0123077

Courant Number mean: 0.181475 max: 0.949601
DILUPBiCGStab:  Solving for Ux, Initial residual = 0.00121891, Final residual = 3.14097e-06, No Iterations 5
DILUPBiCGStab:  Solving for Uy, Initial residual = 0.00346977, Final residual = 4.46671e-06, No Iterations 5
DILUPBiCGStab:  Solving for Uz, Initial residual = 0.00774357, Final residual = 1.96841e-05, No Iterations 5
linear solve U 256701
[OGL LOG] init_preconditioner : 0 ms
[OGL LOG] solve : 208 ms
BJcudaGKOCG:  Solving for p, Initial residual = 0.0338709, Final residual = 9.99286e-07, No Iterations 431
linear solve p 217492
time step continuity errors : sum local = 2.46654e-07, global = 2.3631e-20, cumulative = -1.47397e-20
[OGL LOG] init_preconditioner : 0 ms
[OGL LOG] solve : 209 ms
BJcudaGKOCG:  Solving for p, Initial residual = 0.0272765, Final residual = 9.93371e-07, No Iterations 429
linear solve p 218258
time step continuity errors : sum local = 2.46652e-07, global = -3.65567e-20, cumulative = -5.12963e-20
ExecutionTime = 11.72 s  ClockTime = 12 s

Time = 0.0138462

Courant Number mean: 0.182418 max: 0.949852
DILUPBiCGStab:  Solving for Ux, Initial residual = 0.00108408, Final residual = 2.3912e-06, No Iterations 5
DILUPBiCGStab:  Solving for Uy, Initial residual = 0.00306005, Final residual = 3.28793e-06, No Iterations 5
DILUPBiCGStab:  Solving for Uz, Initial residual = 0.00642688, Final residual = 1.61897e-05, No Iterations 5
linear solve U 251434
[OGL LOG] init_preconditioner : 0 ms
[OGL LOG] solve : 198 ms
BJcudaGKOCG:  Solving for p, Initial residual = 0.0254828, Final residual = 9.48561e-07, No Iterations 412
linear solve p 207024
time step continuity errors : sum local = 2.46622e-07, global = -6.42771e-21, cumulative = -5.7724e-20
[OGL LOG] init_preconditioner : 0 ms
[OGL LOG] solve : 198 ms
BJcudaGKOCG:  Solving for p, Initial residual = 0.0203986, Final residual = 9.44176e-07, No Iterations 411
linear solve p 207023
time step continuity errors : sum local = 2.46621e-07, global = 3.75369e-21, cumulative = -5.39703e-20
ExecutionTime = 12.55 s  ClockTime = 13 s

Time = 0.0153846

Courant Number mean: 0.183267 max: 0.95014
DILUPBiCGStab:  Solving for Ux, Initial residual = 0.000958913, Final residual = 1.63984e-06, No Iterations 5
DILUPBiCGStab:  Solving for Uy, Initial residual = 0.00274781, Final residual = 2.3268e-06, No Iterations 5
DILUPBiCGStab:  Solving for Uz, Initial residual = 0.00562814, Final residual = 1.25954e-05, No Iterations 5
linear solve U 260458
[OGL LOG] init_preconditioner : 0 ms
[OGL LOG] solve : 205 ms
BJcudaGKOCG:  Solving for p, Initial residual = 0.0193247, Final residual = 9.21603e-07, No Iterations 421
linear solve p 214318
time step continuity errors : sum local = 2.46617e-07, global = -1.39071e-20, cumulative = -6.78775e-20
[OGL LOG] init_preconditioner : 0 ms
[OGL LOG] solve : 204 ms
BJcudaGKOCG:  Solving for p, Initial residual = 0.0156206, Final residual = 9.53814e-07, No Iterations 420
linear solve p 212859
time step continuity errors : sum local = 2.46621e-07, global = 5.71307e-21, cumulative = -6.21644e-20
ExecutionTime = 13.4 s  ClockTime = 13 s

End

