/*---------------------------------------------------------------------------*\
  =========                 |
  \\      /  F ield         | OpenFOAM: The Open Source CFD Toolbox
   \\    /   O peration     | Website:  https://openfoam.org
    \\  /    A nd           | Version:  8
     \\/     M anipulation  |
\*---------------------------------------------------------------------------*/
Build  : 8-ef60d22ea792
Exec   : icoFoam
Date   : Sep 15 2021
Time   : 14:40:06
Host   : "uc2n482.localdomain"
PID    : 3652633
I/O    : uncollated
Case   : /pfs/data5/home/kit/scc/nq7776/data/code/OBR/lidDrivenCavity3D/Variation_init/100/Variation_mesh/80/Variation_matrix_solver/CG_NoPrecond_CUDA/1631709585
nProcs : 1
sigFpe : Enabling floating point exception trapping (FOAM_SIGFPE).
fileModificationChecking : Monitoring run-time modified files using timeStampMaster (fileModificationSkew 10)
allowSystemOperations : Allowing user-supplied system call operations

// * * * * * * * * * * * * * * * * * * * * * * * * * * * * * * * * * * * * * //
Create time

Create mesh for time = 0

Reading transportProperties

Reading field p

Reading field U

Reading/calculating face flux field phi


Starting time loop

Time = 0.00125

Courant Number mean: 0.170872 max: 0.956305
DILUPBiCGStab:  Solving for Ux, Initial residual = 0.0907333, Final residual = 0.00013873, No Iterations 5
DILUPBiCGStab:  Solving for Uy, Initial residual = 0.175752, Final residual = 0.000395244, No Iterations 5
DILUPBiCGStab:  Solving for Uz, Initial residual = 0.2223, Final residual = 0.000391641, No Iterations 5
linear solve U 545897
[OGL LOG] init_host_sparsity_pattern : 141 ms
[OGL LOG] matrix not stored update host matrix
[OGL LOG] update_host_mtx : 80 ms
[OGL LOG] matrix is not yet sorted, compute sorting idxs
[OGL LOG] compute_sort : 4633 ms
[OGL LOG] matrix is not yet sorted, sorting host matrix
[OGL LOG] sort_host_mtx_sparsity_pattern : 102 ms
[OGL LOG] sort_host_mtx : 61 ms
[OGL LOG] init_preconditioner : 0 ms
[OGL LOG] solve : 471 ms
nonecudaGKOCG:  Solving for p, Initial residual = 0.619793, Final residual = 9.74336e-07, No Iterations 661
linear solve p 6294034
time step continuity errors : sum local = 8.04668e-10, global = -1.37722e-21, cumulative = -1.37722e-21
[OGL LOG] init_preconditioner : 0 ms
[OGL LOG] solve : 469 ms
nonecudaGKOCG:  Solving for p, Initial residual = 0.305886, Final residual = 9.24321e-07, No Iterations 661
linear solve p 485834
time step continuity errors : sum local = 6.0953e-10, global = -1.13016e-20, cumulative = -1.26788e-20
ExecutionTime = 9.89 s  ClockTime = 10 s

Time = 0.0025

Courant Number mean: 0.172587 max: 0.956625
DILUPBiCGStab:  Solving for Ux, Initial residual = 0.00609836, Final residual = 2.52818e-05, No Iterations 5
DILUPBiCGStab:  Solving for Uy, Initial residual = 0.0152778, Final residual = 8.344e-05, No Iterations 5
DILUPBiCGStab:  Solving for Uz, Initial residual = 0.0343273, Final residual = 0.00045514, No Iterations 5
linear solve U 501502
[OGL LOG] init_preconditioner : 0 ms
[OGL LOG] solve : 468 ms
nonecudaGKOCG:  Solving for p, Initial residual = 0.304274, Final residual = 9.89571e-07, No Iterations 662
linear solve p 483467
time step continuity errors : sum local = 7.92614e-08, global = -4.95352e-21, cumulative = -1.76324e-20
[OGL LOG] init_preconditioner : 0 ms
[OGL LOG] solve : 472 ms
nonecudaGKOCG:  Solving for p, Initial residual = 0.186321, Final residual = 9.70652e-07, No Iterations 660
linear solve p 489347
time step continuity errors : sum local = 7.67151e-08, global = -1.34981e-20, cumulative = -3.11305e-20
ExecutionTime = 11.66 s  ClockTime = 12 s

Time = 0.00375

Courant Number mean: 0.174167 max: 0.956979
DILUPBiCGStab:  Solving for Ux, Initial residual = 0.00272597, Final residual = 1.98743e-05, No Iterations 5
DILUPBiCGStab:  Solving for Uy, Initial residual = 0.00797018, Final residual = 4.87012e-05, No Iterations 5
DILUPBiCGStab:  Solving for Uz, Initial residual = 0.0231325, Final residual = 0.000236736, No Iterations 5
linear solve U 504297
[OGL LOG] init_preconditioner : 0 ms
[OGL LOG] solve : 471 ms
nonecudaGKOCG:  Solving for p, Initial residual = 0.175566, Final residual = 9.89474e-07, No Iterations 659
linear solve p 487577
time step continuity errors : sum local = 7.81624e-08, global = 2.95808e-20, cumulative = -1.54963e-21
[OGL LOG] init_preconditioner : 0 ms
[OGL LOG] solve : 464 ms
nonecudaGKOCG:  Solving for p, Initial residual = 0.128459, Final residual = 9.68447e-07, No Iterations 656
linear solve p 480015
time step continuity errors : sum local = 7.64873e-08, global = 1.46275e-20, cumulative = 1.30779e-20
ExecutionTime = 13.44 s  ClockTime = 13 s

Time = 0.005

Courant Number mean: 0.175607 max: 0.957347
DILUPBiCGStab:  Solving for Ux, Initial residual = 0.00209245, Final residual = 1.42154e-05, No Iterations 5
DILUPBiCGStab:  Solving for Uy, Initial residual = 0.0066496, Final residual = 3.3267e-05, No Iterations 5
DILUPBiCGStab:  Solving for Uz, Initial residual = 0.0198728, Final residual = 0.000186909, No Iterations 5
linear solve U 505087
[OGL LOG] init_preconditioner : 0 ms
[OGL LOG] solve : 465 ms
nonecudaGKOCG:  Solving for p, Initial residual = 0.13121, Final residual = 9.62148e-07, No Iterations 649
linear solve p 482047
time step continuity errors : sum local = 7.56762e-08, global = 8.38722e-21, cumulative = 2.14651e-20
[OGL LOG] init_preconditioner : 0 ms
[OGL LOG] solve : 458 ms
nonecudaGKOCG:  Solving for p, Initial residual = 0.103885, Final residual = 9.50338e-07, No Iterations 647
linear solve p 473947
time step continuity errors : sum local = 7.65508e-08, global = -9.32601e-21, cumulative = 1.21391e-20
ExecutionTime = 15.22 s  ClockTime = 15 s

Time = 0.00625

Courant Number mean: 0.176919 max: 0.957715
DILUPBiCGStab:  Solving for Ux, Initial residual = 0.00180829, Final residual = 1.12385e-05, No Iterations 5
DILUPBiCGStab:  Solving for Uy, Initial residual = 0.00546601, Final residual = 2.38187e-05, No Iterations 5
DILUPBiCGStab:  Solving for Uz, Initial residual = 0.0155363, Final residual = 0.000136073, No Iterations 5
linear solve U 496518
[OGL LOG] init_preconditioner : 0 ms
[OGL LOG] solve : 458 ms
nonecudaGKOCG:  Solving for p, Initial residual = 0.102547, Final residual = 9.93561e-07, No Iterations 644
linear solve p 474100
time step continuity errors : sum local = 7.72696e-08, global = 2.27574e-20, cumulative = 3.48965e-20
[OGL LOG] init_preconditioner : 0 ms
[OGL LOG] solve : 455 ms
nonecudaGKOCG:  Solving for p, Initial residual = 0.0820783, Final residual = 9.56542e-07, No Iterations 642
linear solve p 471719
time step continuity errors : sum local = 7.65203e-08, global = 6.88751e-21, cumulative = 4.1784e-20
ExecutionTime = 16.95 s  ClockTime = 17 s

Time = 0.0075

Courant Number mean: 0.178117 max: 0.95808
DILUPBiCGStab:  Solving for Ux, Initial residual = 0.00156866, Final residual = 9.33969e-06, No Iterations 5
DILUPBiCGStab:  Solving for Uy, Initial residual = 0.00480631, Final residual = 1.8334e-05, No Iterations 5
DILUPBiCGStab:  Solving for Uz, Initial residual = 0.0133349, Final residual = 9.97625e-05, No Iterations 5
linear solve U 506981
[OGL LOG] init_preconditioner : 0 ms
[OGL LOG] solve : 452 ms
nonecudaGKOCG:  Solving for p, Initial residual = 0.084109, Final residual = 9.81043e-07, No Iterations 638
linear solve p 468003
time step continuity errors : sum local = 7.61531e-08, global = 1.4257e-20, cumulative = 5.60411e-20
[OGL LOG] init_preconditioner : 0 ms
[OGL LOG] solve : 451 ms
nonecudaGKOCG:  Solving for p, Initial residual = 0.0682267, Final residual = 9.5838e-07, No Iterations 636
linear solve p 467242
time step continuity errors : sum local = 7.65269e-08, global = -1.56285e-20, cumulative = 4.04125e-20
ExecutionTime = 18.69 s  ClockTime = 19 s

Time = 0.00875

Courant Number mean: 0.179203 max: 0.958354
DILUPBiCGStab:  Solving for Ux, Initial residual = 0.00137905, Final residual = 7.58873e-06, No Iterations 5
DILUPBiCGStab:  Solving for Uy, Initial residual = 0.00418586, Final residual = 1.49311e-05, No Iterations 5
DILUPBiCGStab:  Solving for Uz, Initial residual = 0.010764, Final residual = 6.68937e-05, No Iterations 5
linear solve U 502177
[OGL LOG] init_preconditioner : 0 ms
[OGL LOG] solve : 426 ms
nonecudaGKOCG:  Solving for p, Initial residual = 0.0688144, Final residual = 9.43277e-07, No Iterations 602
linear solve p 442951
time step continuity errors : sum local = 7.68066e-08, global = 9.28523e-21, cumulative = 4.96977e-20
[OGL LOG] init_preconditioner : 0 ms
[OGL LOG] solve : 428 ms
nonecudaGKOCG:  Solving for p, Initial residual = 0.0558631, Final residual = 9.47586e-07, No Iterations 602
linear solve p 444499
time step continuity errors : sum local = 7.65124e-08, global = 2.27518e-21, cumulative = 5.19729e-20
ExecutionTime = 20.38 s  ClockTime = 20 s

Time = 0.01

Courant Number mean: 0.180199 max: 0.958646
DILUPBiCGStab:  Solving for Ux, Initial residual = 0.00123654, Final residual = 6.64415e-06, No Iterations 5
DILUPBiCGStab:  Solving for Uy, Initial residual = 0.0037244, Final residual = 1.06843e-05, No Iterations 5
DILUPBiCGStab:  Solving for Uz, Initial residual = 0.00938481, Final residual = 5.11619e-05, No Iterations 5
linear solve U 502376
[OGL LOG] init_preconditioner : 0 ms
[OGL LOG] solve : 449 ms
nonecudaGKOCG:  Solving for p, Initial residual = 0.0568359, Final residual = 9.71771e-07, No Iterations 630
linear solve p 465324
time step continuity errors : sum local = 7.63873e-08, global = 3.35085e-20, cumulative = 8.54814e-20
[OGL LOG] init_preconditioner : 0 ms
[OGL LOG] solve : 447 ms
nonecudaGKOCG:  Solving for p, Initial residual = 0.0464018, Final residual = 9.60128e-07, No Iterations 628
linear solve p 463220
time step continuity errors : sum local = 7.65172e-08, global = -1.43529e-22, cumulative = 8.53379e-20
ExecutionTime = 22.14 s  ClockTime = 22 s

Time = 0.01125

Courant Number mean: 0.181104 max: 0.958866
DILUPBiCGStab:  Solving for Ux, Initial residual = 0.00109737, Final residual = 5.1145e-06, No Iterations 5
DILUPBiCGStab:  Solving for Uy, Initial residual = 0.00332117, Final residual = 9.68029e-06, No Iterations 5
DILUPBiCGStab:  Solving for Uz, Initial residual = 0.0077791, Final residual = 3.55554e-05, No Iterations 5
linear solve U 501537
[OGL LOG] init_preconditioner : 0 ms
[OGL LOG] solve : 449 ms
nonecudaGKOCG:  Solving for p, Initial residual = 0.0471991, Final residual = 9.76827e-07, No Iterations 628
linear solve p 465829
time step continuity errors : sum local = 7.66449e-08, global = -9.48489e-21, cumulative = 7.5853e-20
[OGL LOG] init_preconditioner : 0 ms
[OGL LOG] solve : 446 ms
nonecudaGKOCG:  Solving for p, Initial residual = 0.0385697, Final residual = 9.41505e-07, No Iterations 627
linear solve p 462786
time step continuity errors : sum local = 7.65088e-08, global = 2.18218e-20, cumulative = 9.76748e-20
ExecutionTime = 23.85 s  ClockTime = 24 s

Time = 0.0125

Courant Number mean: 0.181936 max: 0.959099
DILUPBiCGStab:  Solving for Ux, Initial residual = 0.000997486, Final residual = 4.78138e-06, No Iterations 5
DILUPBiCGStab:  Solving for Uy, Initial residual = 0.00298582, Final residual = 6.76191e-06, No Iterations 5
DILUPBiCGStab:  Solving for Uz, Initial residual = 0.00690846, Final residual = 2.93957e-05, No Iterations 5
linear solve U 496631
[OGL LOG] init_preconditioner : 0 ms
[OGL LOG] solve : 261 ms
nonecudaGKOCG:  Solving for p, Initial residual = 0.0390468, Final residual = 9.92895e-07, No Iterations 366
linear solve p 276928
time step continuity errors : sum local = 7.64913e-08, global = 2.37047e-20, cumulative = 1.2138e-19
[OGL LOG] init_preconditioner : 0 ms
[OGL LOG] solve : 264 ms
nonecudaGKOCG:  Solving for p, Initial residual = 0.0320089, Final residual = 9.73824e-07, No Iterations 365
linear solve p 281402
time step continuity errors : sum local = 7.65543e-08, global = -1.68825e-20, cumulative = 1.04497e-19
ExecutionTime = 25.21 s  ClockTime = 25 s

End

