/*---------------------------------------------------------------------------*\
  =========                 |
  \\      /  F ield         | OpenFOAM: The Open Source CFD Toolbox
   \\    /   O peration     | Website:  https://openfoam.org
    \\  /    A nd           | Version:  8
     \\/     M anipulation  |
\*---------------------------------------------------------------------------*/
Build  : 8-ef60d22ea792
Exec   : icoFoam
Date   : Sep 15 2021
Time   : 15:00:25
Host   : "uc2n482.localdomain"
PID    : 3658264
I/O    : uncollated
Case   : /pfs/data5/home/kit/scc/nq7776/data/code/OBR/lidDrivenCavity3D/Variation_init/100/Variation_mesh/50/Variation_matrix_solver/CG_BJ_CUDA/Variation_maxBlockSize/1/1631710819
nProcs : 1
sigFpe : Enabling floating point exception trapping (FOAM_SIGFPE).
fileModificationChecking : Monitoring run-time modified files using timeStampMaster (fileModificationSkew 10)
allowSystemOperations : Allowing user-supplied system call operations

// * * * * * * * * * * * * * * * * * * * * * * * * * * * * * * * * * * * * * //
Create time

Create mesh for time = 0

Reading transportProperties

Reading field p

Reading field U

Reading/calculating face flux field phi


Starting time loop

Time = 0.002

Courant Number mean: 0.171832 max: 0.950949
DILUPBiCGStab:  Solving for Ux, Initial residual = 0.170437, Final residual = 6.82397e-05, No Iterations 5
DILUPBiCGStab:  Solving for Uy, Initial residual = 0.34992, Final residual = 0.000142663, No Iterations 5
DILUPBiCGStab:  Solving for Uz, Initial residual = 0.557699, Final residual = 0.000189983, No Iterations 5
linear solve U 115836
[OGL LOG] init_host_sparsity_pattern : 34 ms
[OGL LOG] matrix not stored update host matrix
[OGL LOG] update_host_mtx : 17 ms
[OGL LOG] matrix is not yet sorted, compute sorting idxs
[OGL LOG] compute_sort : 1052 ms
[OGL LOG] matrix is not yet sorted, sorting host matrix
[OGL LOG] sort_host_mtx_sparsity_pattern : 25 ms
[OGL LOG] sort_host_mtx : 13 ms
[OGL LOG] init_preconditioner : 0 ms
[OGL LOG] solve : 64 ms
BJcudaGKOCG:  Solving for p, Initial residual = 0.678275, Final residual = 9.94611e-07, No Iterations 404
linear solve p 1976648
time step continuity errors : sum local = 2.98775e-09, global = -6.22817e-20, cumulative = -6.22817e-20
[OGL LOG] init_preconditioner : 0 ms
[OGL LOG] solve : 64 ms
BJcudaGKOCG:  Solving for p, Initial residual = 0.413581, Final residual = 9.57565e-07, No Iterations 409
linear solve p 68402
time step continuity errors : sum local = 1.47228e-09, global = -1.416e-20, cumulative = -7.64416e-20
ExecutionTime = 2.8 s  ClockTime = 3 s

Time = 0.004

Courant Number mean: 0.174856 max: 0.932415
DILUPBiCGStab:  Solving for Ux, Initial residual = 0.0115943, Final residual = 2.67525e-05, No Iterations 5
DILUPBiCGStab:  Solving for Uy, Initial residual = 0.0268869, Final residual = 4.92438e-05, No Iterations 5
DILUPBiCGStab:  Solving for Uz, Initial residual = 0.112849, Final residual = 0.000158134, No Iterations 5
linear solve U 104134
[OGL LOG] init_preconditioner : 0 ms
[OGL LOG] solve : 62 ms
BJcudaGKOCG:  Solving for p, Initial residual = 0.327331, Final residual = 9.92843e-07, No Iterations 413
linear solve p 66274
time step continuity errors : sum local = 7.21983e-07, global = 4.82693e-20, cumulative = -2.81724e-20
[OGL LOG] init_preconditioner : 0 ms
[OGL LOG] solve : 62 ms
BJcudaGKOCG:  Solving for p, Initial residual = 0.243048, Final residual = 9.64965e-07, No Iterations 411
linear solve p 66059
time step continuity errors : sum local = 6.31276e-07, global = 4.47395e-20, cumulative = 1.65672e-20
ExecutionTime = 3.1 s  ClockTime = 3 s

Time = 0.006

Courant Number mean: 0.176822 max: 0.934846
DILUPBiCGStab:  Solving for Ux, Initial residual = 0.00529442, Final residual = 9.84979e-06, No Iterations 5
DILUPBiCGStab:  Solving for Uy, Initial residual = 0.0102196, Final residual = 2.29776e-05, No Iterations 5
DILUPBiCGStab:  Solving for Uz, Initial residual = 0.0485291, Final residual = 7.74154e-05, No Iterations 5
linear solve U 108782
[OGL LOG] init_preconditioner : 0 ms
[OGL LOG] solve : 61 ms
BJcudaGKOCG:  Solving for p, Initial residual = 0.174441, Final residual = 9.88107e-07, No Iterations 406
linear solve p 65665
time step continuity errors : sum local = 6.72931e-07, global = -4.18133e-20, cumulative = -2.52461e-20
[OGL LOG] init_preconditioner : 0 ms
[OGL LOG] solve : 61 ms
BJcudaGKOCG:  Solving for p, Initial residual = 0.133083, Final residual = 9.84371e-07, No Iterations 403
linear solve p 64800
time step continuity errors : sum local = 6.30609e-07, global = -1.1795e-20, cumulative = -3.70411e-20
ExecutionTime = 3.41 s  ClockTime = 3 s

Time = 0.008

Courant Number mean: 0.178238 max: 0.933359
DILUPBiCGStab:  Solving for Ux, Initial residual = 0.00289608, Final residual = 5.569e-06, No Iterations 5
DILUPBiCGStab:  Solving for Uy, Initial residual = 0.00786357, Final residual = 1.00811e-05, No Iterations 5
DILUPBiCGStab:  Solving for Uz, Initial residual = 0.0260341, Final residual = 3.9552e-05, No Iterations 5
linear solve U 104417
[OGL LOG] init_preconditioner : 0 ms
[OGL LOG] solve : 60 ms
BJcudaGKOCG:  Solving for p, Initial residual = 0.10533, Final residual = 9.1856e-07, No Iterations 394
linear solve p 64238
time step continuity errors : sum local = 6.21078e-07, global = -2.36557e-20, cumulative = -6.06968e-20
[OGL LOG] init_preconditioner : 0 ms
[OGL LOG] solve : 61 ms
BJcudaGKOCG:  Solving for p, Initial residual = 0.0812441, Final residual = 9.35002e-07, No Iterations 392
linear solve p 64729
time step continuity errors : sum local = 6.30389e-07, global = 2.75141e-20, cumulative = -3.31827e-20
ExecutionTime = 3.71 s  ClockTime = 3 s

Time = 0.01

Courant Number mean: 0.179753 max: 0.9341
DILUPBiCGStab:  Solving for Ux, Initial residual = 0.00227172, Final residual = 4.01281e-06, No Iterations 5
DILUPBiCGStab:  Solving for Uy, Initial residual = 0.00526712, Final residual = 5.8853e-06, No Iterations 5
DILUPBiCGStab:  Solving for Uz, Initial residual = 0.0148995, Final residual = 2.07731e-05, No Iterations 5
linear solve U 110307
[OGL LOG] init_preconditioner : 0 ms
[OGL LOG] solve : 59 ms
BJcudaGKOCG:  Solving for p, Initial residual = 0.0676239, Final residual = 8.75049e-07, No Iterations 388
linear solve p 63349
time step continuity errors : sum local = 6.34904e-07, global = 6.0078e-20, cumulative = 2.68953e-20
[OGL LOG] init_preconditioner : 0 ms
[OGL LOG] solve : 59 ms
BJcudaGKOCG:  Solving for p, Initial residual = 0.05172, Final residual = 9.18351e-07, No Iterations 386
linear solve p 63030
time step continuity errors : sum local = 6.30508e-07, global = 2.40209e-20, cumulative = 5.09162e-20
ExecutionTime = 4.02 s  ClockTime = 4 s

Time = 0.012

Courant Number mean: 0.181051 max: 0.934596
DILUPBiCGStab:  Solving for Ux, Initial residual = 0.00175521, Final residual = 1.90489e-06, No Iterations 5
DILUPBiCGStab:  Solving for Uy, Initial residual = 0.00453414, Final residual = 4.02155e-06, No Iterations 5
DILUPBiCGStab:  Solving for Uz, Initial residual = 0.011499, Final residual = 1.25771e-05, No Iterations 5
linear solve U 106637
[OGL LOG] init_preconditioner : 0 ms
[OGL LOG] solve : 59 ms
BJcudaGKOCG:  Solving for p, Initial residual = 0.0446784, Final residual = 9.78422e-07, No Iterations 382
linear solve p 62633
time step continuity errors : sum local = 6.2884e-07, global = -5.0368e-20, cumulative = 5.48291e-22
[OGL LOG] init_preconditioner : 0 ms
[OGL LOG] solve : 58 ms
BJcudaGKOCG:  Solving for p, Initial residual = 0.0343748, Final residual = 9.01191e-07, No Iterations 381
linear solve p 62613
time step continuity errors : sum local = 6.30407e-07, global = -2.62409e-20, cumulative = -2.56926e-20
ExecutionTime = 4.32 s  ClockTime = 4 s

Time = 0.014

Courant Number mean: 0.182225 max: 0.93496
DILUPBiCGStab:  Solving for Ux, Initial residual = 0.0014906, Final residual = 9.87673e-07, No Iterations 5
DILUPBiCGStab:  Solving for Uy, Initial residual = 0.00373596, Final residual = 1.7992e-06, No Iterations 5
DILUPBiCGStab:  Solving for Uz, Initial residual = 0.008193, Final residual = 8.40588e-06, No Iterations 5
linear solve U 106116
[OGL LOG] init_preconditioner : 0 ms
[OGL LOG] solve : 57 ms
BJcudaGKOCG:  Solving for p, Initial residual = 0.0303482, Final residual = 9.42374e-07, No Iterations 376
linear solve p 61441
time step continuity errors : sum local = 6.30682e-07, global = -2.42374e-21, cumulative = -2.81163e-20
[OGL LOG] init_preconditioner : 0 ms
[OGL LOG] solve : 58 ms
BJcudaGKOCG:  Solving for p, Initial residual = 0.0232675, Final residual = 9.48303e-07, No Iterations 374
linear solve p 61499
time step continuity errors : sum local = 6.30446e-07, global = 8.11454e-21, cumulative = -2.00018e-20
ExecutionTime = 4.61 s  ClockTime = 4 s

Time = 0.016

Courant Number mean: 0.183255 max: 0.935382
DILUPBiCGStab:  Solving for Ux, Initial residual = 0.00125112, Final residual = 4.13803e-07, No Iterations 5
DILUPBiCGStab:  Solving for Uy, Initial residual = 0.00326804, Final residual = 1.01014e-06, No Iterations 5
DILUPBiCGStab:  Solving for Uz, Initial residual = 0.00685151, Final residual = 6.24851e-06, No Iterations 5
linear solve U 107707
[OGL LOG] init_preconditioner : 0 ms
[OGL LOG] solve : 56 ms
BJcudaGKOCG:  Solving for p, Initial residual = 0.0207011, Final residual = 9.41158e-07, No Iterations 370
linear solve p 60494
time step continuity errors : sum local = 6.2997e-07, global = -3.08797e-21, cumulative = -2.30897e-20
[OGL LOG] init_preconditioner : 0 ms
[OGL LOG] solve : 56 ms
BJcudaGKOCG:  Solving for p, Initial residual = 0.0160334, Final residual = 9.67359e-07, No Iterations 368
linear solve p 60605
time step continuity errors : sum local = 6.30412e-07, global = 3.40161e-20, cumulative = 1.09264e-20
ExecutionTime = 4.92 s  ClockTime = 5 s

Time = 0.018

Courant Number mean: 0.184168 max: 0.935681
DILUPBiCGStab:  Solving for Ux, Initial residual = 0.00108071, Final residual = 3.28401e-07, No Iterations 5
DILUPBiCGStab:  Solving for Uy, Initial residual = 0.00281176, Final residual = 1.01245e-06, No Iterations 5
DILUPBiCGStab:  Solving for Uz, Initial residual = 0.00553742, Final residual = 4.59358e-06, No Iterations 5
linear solve U 105543
[OGL LOG] init_preconditioner : 0 ms
[OGL LOG] solve : 53 ms
BJcudaGKOCG:  Solving for p, Initial residual = 0.0144619, Final residual = 9.54102e-07, No Iterations 344
linear solve p 56760
time step continuity errors : sum local = 6.30178e-07, global = 2.28573e-20, cumulative = 3.37837e-20
[OGL LOG] init_preconditioner : 0 ms
[OGL LOG] solve : 51 ms
BJcudaGKOCG:  Solving for p, Initial residual = 0.0112118, Final residual = 9.93515e-07, No Iterations 341
linear solve p 55359
time step continuity errors : sum local = 6.30413e-07, global = 3.07498e-20, cumulative = 6.45335e-20
ExecutionTime = 5.19 s  ClockTime = 5 s

Time = 0.02

Courant Number mean: 0.184973 max: 0.935986
DILUPBiCGStab:  Solving for Ux, Initial residual = 0.000928424, Final residual = 1.8532e-07, No Iterations 5
DILUPBiCGStab:  Solving for Uy, Initial residual = 0.00248404, Final residual = 5.62327e-07, No Iterations 5
DILUPBiCGStab:  Solving for Uz, Initial residual = 0.00473647, Final residual = 3.34525e-06, No Iterations 5
linear solve U 107420
[OGL LOG] init_preconditioner : 0 ms
[OGL LOG] solve : 54 ms
BJcudaGKOCG:  Solving for p, Initial residual = 0.0101772, Final residual = 9.95424e-07, No Iterations 355
linear solve p 58388
time step continuity errors : sum local = 6.3019e-07, global = 6.2315e-20, cumulative = 1.26849e-19
[OGL LOG] init_preconditioner : 0 ms
[OGL LOG] solve : 54 ms
BJcudaGKOCG:  Solving for p, Initial residual = 0.00803373, Final residual = 9.98524e-07, No Iterations 352
linear solve p 57546
time step continuity errors : sum local = 6.30405e-07, global = 2.77277e-20, cumulative = 1.54576e-19
ExecutionTime = 5.48 s  ClockTime = 5 s

End

