/*---------------------------------------------------------------------------*\
  =========                 |
  \\      /  F ield         | OpenFOAM: The Open Source CFD Toolbox
   \\    /   O peration     | Website:  https://openfoam.org
    \\  /    A nd           | Version:  8
     \\/     M anipulation  |
\*---------------------------------------------------------------------------*/
Build  : 8-ef60d22ea792
Exec   : icoFoam
Date   : Sep 15 2021
Time   : 14:34:52
Host   : "uc2n438.localdomain"
PID    : 3552021
I/O    : uncollated
Case   : /pfs/data5/home/kit/scc/nq7776/data/code/OBR/lidDrivenCavity3D/Variation_init/100/Variation_mesh/20/Variation_matrix_solver/BiCGStab_DIC_Serial/1631709291
nProcs : 1
sigFpe : Enabling floating point exception trapping (FOAM_SIGFPE).
fileModificationChecking : Monitoring run-time modified files using timeStampMaster (fileModificationSkew 10)
allowSystemOperations : Allowing user-supplied system call operations

// * * * * * * * * * * * * * * * * * * * * * * * * * * * * * * * * * * * * * //
Create time

Create mesh for time = 0

Reading transportProperties

Reading field p

Reading field U

Reading/calculating face flux field phi


Starting time loop

Time = 0.005

Courant Number mean: 0.168792 max: 0.826747
DILUPBiCGStab:  Solving for Ux, Initial residual = 0.0596409, Final residual = 2.79049e-07, No Iterations 5
DILUPBiCGStab:  Solving for Uy, Initial residual = 0.105623, Final residual = 6.64989e-07, No Iterations 5
DILUPBiCGStab:  Solving for Uz, Initial residual = 0.0982536, Final residual = 6.30071e-07, No Iterations 5
linear solve U 6485
DICPBiCGStab:  Solving for p, Initial residual = 0.521095, Final residual = 9.34924e-07, No Iterations 37
linear solve p 9756
time step continuity errors : sum local = 7.7789e-09, global = 8.51921e-20, cumulative = 8.51921e-20
DICPBiCGStab:  Solving for p, Initial residual = 0.277965, Final residual = 3.74023e-07, No Iterations 41
linear solve p 10837
time step continuity errors : sum local = 2.24863e-09, global = 8.10889e-21, cumulative = 9.3301e-20
ExecutionTime = 0.1 s  ClockTime = 0 s

Time = 0.01

Courant Number mean: 0.173354 max: 0.832293
DILUPBiCGStab:  Solving for Ux, Initial residual = 0.0156315, Final residual = 2.0996e-07, No Iterations 5
DILUPBiCGStab:  Solving for Uy, Initial residual = 0.0248837, Final residual = 2.5519e-07, No Iterations 5
DILUPBiCGStab:  Solving for Uz, Initial residual = 0.0528118, Final residual = 5.55457e-07, No Iterations 5
linear solve U 4982
DICPBiCGStab:  Solving for p, Initial residual = 0.130271, Final residual = 4.43347e-07, No Iterations 42
linear solve p 10596
time step continuity errors : sum local = 2.69861e-09, global = 2.94759e-19, cumulative = 3.8806e-19
DICPBiCGStab:  Solving for p, Initial residual = 0.084779, Final residual = 9.22407e-07, No Iterations 38
linear solve p 9720
time step continuity errors : sum local = 5.91188e-09, global = 2.07158e-19, cumulative = 5.95218e-19
ExecutionTime = 0.13 s  ClockTime = 0 s

Time = 0.015

Courant Number mean: 0.176833 max: 0.834695
DILUPBiCGStab:  Solving for Ux, Initial residual = 0.00502973, Final residual = 7.72532e-08, No Iterations 5
DILUPBiCGStab:  Solving for Uy, Initial residual = 0.0103197, Final residual = 1.32144e-07, No Iterations 5
DILUPBiCGStab:  Solving for Uz, Initial residual = 0.0184032, Final residual = 1.0831e-07, No Iterations 5
linear solve U 4873
DICPBiCGStab:  Solving for p, Initial residual = 0.028697, Final residual = 9.38223e-07, No Iterations 35
linear solve p 9042
time step continuity errors : sum local = 6.18371e-09, global = -1.5648e-19, cumulative = 4.38739e-19
DICPBiCGStab:  Solving for p, Initial residual = 0.018443, Final residual = 7.22436e-07, No Iterations 33
linear solve p 8342
time step continuity errors : sum local = 7.48224e-09, global = -6.85996e-20, cumulative = 3.70139e-19
ExecutionTime = 0.16 s  ClockTime = 0 s

Time = 0.02

Courant Number mean: 0.179583 max: 0.8374
DILUPBiCGStab:  Solving for Ux, Initial residual = 0.00330185, Final residual = 3.06744e-08, No Iterations 5
DILUPBiCGStab:  Solving for Uy, Initial residual = 0.00676347, Final residual = 3.15124e-08, No Iterations 5
DILUPBiCGStab:  Solving for Uz, Initial residual = 0.0105135, Final residual = 1.02659e-07, No Iterations 5
linear solve U 4862
DICPBiCGStab:  Solving for p, Initial residual = 0.0135097, Final residual = 4.66179e-07, No Iterations 32
linear solve p 8087
time step continuity errors : sum local = 3.46856e-09, global = -2.10652e-19, cumulative = 1.59487e-19
DICPBiCGStab:  Solving for p, Initial residual = 0.0102636, Final residual = 3.97146e-07, No Iterations 32
linear solve p 8123
time step continuity errors : sum local = 2.84416e-09, global = 1.76344e-19, cumulative = 3.3583e-19
ExecutionTime = 0.18 s  ClockTime = 0 s

Time = 0.025

Courant Number mean: 0.181617 max: 0.839288
DILUPBiCGStab:  Solving for Ux, Initial residual = 0.00230784, Final residual = 2.33663e-08, No Iterations 5
DILUPBiCGStab:  Solving for Uy, Initial residual = 0.00494777, Final residual = 3.41606e-08, No Iterations 5
DILUPBiCGStab:  Solving for Uz, Initial residual = 0.00757463, Final residual = 7.00366e-08, No Iterations 5
linear solve U 4912
DICPBiCGStab:  Solving for p, Initial residual = 0.00631605, Final residual = 4.65488e-07, No Iterations 32
linear solve p 8118
time step continuity errors : sum local = 3.67525e-09, global = -9.11514e-20, cumulative = 2.44679e-19
DICPBiCGStab:  Solving for p, Initial residual = 0.00479002, Final residual = 4.63738e-07, No Iterations 30
linear solve p 7579
time step continuity errors : sum local = 5.62932e-09, global = 2.431e-19, cumulative = 4.87779e-19
ExecutionTime = 0.21 s  ClockTime = 0 s

Time = 0.03

Courant Number mean: 0.183129 max: 0.840597
DILUPBiCGStab:  Solving for Ux, Initial residual = 0.00169494, Final residual = 8.09938e-09, No Iterations 5
DILUPBiCGStab:  Solving for Uy, Initial residual = 0.00373025, Final residual = 6.96223e-08, No Iterations 5
DILUPBiCGStab:  Solving for Uz, Initial residual = 0.00551128, Final residual = 5.48593e-08, No Iterations 5
linear solve U 4937
DICPBiCGStab:  Solving for p, Initial residual = 0.00459954, Final residual = 7.82426e-07, No Iterations 32
linear solve p 8093
time step continuity errors : sum local = 5.01364e-09, global = -7.78977e-20, cumulative = 4.09881e-19
DICPBiCGStab:  Solving for p, Initial residual = 0.00367052, Final residual = 6.57699e-07, No Iterations 33
linear solve p 8383
time step continuity errors : sum local = 4.10011e-09, global = 2.8173e-20, cumulative = 4.38054e-19
ExecutionTime = 0.23 s  ClockTime = 0 s

Time = 0.035

Courant Number mean: 0.184258 max: 0.841549
DILUPBiCGStab:  Solving for Ux, Initial residual = 0.0012549, Final residual = 6.96719e-09, No Iterations 5
DILUPBiCGStab:  Solving for Uy, Initial residual = 0.00280404, Final residual = 6.51797e-08, No Iterations 5
DILUPBiCGStab:  Solving for Uz, Initial residual = 0.00406605, Final residual = 4.00449e-08, No Iterations 5
linear solve U 4874
DICPBiCGStab:  Solving for p, Initial residual = 0.00302706, Final residual = 5.84254e-07, No Iterations 32
linear solve p 8091
time step continuity errors : sum local = 3.78322e-09, global = -1.29906e-20, cumulative = 4.25064e-19
DICPBiCGStab:  Solving for p, Initial residual = 0.00241923, Final residual = 4.10965e-07, No Iterations 34
linear solve p 8609
time step continuity errors : sum local = 2.57677e-09, global = 7.76228e-20, cumulative = 5.02686e-19
ExecutionTime = 0.26 s  ClockTime = 0 s

Time = 0.04

Courant Number mean: 0.185103 max: 0.842238
DILUPBiCGStab:  Solving for Ux, Initial residual = 0.000938862, Final residual = 4.02635e-09, No Iterations 5
DILUPBiCGStab:  Solving for Uy, Initial residual = 0.0021226, Final residual = 7.06251e-08, No Iterations 5
DILUPBiCGStab:  Solving for Uz, Initial residual = 0.00299886, Final residual = 2.94573e-08, No Iterations 5
linear solve U 4959
DICPBiCGStab:  Solving for p, Initial residual = 0.0022886, Final residual = 6.06034e-07, No Iterations 32
linear solve p 8061
time step continuity errors : sum local = 3.82421e-09, global = -1.79411e-19, cumulative = 3.23275e-19
DICPBiCGStab:  Solving for p, Initial residual = 0.00185458, Final residual = 7.01132e-07, No Iterations 31
linear solve p 7975
time step continuity errors : sum local = 4.5334e-09, global = -3.8955e-22, cumulative = 3.22885e-19
ExecutionTime = 0.28 s  ClockTime = 0 s

Time = 0.045

Courant Number mean: 0.185737 max: 0.84274
DILUPBiCGStab:  Solving for Ux, Initial residual = 0.000706137, Final residual = 3.14427e-09, No Iterations 5
DILUPBiCGStab:  Solving for Uy, Initial residual = 0.00160873, Final residual = 1.06243e-07, No Iterations 5
DILUPBiCGStab:  Solving for Uz, Initial residual = 0.00221716, Final residual = 2.21049e-08, No Iterations 5
linear solve U 4879
DICPBiCGStab:  Solving for p, Initial residual = 0.00168084, Final residual = 5.23112e-07, No Iterations 32
linear solve p 8079
time step continuity errors : sum local = 3.28772e-09, global = -7.90596e-20, cumulative = 2.43826e-19
DICPBiCGStab:  Solving for p, Initial residual = 0.00135928, Final residual = 9.75337e-07, No Iterations 31
linear solve p 7857
time step continuity errors : sum local = 6.11061e-09, global = 1.18116e-20, cumulative = 2.55637e-19
ExecutionTime = 0.3 s  ClockTime = 0 s

Time = 0.05

Courant Number mean: 0.186213 max: 0.843109
DILUPBiCGStab:  Solving for Ux, Initial residual = 0.000533579, Final residual = 2.17253e-09, No Iterations 5
DILUPBiCGStab:  Solving for Uy, Initial residual = 0.00122196, Final residual = 8.42183e-07, No Iterations 5
DILUPBiCGStab:  Solving for Uz, Initial residual = 0.00164069, Final residual = 1.6807e-08, No Iterations 5
linear solve U 4879
DICPBiCGStab:  Solving for p, Initial residual = 0.00127137, Final residual = 9.12838e-07, No Iterations 31
linear solve p 7842
time step continuity errors : sum local = 5.7347e-09, global = -1.96165e-19, cumulative = 5.94721e-20
DICPBiCGStab:  Solving for p, Initial residual = 0.00103086, Final residual = 4.45513e-07, No Iterations 29
linear solve p 7495
time step continuity errors : sum local = 2.92764e-09, global = 2.54446e-20, cumulative = 8.49167e-20
ExecutionTime = 0.33 s  ClockTime = 0 s

End

