/*---------------------------------------------------------------------------*\
  =========                 |
  \\      /  F ield         | OpenFOAM: The Open Source CFD Toolbox
   \\    /   O peration     | Website:  https://openfoam.org
    \\  /    A nd           | Version:  8
     \\/     M anipulation  |
\*---------------------------------------------------------------------------*/
Build  : 8-ef60d22ea792
Exec   : icoFoam
Date   : Sep 15 2021
Time   : 15:00:01
Host   : "uc2n482.localdomain"
PID    : 3658058
I/O    : uncollated
Case   : /pfs/data5/home/kit/scc/nq7776/data/code/OBR/lidDrivenCavity3D/Variation_init/100/Variation_mesh/50/Variation_matrix_solver/CG_BJ_CUDA/Variation_maxBlockSize/2/1631710795
nProcs : 1
sigFpe : Enabling floating point exception trapping (FOAM_SIGFPE).
fileModificationChecking : Monitoring run-time modified files using timeStampMaster (fileModificationSkew 10)
allowSystemOperations : Allowing user-supplied system call operations

// * * * * * * * * * * * * * * * * * * * * * * * * * * * * * * * * * * * * * //
Create time

Create mesh for time = 0

Reading transportProperties

Reading field p

Reading field U

Reading/calculating face flux field phi


Starting time loop

Time = 0.002

Courant Number mean: 0.171832 max: 0.950949
DILUPBiCGStab:  Solving for Ux, Initial residual = 0.170437, Final residual = 6.82397e-05, No Iterations 5
DILUPBiCGStab:  Solving for Uy, Initial residual = 0.34992, Final residual = 0.000142663, No Iterations 5
DILUPBiCGStab:  Solving for Uz, Initial residual = 0.557699, Final residual = 0.000189983, No Iterations 5
linear solve U 120530
[OGL LOG] init_host_sparsity_pattern : 37 ms
[OGL LOG] matrix not stored update host matrix
[OGL LOG] update_host_mtx : 20 ms
[OGL LOG] matrix is not yet sorted, compute sorting idxs
[OGL LOG] compute_sort : 1038 ms
[OGL LOG] matrix is not yet sorted, sorting host matrix
[OGL LOG] sort_host_mtx_sparsity_pattern : 24 ms
[OGL LOG] sort_host_mtx : 13 ms
[OGL LOG] init_preconditioner : 13 ms
[OGL LOG] solve : 58 ms
BJcudaGKOCG:  Solving for p, Initial residual = 0.678275, Final residual = 9.22175e-07, No Iterations 370
linear solve p 1983929
time step continuity errors : sum local = 2.77004e-09, global = 3.31462e-20, cumulative = 3.31462e-20
[OGL LOG] init_preconditioner : 0 ms
[OGL LOG] solve : 59 ms
BJcudaGKOCG:  Solving for p, Initial residual = 0.41358, Final residual = 9.61144e-07, No Iterations 375
linear solve p 63363
time step continuity errors : sum local = 1.47765e-09, global = 1.30625e-20, cumulative = 4.62087e-20
ExecutionTime = 2.8 s  ClockTime = 3 s

Time = 0.004

Courant Number mean: 0.174856 max: 0.932415
DILUPBiCGStab:  Solving for Ux, Initial residual = 0.0115943, Final residual = 2.67525e-05, No Iterations 5
DILUPBiCGStab:  Solving for Uy, Initial residual = 0.0268869, Final residual = 4.92439e-05, No Iterations 5
DILUPBiCGStab:  Solving for Uz, Initial residual = 0.112848, Final residual = 0.000158135, No Iterations 5
linear solve U 108424
[OGL LOG] init_preconditioner : 0 ms
[OGL LOG] solve : 60 ms
BJcudaGKOCG:  Solving for p, Initial residual = 0.327331, Final residual = 9.87946e-07, No Iterations 379
linear solve p 64492
time step continuity errors : sum local = 7.21981e-07, global = -1.26341e-20, cumulative = 3.35746e-20
[OGL LOG] init_preconditioner : 0 ms
[OGL LOG] solve : 59 ms
BJcudaGKOCG:  Solving for p, Initial residual = 0.243048, Final residual = 9.97596e-07, No Iterations 377
linear solve p 63713
time step continuity errors : sum local = 6.3126e-07, global = 1.42185e-20, cumulative = 4.77931e-20
ExecutionTime = 3.11 s  ClockTime = 3 s

Time = 0.006

Courant Number mean: 0.176822 max: 0.934846
DILUPBiCGStab:  Solving for Ux, Initial residual = 0.00529441, Final residual = 9.84979e-06, No Iterations 5
DILUPBiCGStab:  Solving for Uy, Initial residual = 0.0102197, Final residual = 2.29777e-05, No Iterations 5
DILUPBiCGStab:  Solving for Uz, Initial residual = 0.0485293, Final residual = 7.74321e-05, No Iterations 5
linear solve U 114394
[OGL LOG] init_preconditioner : 0 ms
[OGL LOG] solve : 59 ms
BJcudaGKOCG:  Solving for p, Initial residual = 0.17444, Final residual = 9.64964e-07, No Iterations 373
linear solve p 63496
time step continuity errors : sum local = 6.72904e-07, global = -2.76789e-20, cumulative = 2.01142e-20
[OGL LOG] init_preconditioner : 0 ms
[OGL LOG] solve : 59 ms
BJcudaGKOCG:  Solving for p, Initial residual = 0.133082, Final residual = 9.43914e-07, No Iterations 371
linear solve p 63053
time step continuity errors : sum local = 6.30574e-07, global = 2.90773e-20, cumulative = 4.91914e-20
ExecutionTime = 3.42 s  ClockTime = 4 s

Time = 0.008

Courant Number mean: 0.178238 max: 0.933359
DILUPBiCGStab:  Solving for Ux, Initial residual = 0.00289607, Final residual = 5.56897e-06, No Iterations 5
DILUPBiCGStab:  Solving for Uy, Initial residual = 0.00786355, Final residual = 1.00811e-05, No Iterations 5
DILUPBiCGStab:  Solving for Uz, Initial residual = 0.026033, Final residual = 3.95513e-05, No Iterations 5
linear solve U 109062
[OGL LOG] init_preconditioner : 0 ms
[OGL LOG] solve : 57 ms
BJcudaGKOCG:  Solving for p, Initial residual = 0.10533, Final residual = 9.24408e-07, No Iterations 359
linear solve p 61324
time step continuity errors : sum local = 6.21061e-07, global = 1.22249e-20, cumulative = 6.14163e-20
[OGL LOG] init_preconditioner : 0 ms
[OGL LOG] solve : 57 ms
BJcudaGKOCG:  Solving for p, Initial residual = 0.081244, Final residual = 9.80495e-07, No Iterations 357
linear solve p 61043
time step continuity errors : sum local = 6.30389e-07, global = -7.45389e-20, cumulative = -1.31226e-20
ExecutionTime = 3.72 s  ClockTime = 4 s

Time = 0.01

Courant Number mean: 0.179753 max: 0.9341
DILUPBiCGStab:  Solving for Ux, Initial residual = 0.00227172, Final residual = 4.0128e-06, No Iterations 5
DILUPBiCGStab:  Solving for Uy, Initial residual = 0.00526713, Final residual = 5.88527e-06, No Iterations 5
DILUPBiCGStab:  Solving for Uz, Initial residual = 0.0148996, Final residual = 2.07726e-05, No Iterations 5
linear solve U 110953
[OGL LOG] init_preconditioner : 0 ms
[OGL LOG] solve : 55 ms
BJcudaGKOCG:  Solving for p, Initial residual = 0.0676241, Final residual = 9.70729e-07, No Iterations 354
linear solve p 59234
time step continuity errors : sum local = 6.34933e-07, global = 5.40077e-21, cumulative = -7.72182e-21
[OGL LOG] init_preconditioner : 0 ms
[OGL LOG] solve : 55 ms
BJcudaGKOCG:  Solving for p, Initial residual = 0.0517202, Final residual = 9.22312e-07, No Iterations 353
linear solve p 58882
time step continuity errors : sum local = 6.30489e-07, global = -3.55748e-20, cumulative = -4.32966e-20
ExecutionTime = 4.03 s  ClockTime = 4 s

Time = 0.012

Courant Number mean: 0.181051 max: 0.934596
DILUPBiCGStab:  Solving for Ux, Initial residual = 0.00175521, Final residual = 1.90491e-06, No Iterations 5
DILUPBiCGStab:  Solving for Uy, Initial residual = 0.00453411, Final residual = 4.02153e-06, No Iterations 5
DILUPBiCGStab:  Solving for Uz, Initial residual = 0.0114985, Final residual = 1.25772e-05, No Iterations 5
linear solve U 107349
[OGL LOG] init_preconditioner : 0 ms
[OGL LOG] solve : 54 ms
BJcudaGKOCG:  Solving for p, Initial residual = 0.0446781, Final residual = 9.29825e-07, No Iterations 349
linear solve p 58674
time step continuity errors : sum local = 6.28806e-07, global = 5.71129e-20, cumulative = 1.38163e-20
[OGL LOG] init_preconditioner : 0 ms
[OGL LOG] solve : 54 ms
BJcudaGKOCG:  Solving for p, Initial residual = 0.0343746, Final residual = 9.85492e-07, No Iterations 347
linear solve p 57989
time step continuity errors : sum local = 6.30425e-07, global = -3.36704e-21, cumulative = 1.04493e-20
ExecutionTime = 4.32 s  ClockTime = 4 s

Time = 0.014

Courant Number mean: 0.182225 max: 0.93496
DILUPBiCGStab:  Solving for Ux, Initial residual = 0.0014906, Final residual = 9.87658e-07, No Iterations 5
DILUPBiCGStab:  Solving for Uy, Initial residual = 0.00373596, Final residual = 1.79921e-06, No Iterations 5
DILUPBiCGStab:  Solving for Uz, Initial residual = 0.00819334, Final residual = 8.40552e-06, No Iterations 5
linear solve U 107695
[OGL LOG] init_preconditioner : 0 ms
[OGL LOG] solve : 53 ms
BJcudaGKOCG:  Solving for p, Initial residual = 0.0303479, Final residual = 9.61152e-07, No Iterations 343
linear solve p 57695
time step continuity errors : sum local = 6.30669e-07, global = 3.78363e-21, cumulative = 1.42329e-20
[OGL LOG] init_preconditioner : 0 ms
[OGL LOG] solve : 53 ms
BJcudaGKOCG:  Solving for p, Initial residual = 0.0232673, Final residual = 9.18275e-07, No Iterations 342
linear solve p 57602
time step continuity errors : sum local = 6.30417e-07, global = 2.90166e-20, cumulative = 4.32495e-20
ExecutionTime = 4.61 s  ClockTime = 5 s

Time = 0.016

Courant Number mean: 0.183255 max: 0.935382
DILUPBiCGStab:  Solving for Ux, Initial residual = 0.00125113, Final residual = 4.13805e-07, No Iterations 5
DILUPBiCGStab:  Solving for Uy, Initial residual = 0.00326804, Final residual = 1.01018e-06, No Iterations 5
DILUPBiCGStab:  Solving for Uz, Initial residual = 0.0068511, Final residual = 6.24857e-06, No Iterations 5
linear solve U 106560
[OGL LOG] init_preconditioner : 0 ms
[OGL LOG] solve : 53 ms
BJcudaGKOCG:  Solving for p, Initial residual = 0.0207016, Final residual = 9.53357e-07, No Iterations 339
linear solve p 57513
time step continuity errors : sum local = 6.29968e-07, global = -3.37736e-20, cumulative = 9.47588e-21
[OGL LOG] init_preconditioner : 0 ms
[OGL LOG] solve : 52 ms
BJcudaGKOCG:  Solving for p, Initial residual = 0.0160338, Final residual = 9.45404e-07, No Iterations 338
linear solve p 56385
time step continuity errors : sum local = 6.30386e-07, global = -2.74494e-20, cumulative = -1.79735e-20
ExecutionTime = 4.89 s  ClockTime = 5 s

Time = 0.018

Courant Number mean: 0.184168 max: 0.935681
DILUPBiCGStab:  Solving for Ux, Initial residual = 0.0010807, Final residual = 3.28388e-07, No Iterations 5
DILUPBiCGStab:  Solving for Uy, Initial residual = 0.00281176, Final residual = 1.01282e-06, No Iterations 5
DILUPBiCGStab:  Solving for Uz, Initial residual = 0.00553716, Final residual = 4.59395e-06, No Iterations 5
linear solve U 108972
[OGL LOG] init_preconditioner : 0 ms
[OGL LOG] solve : 49 ms
BJcudaGKOCG:  Solving for p, Initial residual = 0.0144618, Final residual = 9.79373e-07, No Iterations 314
linear solve p 53161
time step continuity errors : sum local = 6.3019e-07, global = -1.48293e-20, cumulative = -3.28028e-20
[OGL LOG] init_preconditioner : 0 ms
[OGL LOG] solve : 50 ms
BJcudaGKOCG:  Solving for p, Initial residual = 0.0112117, Final residual = 9.79788e-07, No Iterations 313
linear solve p 54462
time step continuity errors : sum local = 6.304e-07, global = 2.96952e-20, cumulative = -3.1076e-21
ExecutionTime = 5.19 s  ClockTime = 5 s

Time = 0.02

Courant Number mean: 0.184973 max: 0.935986
DILUPBiCGStab:  Solving for Ux, Initial residual = 0.00092842, Final residual = 1.85293e-07, No Iterations 5
DILUPBiCGStab:  Solving for Uy, Initial residual = 0.00248405, Final residual = 5.62493e-07, No Iterations 5
DILUPBiCGStab:  Solving for Uz, Initial residual = 0.00473713, Final residual = 3.3445e-06, No Iterations 5
linear solve U 113101
[OGL LOG] init_preconditioner : 0 ms
[OGL LOG] solve : 51 ms
BJcudaGKOCG:  Solving for p, Initial residual = 0.0101776, Final residual = 9.45058e-07, No Iterations 324
linear solve p 55957
time step continuity errors : sum local = 6.30155e-07, global = -6.35482e-22, cumulative = -3.74308e-21
[OGL LOG] init_preconditioner : 0 ms
[OGL LOG] solve : 51 ms
BJcudaGKOCG:  Solving for p, Initial residual = 0.00803401, Final residual = 9.32776e-07, No Iterations 323
linear solve p 55700
time step continuity errors : sum local = 6.30385e-07, global = 1.49678e-21, cumulative = -2.2463e-21
ExecutionTime = 5.48 s  ClockTime = 6 s

End

