/*---------------------------------------------------------------------------*\
  =========                 |
  \\      /  F ield         | OpenFOAM: The Open Source CFD Toolbox
   \\    /   O peration     | Website:  https://openfoam.org
    \\  /    A nd           | Version:  8
     \\/     M anipulation  |
\*---------------------------------------------------------------------------*/
Build  : 8-ef60d22ea792
Exec   : icoFoam
Date   : Sep 15 2021
Time   : 14:23:09
Host   : "uc2n438.localdomain"
PID    : 3549576
I/O    : uncollated
Case   : /pfs/data5/home/kit/scc/nq7776/data/code/OBR/lidDrivenCavity3D/Variation_init/100/Variation_mesh/85/Variation_matrix_solver/BiCGStab_DIC_Serial/1631708559
nProcs : 1
sigFpe : Enabling floating point exception trapping (FOAM_SIGFPE).
fileModificationChecking : Monitoring run-time modified files using timeStampMaster (fileModificationSkew 10)
allowSystemOperations : Allowing user-supplied system call operations

// * * * * * * * * * * * * * * * * * * * * * * * * * * * * * * * * * * * * * //
Create time

Create mesh for time = 0

Reading transportProperties

Reading field p

Reading field U

Reading/calculating face flux field phi


Starting time loop

Time = 0.00117647

Courant Number mean: 0.17078 max: 0.958539
DILUPBiCGStab:  Solving for Ux, Initial residual = 0.08035, Final residual = 0.000200532, No Iterations 5
DILUPBiCGStab:  Solving for Uy, Initial residual = 0.159613, Final residual = 0.00056519, No Iterations 5
DILUPBiCGStab:  Solving for Uz, Initial residual = 0.222246, Final residual = 0.000790216, No Iterations 5
linear solve U 646077
DICPBiCGStab:  Solving for p, Initial residual = 0.643964, Final residual = 8.65796e-07, No Iterations 182
linear solve p 5609876
time step continuity errors : sum local = 7.05277e-10, global = 7.85253e-21, cumulative = 7.85253e-21
DICPBiCGStab:  Solving for p, Initial residual = 0.369996, Final residual = 9.95207e-07, No Iterations 170
linear solve p 5165405
time step continuity errors : sum local = 7.79231e-10, global = -7.3316e-21, cumulative = 5.20928e-22
ExecutionTime = 14.66 s  ClockTime = 14 s

Time = 0.00235294

Courant Number mean: 0.17242 max: 0.959521
DILUPBiCGStab:  Solving for Ux, Initial residual = 0.00668669, Final residual = 4.22361e-05, No Iterations 5
DILUPBiCGStab:  Solving for Uy, Initial residual = 0.0171901, Final residual = 0.00014452, No Iterations 5
DILUPBiCGStab:  Solving for Uz, Initial residual = 0.0433645, Final residual = 0.000582325, No Iterations 5
linear solve U 597808
DICPBiCGStab:  Solving for p, Initial residual = 0.435511, Final residual = 9.35899e-07, No Iterations 173
linear solve p 5365305
time step continuity errors : sum local = 6.26499e-10, global = -3.02066e-20, cumulative = -2.96857e-20
DICPBiCGStab:  Solving for p, Initial residual = 0.303852, Final residual = 9.99029e-07, No Iterations 163
linear solve p 5000204
time step continuity errors : sum local = 7.11582e-10, global = 1.17668e-20, cumulative = -1.79189e-20
ExecutionTime = 25.96 s  ClockTime = 26 s

Time = 0.00352941

Courant Number mean: 0.173894 max: 0.959457
DILUPBiCGStab:  Solving for Ux, Initial residual = 0.00333664, Final residual = 3.14647e-05, No Iterations 5
DILUPBiCGStab:  Solving for Uy, Initial residual = 0.00945628, Final residual = 8.96436e-05, No Iterations 5
DILUPBiCGStab:  Solving for Uz, Initial residual = 0.0306656, Final residual = 0.000410038, No Iterations 5
linear solve U 598502
DICPBiCGStab:  Solving for p, Initial residual = 0.299924, Final residual = 6.18072e-07, No Iterations 162
linear solve p 4899560
time step continuity errors : sum local = 5.83611e-10, global = 9.14219e-21, cumulative = -8.77666e-21
DICPBiCGStab:  Solving for p, Initial residual = 0.215679, Final residual = 8.53415e-07, No Iterations 166
linear solve p 5089923
time step continuity errors : sum local = 5.35055e-10, global = 2.02719e-21, cumulative = -6.74948e-21
ExecutionTime = 36.88 s  ClockTime = 37 s

Time = 0.00470588

Courant Number mean: 0.175264 max: 0.959793
DILUPBiCGStab:  Solving for Ux, Initial residual = 0.00248743, Final residual = 2.07195e-05, No Iterations 5
DILUPBiCGStab:  Solving for Uy, Initial residual = 0.00741176, Final residual = 5.77182e-05, No Iterations 5
DILUPBiCGStab:  Solving for Uz, Initial residual = 0.0248479, Final residual = 0.000347665, No Iterations 5
linear solve U 602114
DICPBiCGStab:  Solving for p, Initial residual = 0.231284, Final residual = 8.55473e-07, No Iterations 178
linear solve p 5462716
time step continuity errors : sum local = 4.07116e-10, global = -1.74931e-20, cumulative = -2.42426e-20
DICPBiCGStab:  Solving for p, Initial residual = 0.17422, Final residual = 9.44672e-07, No Iterations 155
linear solve p 4713516
time step continuity errors : sum local = 8.555e-10, global = -7.4948e-21, cumulative = -3.17374e-20
ExecutionTime = 47.99 s  ClockTime = 48 s

Time = 0.00588235

Courant Number mean: 0.176537 max: 0.960087
DILUPBiCGStab:  Solving for Ux, Initial residual = 0.00205469, Final residual = 1.50202e-05, No Iterations 5
DILUPBiCGStab:  Solving for Uy, Initial residual = 0.00597161, Final residual = 3.6085e-05, No Iterations 5
DILUPBiCGStab:  Solving for Uz, Initial residual = 0.0197837, Final residual = 0.00027147, No Iterations 5
linear solve U 598751
DICPBiCGStab:  Solving for p, Initial residual = 0.174252, Final residual = 9.20991e-07, No Iterations 162
linear solve p 5020070
time step continuity errors : sum local = 4.28596e-10, global = -1.86822e-20, cumulative = -5.04196e-20
DICPBiCGStab:  Solving for p, Initial residual = 0.135118, Final residual = 9.65166e-07, No Iterations 158
linear solve p 4859346
time step continuity errors : sum local = 4.54711e-10, global = -2.21586e-20, cumulative = -7.25782e-20
ExecutionTime = 58.79 s  ClockTime = 59 s

Time = 0.00705882

Courant Number mean: 0.177704 max: 0.960428
DILUPBiCGStab:  Solving for Ux, Initial residual = 0.00174835, Final residual = 1.21776e-05, No Iterations 5
DILUPBiCGStab:  Solving for Uy, Initial residual = 0.00511946, Final residual = 2.67594e-05, No Iterations 5
DILUPBiCGStab:  Solving for Uz, Initial residual = 0.0165587, Final residual = 0.000216715, No Iterations 5
linear solve U 599464
DICPBiCGStab:  Solving for p, Initial residual = 0.14113, Final residual = 9.56323e-07, No Iterations 169
linear solve p 5115264
time step continuity errors : sum local = 4.2126e-10, global = 1.21826e-20, cumulative = -6.03956e-20
DICPBiCGStab:  Solving for p, Initial residual = 0.112299, Final residual = 9.57524e-07, No Iterations 170
linear solve p 5214629
time step continuity errors : sum local = 4.15681e-10, global = -1.60532e-20, cumulative = -7.64489e-20
ExecutionTime = 70.05 s  ClockTime = 70 s

Time = 0.00823529

Courant Number mean: 0.178771 max: 0.960686
DILUPBiCGStab:  Solving for Ux, Initial residual = 0.00151399, Final residual = 9.77803e-06, No Iterations 5
DILUPBiCGStab:  Solving for Uy, Initial residual = 0.0044441, Final residual = 2.00289e-05, No Iterations 5
DILUPBiCGStab:  Solving for Uz, Initial residual = 0.0135614, Final residual = 0.000161504, No Iterations 5
linear solve U 598260
DICPBiCGStab:  Solving for p, Initial residual = 0.113887, Final residual = 1.75844e-07, No Iterations 161
linear solve p 4939530
time step continuity errors : sum local = 9.12347e-11, global = -3.13234e-20, cumulative = -1.07772e-19
DICPBiCGStab:  Solving for p, Initial residual = 0.0917898, Final residual = 7.30098e-07, No Iterations 164
linear solve p 4983643
time step continuity errors : sum local = 3.51247e-10, global = -1.23505e-21, cumulative = -1.09007e-19
ExecutionTime = 80.91 s  ClockTime = 81 s

Time = 0.00941176

Courant Number mean: 0.179753 max: 0.960954
DILUPBiCGStab:  Solving for Ux, Initial residual = 0.00134461, Final residual = 8.39176e-06, No Iterations 5
DILUPBiCGStab:  Solving for Uy, Initial residual = 0.0039162, Final residual = 1.64883e-05, No Iterations 5
DILUPBiCGStab:  Solving for Uz, Initial residual = 0.0115469, Final residual = 0.00012308, No Iterations 5
linear solve U 596524
DICPBiCGStab:  Solving for p, Initial residual = 0.09449, Final residual = 5.56995e-07, No Iterations 78
linear solve p 2435439
time step continuity errors : sum local = 3.69275e-10, global = -1.40861e-20, cumulative = -1.23093e-19
DICPBiCGStab:  Solving for p, Initial residual = 0.0770749, Final residual = 9.69613e-07, No Iterations 72
linear solve p 2223718
time step continuity errors : sum local = 4.39481e-10, global = -3.34952e-20, cumulative = -1.56589e-19
ExecutionTime = 86.52 s  ClockTime = 86 s

Time = 0.0105882

Courant Number mean: 0.180649 max: 0.961168
DILUPBiCGStab:  Solving for Ux, Initial residual = 0.0011847, Final residual = 6.93516e-06, No Iterations 5
DILUPBiCGStab:  Solving for Uy, Initial residual = 0.00349475, Final residual = 1.38713e-05, No Iterations 5
DILUPBiCGStab:  Solving for Uz, Initial residual = 0.00961343, Final residual = 8.6949e-05, No Iterations 5
linear solve U 603847
DICPBiCGStab:  Solving for p, Initial residual = 0.0786825, Final residual = 4.91288e-07, No Iterations 164
linear solve p 4961166
time step continuity errors : sum local = 2.11138e-10, global = 9.96877e-21, cumulative = -1.4662e-19
DICPBiCGStab:  Solving for p, Initial residual = 0.0644828, Final residual = 6.8585e-07, No Iterations 146
linear solve p 4494686
time step continuity errors : sum local = 5.12479e-10, global = 7.70879e-21, cumulative = -1.38911e-19
ExecutionTime = 96.9 s  ClockTime = 97 s

Time = 0.0117647

Courant Number mean: 0.181477 max: 0.961382
DILUPBiCGStab:  Solving for Ux, Initial residual = 0.00107309, Final residual = 6.12292e-06, No Iterations 5
DILUPBiCGStab:  Solving for Uy, Initial residual = 0.00312641, Final residual = 1.24591e-05, No Iterations 5
DILUPBiCGStab:  Solving for Uz, Initial residual = 0.00835233, Final residual = 6.59591e-05, No Iterations 5
linear solve U 599071
DICPBiCGStab:  Solving for p, Initial residual = 0.0658908, Final residual = 5.24621e-07, No Iterations 163
linear solve p 5017179
time step continuity errors : sum local = 2.63946e-10, global = 6.35243e-21, cumulative = -1.32559e-19
DICPBiCGStab:  Solving for p, Initial residual = 0.0542636, Final residual = 8.06012e-07, No Iterations 162
linear solve p 4925227
time step continuity errors : sum local = 3.71014e-10, global = -1.77602e-20, cumulative = -1.50319e-19
ExecutionTime = 107.78 s  ClockTime = 108 s

End

