/*---------------------------------------------------------------------------*\
  =========                 |
  \\      /  F ield         | OpenFOAM: The Open Source CFD Toolbox
   \\    /   O peration     | Website:  https://openfoam.org
    \\  /    A nd           | Version:  8
     \\/     M anipulation  |
\*---------------------------------------------------------------------------*/
Build  : 8-ef60d22ea792
Exec   : icoFoam
Date   : Sep 15 2021
Time   : 14:01:37
Host   : "uc2n438.localdomain"
PID    : 3547008
I/O    : uncollated
Case   : /pfs/data5/home/kit/scc/nq7776/data/code/OBR/lidDrivenCavity3D/Variation_init/100/Variation_mesh/100/Variation_matrix_solver/BiCGStab_NoPrecond_Serial/1631707204
nProcs : 1
sigFpe : Enabling floating point exception trapping (FOAM_SIGFPE).
fileModificationChecking : Monitoring run-time modified files using timeStampMaster (fileModificationSkew 10)
allowSystemOperations : Allowing user-supplied system call operations

// * * * * * * * * * * * * * * * * * * * * * * * * * * * * * * * * * * * * * //
Create time

Create mesh for time = 0

Reading transportProperties

Reading field p

Reading field U

Reading/calculating face flux field phi


Starting time loop

Time = 0.001

Courant Number mean: 0.171005 max: 0.964718
DILUPBiCGStab:  Solving for Ux, Initial residual = 0.00221104, Final residual = 2.10455e-05, No Iterations 5
DILUPBiCGStab:  Solving for Uy, Initial residual = 0.00671465, Final residual = 5.53885e-05, No Iterations 5
DILUPBiCGStab:  Solving for Uz, Initial residual = 0.0303966, Final residual = 0.000635532, No Iterations 5
linear solve U 1069468
nonePBiCGStab:  Solving for p, Initial residual = 0.148074, Final residual = 8.53733e-07, No Iterations 700
linear solve p 19951507
time step continuity errors : sum local = 2.95836e-10, global = -2.94295e-20, cumulative = -2.94295e-20
nonePBiCGStab:  Solving for p, Initial residual = 0.126694, Final residual = 2.60758e-07, No Iterations 712
linear solve p 19577315
time step continuity errors : sum local = 9.51762e-11, global = 8.5392e-21, cumulative = -2.08903e-20
ExecutionTime = 45.82 s  ClockTime = 46 s

Time = 0.002

Courant Number mean: 0.172431 max: 0.965079
DILUPBiCGStab:  Solving for Ux, Initial residual = 0.00200111, Final residual = 1.87331e-05, No Iterations 5
DILUPBiCGStab:  Solving for Uy, Initial residual = 0.00604366, Final residual = 4.75898e-05, No Iterations 5
DILUPBiCGStab:  Solving for Uz, Initial residual = 0.0264624, Final residual = 0.000565406, No Iterations 5
linear solve U 975450
nonePBiCGStab:  Solving for p, Initial residual = 0.13273, Final residual = 8.50073e-07, No Iterations 692
linear solve p 19052976
time step continuity errors : sum local = 2.78857e-10, global = -7.27516e-22, cumulative = -2.16179e-20
nonePBiCGStab:  Solving for p, Initial residual = 0.113608, Final residual = 4.97538e-07, No Iterations 614
linear solve p 16855399
time step continuity errors : sum local = 2.3049e-10, global = 1.63823e-20, cumulative = -5.23557e-21
ExecutionTime = 83.15 s  ClockTime = 83 s

Time = 0.003

Courant Number mean: 0.173747 max: 0.965401
DILUPBiCGStab:  Solving for Ux, Initial residual = 0.00178517, Final residual = 1.36852e-05, No Iterations 5
DILUPBiCGStab:  Solving for Uy, Initial residual = 0.0054259, Final residual = 3.58955e-05, No Iterations 5
DILUPBiCGStab:  Solving for Uz, Initial residual = 0.022629, Final residual = 0.000473413, No Iterations 5
linear solve U 965502
nonePBiCGStab:  Solving for p, Initial residual = 0.115642, Final residual = 8.90117e-07, No Iterations 676
linear solve p 18574972
time step continuity errors : sum local = 2.99834e-10, global = -2.76428e-20, cumulative = -3.28784e-20
nonePBiCGStab:  Solving for p, Initial residual = 0.0996502, Final residual = 3.2428e-07, No Iterations 644
linear solve p 17795870
time step continuity errors : sum local = 1.12383e-10, global = 1.02134e-20, cumulative = -2.26649e-20
ExecutionTime = 120.91 s  ClockTime = 121 s

Time = 0.004

Courant Number mean: 0.174968 max: 0.965699
DILUPBiCGStab:  Solving for Ux, Initial residual = 0.00162093, Final residual = 1.17347e-05, No Iterations 5
DILUPBiCGStab:  Solving for Uy, Initial residual = 0.00491176, Final residual = 2.98215e-05, No Iterations 5
DILUPBiCGStab:  Solving for Uz, Initial residual = 0.0199371, Final residual = 0.000417602, No Iterations 5
linear solve U 967090
nonePBiCGStab:  Solving for p, Initial residual = 0.102847, Final residual = 9.99494e-07, No Iterations 621
linear solve p 17024021
time step continuity errors : sum local = 4.26623e-10, global = -7.65993e-22, cumulative = -2.34309e-20
nonePBiCGStab:  Solving for p, Initial residual = 0.0887917, Final residual = 9.99584e-07, No Iterations 630
linear solve p 17218305
time step continuity errors : sum local = 3.90819e-10, global = 7.04122e-21, cumulative = -1.63897e-20
ExecutionTime = 156.56 s  ClockTime = 157 s

Time = 0.005

Courant Number mean: 0.176093 max: 0.965959
DILUPBiCGStab:  Solving for Ux, Initial residual = 0.00147228, Final residual = 1.01478e-05, No Iterations 5
DILUPBiCGStab:  Solving for Uy, Initial residual = 0.00446429, Final residual = 2.56217e-05, No Iterations 5
DILUPBiCGStab:  Solving for Uz, Initial residual = 0.0171882, Final residual = 0.000346779, No Iterations 5
linear solve U 962151
nonePBiCGStab:  Solving for p, Initial residual = 0.0910072, Final residual = 8.86521e-07, No Iterations 654
linear solve p 17927978
time step continuity errors : sum local = 3.33619e-10, global = 9.56093e-21, cumulative = -6.82878e-21
nonePBiCGStab:  Solving for p, Initial residual = 0.0783637, Final residual = 2.98287e-07, No Iterations 632
linear solve p 17354944
time step continuity errors : sum local = 9.34696e-11, global = -1.83129e-20, cumulative = -2.51416e-20
ExecutionTime = 193.23 s  ClockTime = 194 s

Time = 0.006

Courant Number mean: 0.177137 max: 0.966209
DILUPBiCGStab:  Solving for Ux, Initial residual = 0.0013449, Final residual = 8.77075e-06, No Iterations 5
DILUPBiCGStab:  Solving for Uy, Initial residual = 0.00407574, Final residual = 2.15188e-05, No Iterations 5
DILUPBiCGStab:  Solving for Uz, Initial residual = 0.0152949, Final residual = 0.000303295, No Iterations 5
linear solve U 959102
nonePBiCGStab:  Solving for p, Initial residual = 0.0807729, Final residual = 5.65397e-07, No Iterations 757
linear solve p 20778322
time step continuity errors : sum local = 1.93335e-10, global = -5.365e-21, cumulative = -3.05066e-20
nonePBiCGStab:  Solving for p, Initial residual = 0.0696183, Final residual = 1.52186e-07, No Iterations 627
linear solve p 17254687
time step continuity errors : sum local = 7.85044e-11, global = -2.84542e-21, cumulative = -3.3352e-20
ExecutionTime = 232.66 s  ClockTime = 233 s

Time = 0.007

Courant Number mean: 0.178102 max: 0.966418
DILUPBiCGStab:  Solving for Ux, Initial residual = 0.00122673, Final residual = 7.65368e-06, No Iterations 5
DILUPBiCGStab:  Solving for Uy, Initial residual = 0.00372041, Final residual = 1.89865e-05, No Iterations 5
DILUPBiCGStab:  Solving for Uz, Initial residual = 0.0132654, Final residual = 0.000248787, No Iterations 5
linear solve U 958776
nonePBiCGStab:  Solving for p, Initial residual = 0.0717749, Final residual = 9.76701e-07, No Iterations 716
linear solve p 19656739
time step continuity errors : sum local = 3.18639e-10, global = -6.20357e-21, cumulative = -3.95556e-20
nonePBiCGStab:  Solving for p, Initial residual = 0.0617331, Final residual = 9.5233e-07, No Iterations 717
linear solve p 19723230
time step continuity errors : sum local = 3.24628e-10, global = -9.42452e-21, cumulative = -4.89801e-20
ExecutionTime = 273.41 s  ClockTime = 274 s

Time = 0.008

Courant Number mean: 0.179 max: 0.966628
DILUPBiCGStab:  Solving for Ux, Initial residual = 0.00112609, Final residual = 6.6314e-06, No Iterations 5
DILUPBiCGStab:  Solving for Uy, Initial residual = 0.00341506, Final residual = 1.60854e-05, No Iterations 5
DILUPBiCGStab:  Solving for Uz, Initial residual = 0.0118816, Final residual = 0.000216226, No Iterations 5
linear solve U 965710
nonePBiCGStab:  Solving for p, Initial residual = 0.0635424, Final residual = 6.25051e-07, No Iterations 665
linear solve p 18248642
time step continuity errors : sum local = 2.34208e-10, global = -1.38243e-21, cumulative = -5.03626e-20
nonePBiCGStab:  Solving for p, Initial residual = 0.0546795, Final residual = 3.55279e-07, No Iterations 660
linear solve p 18153544
time step continuity errors : sum local = 1.57857e-10, global = 9.41502e-21, cumulative = -4.09475e-20
ExecutionTime = 311.21 s  ClockTime = 312 s

Time = 0.009

Courant Number mean: 0.17983 max: 0.966798
DILUPBiCGStab:  Solving for Ux, Initial residual = 0.00103118, Final residual = 5.81189e-06, No Iterations 5
DILUPBiCGStab:  Solving for Uy, Initial residual = 0.00312876, Final residual = 1.44349e-05, No Iterations 5
DILUPBiCGStab:  Solving for Uz, Initial residual = 0.0103671, Final residual = 0.000174594, No Iterations 5
linear solve U 959484
nonePBiCGStab:  Solving for p, Initial residual = 0.0567038, Final residual = 9.89182e-07, No Iterations 507
linear solve p 13932745
time step continuity errors : sum local = 5.19269e-10, global = 4.56505e-21, cumulative = -3.63825e-20
nonePBiCGStab:  Solving for p, Initial residual = 0.04872, Final residual = 9.96817e-07, No Iterations 613
linear solve p 16875824
time step continuity errors : sum local = 4.12376e-10, global = 2.64349e-20, cumulative = -9.94761e-21
ExecutionTime = 343.43 s  ClockTime = 344 s

Time = 0.01

Courant Number mean: 0.180604 max: 0.966976
DILUPBiCGStab:  Solving for Ux, Initial residual = 0.000949965, Final residual = 5.05522e-06, No Iterations 5
DILUPBiCGStab:  Solving for Uy, Initial residual = 0.00288907, Final residual = 1.23574e-05, No Iterations 5
DILUPBiCGStab:  Solving for Uz, Initial residual = 0.00934277, Final residual = 0.000151851, No Iterations 5
linear solve U 958884
nonePBiCGStab:  Solving for p, Initial residual = 0.050129, Final residual = 5.77102e-07, No Iterations 623
linear solve p 17095412
time step continuity errors : sum local = 1.81074e-10, global = 6.48492e-21, cumulative = -3.46269e-21
nonePBiCGStab:  Solving for p, Initial residual = 0.0430827, Final residual = 5.38934e-07, No Iterations 612
linear solve p 16844508
time step continuity errors : sum local = 1.95099e-10, global = -6.29921e-21, cumulative = -9.7619e-21
ExecutionTime = 378.76 s  ClockTime = 380 s

End

