/*---------------------------------------------------------------------------*\
  =========                 |
  \\      /  F ield         | OpenFOAM: The Open Source CFD Toolbox
   \\    /   O peration     | Website:  https://openfoam.org
    \\  /    A nd           | Version:  8
     \\/     M anipulation  |
\*---------------------------------------------------------------------------*/
Build  : 8-ef60d22ea792
Exec   : icoFoam
Date   : Sep 15 2021
Time   : 13:07:29
Host   : "uc2n438.localdomain"
PID    : 3539292
I/O    : uncollated
Case   : /pfs/data5/home/kit/scc/nq7776/data/code/OBR/lidDrivenCavity3D/Variation_init/100/Variation_mesh/15/Variation_matrix_solver/CG_NoPrecond_Serial/1631704049
nProcs : 1
sigFpe : Enabling floating point exception trapping (FOAM_SIGFPE).
fileModificationChecking : Monitoring run-time modified files using timeStampMaster (fileModificationSkew 10)
allowSystemOperations : Allowing user-supplied system call operations

// * * * * * * * * * * * * * * * * * * * * * * * * * * * * * * * * * * * * * //
Create time

Create mesh for time = 0

Reading transportProperties

Reading field p

Reading field U

Reading/calculating face flux field phi


Starting time loop

Time = 0.00666667

Courant Number mean: 0.166422 max: 0.762393
DILUPBiCGStab:  Solving for Ux, Initial residual = 0.0879544, Final residual = 2.84443e-08, No Iterations 5
DILUPBiCGStab:  Solving for Uy, Initial residual = 0.126984, Final residual = 8.95339e-08, No Iterations 5
DILUPBiCGStab:  Solving for Uz, Initial residual = 0.181802, Final residual = 6.74481e-08, No Iterations 5
linear solve U 2668
nonePCG:  Solving for p, Initial residual = 0.516107, Final residual = 8.27645e-07, No Iterations 124
linear solve p 4082
time step continuity errors : sum local = 1.13864e-08, global = 1.4772e-19, cumulative = 1.4772e-19
nonePCG:  Solving for p, Initial residual = 0.271044, Final residual = 7.24562e-07, No Iterations 122
linear solve p 3747
time step continuity errors : sum local = 6.86561e-09, global = 2.47989e-19, cumulative = 3.95709e-19
ExecutionTime = 0.06 s  ClockTime = 0 s

Time = 0.0133333

Courant Number mean: 0.171844 max: 0.7773
DILUPBiCGStab:  Solving for Ux, Initial residual = 0.021091, Final residual = 3.3489e-08, No Iterations 5
DILUPBiCGStab:  Solving for Uy, Initial residual = 0.0294978, Final residual = 2.90938e-08, No Iterations 5
DILUPBiCGStab:  Solving for Uz, Initial residual = 0.0732082, Final residual = 9.43996e-08, No Iterations 5
linear solve U 1975
nonePCG:  Solving for p, Initial residual = 0.145366, Final residual = 9.39018e-07, No Iterations 120
linear solve p 3743
time step continuity errors : sum local = 9.34862e-09, global = 1.01358e-19, cumulative = 4.97067e-19
nonePCG:  Solving for p, Initial residual = 0.0851931, Final residual = 9.0199e-07, No Iterations 117
linear solve p 3610
time step continuity errors : sum local = 9.33565e-09, global = 1.94551e-19, cumulative = 6.91618e-19
ExecutionTime = 0.08 s  ClockTime = 0 s

Time = 0.02

Courant Number mean: 0.175686 max: 0.781335
DILUPBiCGStab:  Solving for Ux, Initial residual = 0.00575258, Final residual = 1.22852e-08, No Iterations 5
DILUPBiCGStab:  Solving for Uy, Initial residual = 0.0110678, Final residual = 1.82252e-08, No Iterations 5
DILUPBiCGStab:  Solving for Uz, Initial residual = 0.0200834, Final residual = 1.31151e-08, No Iterations 5
linear solve U 1978
nonePCG:  Solving for p, Initial residual = 0.0225175, Final residual = 9.30556e-07, No Iterations 113
linear solve p 3394
time step continuity errors : sum local = 9.47053e-09, global = -3.17944e-20, cumulative = 6.59823e-19
nonePCG:  Solving for p, Initial residual = 0.0139171, Final residual = 9.63116e-07, No Iterations 110
linear solve p 3242
time step continuity errors : sum local = 9.83565e-09, global = 1.03833e-19, cumulative = 7.63657e-19
ExecutionTime = 0.09 s  ClockTime = 0 s

Time = 0.0266667

Courant Number mean: 0.178552 max: 0.784987
DILUPBiCGStab:  Solving for Ux, Initial residual = 0.00342754, Final residual = 5.11321e-09, No Iterations 5
DILUPBiCGStab:  Solving for Uy, Initial residual = 0.00658362, Final residual = 1.13821e-08, No Iterations 5
DILUPBiCGStab:  Solving for Uz, Initial residual = 0.00949849, Final residual = 9.60308e-09, No Iterations 5
linear solve U 1941
nonePCG:  Solving for p, Initial residual = 0.0101178, Final residual = 9.94787e-07, No Iterations 108
linear solve p 3176
time step continuity errors : sum local = 1.01382e-08, global = -1.11729e-19, cumulative = 6.51927e-19
nonePCG:  Solving for p, Initial residual = 0.00719848, Final residual = 8.53584e-07, No Iterations 106
linear solve p 3187
time step continuity errors : sum local = 8.70277e-09, global = -3.17005e-19, cumulative = 3.34922e-19
ExecutionTime = 0.1 s  ClockTime = 0 s

Time = 0.0333333

Courant Number mean: 0.180501 max: 0.787346
DILUPBiCGStab:  Solving for Ux, Initial residual = 0.00221539, Final residual = 1.91432e-09, No Iterations 5
DILUPBiCGStab:  Solving for Uy, Initial residual = 0.00448362, Final residual = 2.8949e-09, No Iterations 5
DILUPBiCGStab:  Solving for Uz, Initial residual = 0.00628867, Final residual = 3.23015e-09, No Iterations 5
linear solve U 1928
nonePCG:  Solving for p, Initial residual = 0.00453479, Final residual = 8.95084e-07, No Iterations 102
linear solve p 3069
time step continuity errors : sum local = 9.13822e-09, global = -3.62377e-19, cumulative = -2.74551e-20
nonePCG:  Solving for p, Initial residual = 0.00321788, Final residual = 9.88698e-07, No Iterations 100
linear solve p 2962
time step continuity errors : sum local = 1.00945e-08, global = 7.6914e-21, cumulative = -1.97637e-20
ExecutionTime = 0.11 s  ClockTime = 0 s

Time = 0.04

Courant Number mean: 0.181845 max: 0.788821
DILUPBiCGStab:  Solving for Ux, Initial residual = 0.00152157, Final residual = 8.48076e-10, No Iterations 5
DILUPBiCGStab:  Solving for Uy, Initial residual = 0.00314047, Final residual = 2.02366e-09, No Iterations 5
DILUPBiCGStab:  Solving for Uz, Initial residual = 0.00421571, Final residual = 2.1e-09, No Iterations 5
linear solve U 1934
nonePCG:  Solving for p, Initial residual = 0.00332561, Final residual = 9.96631e-07, No Iterations 99
linear solve p 3031
time step continuity errors : sum local = 1.01883e-08, global = 9.13848e-20, cumulative = 7.16212e-20
nonePCG:  Solving for p, Initial residual = 0.00243836, Final residual = 8.82732e-07, No Iterations 96
linear solve p 2915
time step continuity errors : sum local = 9.0343e-09, global = -8.47247e-20, cumulative = -1.31035e-20
ExecutionTime = 0.12 s  ClockTime = 0 s

Time = 0.0466667

Courant Number mean: 0.182778 max: 0.78982
DILUPBiCGStab:  Solving for Ux, Initial residual = 0.00104887, Final residual = 5.72263e-10, No Iterations 5
DILUPBiCGStab:  Solving for Uy, Initial residual = 0.00219899, Final residual = 1.09457e-09, No Iterations 5
DILUPBiCGStab:  Solving for Uz, Initial residual = 0.00292421, Final residual = 1.38257e-09, No Iterations 5
linear solve U 1918
nonePCG:  Solving for p, Initial residual = 0.00216731, Final residual = 9.22913e-07, No Iterations 96
linear solve p 2838
time step continuity errors : sum local = 9.45321e-09, global = 1.91989e-20, cumulative = 6.09537e-21
nonePCG:  Solving for p, Initial residual = 0.00157953, Final residual = 9.91514e-07, No Iterations 93
linear solve p 2824
time step continuity errors : sum local = 1.01558e-08, global = -8.1305e-20, cumulative = -7.52096e-20
ExecutionTime = 0.13 s  ClockTime = 0 s

Time = 0.0533333

Courant Number mean: 0.183428 max: 0.790487
DILUPBiCGStab:  Solving for Ux, Initial residual = 0.000730835, Final residual = 3.54013e-10, No Iterations 5
DILUPBiCGStab:  Solving for Uy, Initial residual = 0.0015484, Final residual = 6.39177e-10, No Iterations 5
DILUPBiCGStab:  Solving for Uz, Initial residual = 0.00201388, Final residual = 9.6736e-10, No Iterations 5
linear solve U 1927
nonePCG:  Solving for p, Initial residual = 0.00152839, Final residual = 8.58991e-07, No Iterations 94
linear solve p 2855
time step continuity errors : sum local = 8.79654e-09, global = -4.52396e-19, cumulative = -5.27606e-19
nonePCG:  Solving for p, Initial residual = 0.00111779, Final residual = 8.72412e-07, No Iterations 92
linear solve p 2735
time step continuity errors : sum local = 8.93296e-09, global = -4.91607e-20, cumulative = -5.76766e-19
ExecutionTime = 0.14 s  ClockTime = 0 s

Time = 0.06

Courant Number mean: 0.183881 max: 0.790942
DILUPBiCGStab:  Solving for Ux, Initial residual = 0.000512676, Final residual = 2.40564e-10, No Iterations 5
DILUPBiCGStab:  Solving for Uy, Initial residual = 0.00109128, Final residual = 3.82885e-10, No Iterations 5
DILUPBiCGStab:  Solving for Uz, Initial residual = 0.00138974, Final residual = 6.77593e-10, No Iterations 5
linear solve U 1922
nonePCG:  Solving for p, Initial residual = 0.00105841, Final residual = 7.56635e-07, No Iterations 93
linear solve p 2801
time step continuity errors : sum local = 7.75065e-09, global = -2.65908e-19, cumulative = -8.42675e-19
nonePCG:  Solving for p, Initial residual = 0.000774321, Final residual = 8.20683e-07, No Iterations 91
linear solve p 2694
time step continuity errors : sum local = 8.40281e-09, global = -1.30431e-19, cumulative = -9.73106e-19
ExecutionTime = 0.15 s  ClockTime = 0 s

Time = 0.0666667

Courant Number mean: 0.184198 max: 0.791252
DILUPBiCGStab:  Solving for Ux, Initial residual = 0.000360492, Final residual = 1.62713e-10, No Iterations 5
DILUPBiCGStab:  Solving for Uy, Initial residual = 0.000770424, Final residual = 2.43101e-10, No Iterations 5
DILUPBiCGStab:  Solving for Uz, Initial residual = 0.000959898, Final residual = 4.74824e-10, No Iterations 5
linear solve U 1917
nonePCG:  Solving for p, Initial residual = 0.000741324, Final residual = 9.46648e-07, No Iterations 91
linear solve p 2725
time step continuity errors : sum local = 9.6887e-09, global = -9.11498e-20, cumulative = -1.06426e-18
nonePCG:  Solving for p, Initial residual = 0.000541834, Final residual = 7.84886e-07, No Iterations 89
linear solve p 2694
time step continuity errors : sum local = 8.03268e-09, global = -1.35513e-20, cumulative = -1.07781e-18
ExecutionTime = 0.16 s  ClockTime = 0 s

End

