/*---------------------------------------------------------------------------*\
  =========                 |
  \\      /  F ield         | OpenFOAM: The Open Source CFD Toolbox
   \\    /   O peration     | Website:  https://openfoam.org
    \\  /    A nd           | Version:  8
     \\/     M anipulation  |
\*---------------------------------------------------------------------------*/
Build  : 8-ef60d22ea792
Exec   : icoFoam
Date   : Sep 15 2021
Time   : 14:49:12
Host   : "uc2n482.localdomain"
PID    : 3654640
I/O    : uncollated
Case   : /pfs/data5/home/kit/scc/nq7776/data/code/OBR/lidDrivenCavity3D/Variation_init/100/Variation_mesh/85/Variation_matrix_solver/CG_BJ_CUDA/Variation_maxBlockSize/1/1631710127
nProcs : 1
sigFpe : Enabling floating point exception trapping (FOAM_SIGFPE).
fileModificationChecking : Monitoring run-time modified files using timeStampMaster (fileModificationSkew 10)
allowSystemOperations : Allowing user-supplied system call operations

// * * * * * * * * * * * * * * * * * * * * * * * * * * * * * * * * * * * * * //
Create time

Create mesh for time = 0

Reading transportProperties

Reading field p

Reading field U

Reading/calculating face flux field phi


Starting time loop

Time = 0.00117647

Courant Number mean: 0.17078 max: 0.958539
DILUPBiCGStab:  Solving for Ux, Initial residual = 0.08035, Final residual = 0.000200532, No Iterations 5
DILUPBiCGStab:  Solving for Uy, Initial residual = 0.159613, Final residual = 0.00056519, No Iterations 5
DILUPBiCGStab:  Solving for Uz, Initial residual = 0.222246, Final residual = 0.000790216, No Iterations 5
linear solve U 668433
[OGL LOG] init_host_sparsity_pattern : 178 ms
[OGL LOG] matrix not stored update host matrix
[OGL LOG] update_host_mtx : 99 ms
[OGL LOG] matrix is not yet sorted, compute sorting idxs
[OGL LOG] compute_sort : 5766 ms
[OGL LOG] matrix is not yet sorted, sorting host matrix
[OGL LOG] sort_host_mtx_sparsity_pattern : 126 ms
[OGL LOG] sort_host_mtx : 76 ms
[OGL LOG] init_preconditioner : 1 ms
[OGL LOG] solve : 585 ms
BJcudaGKOCG:  Solving for p, Initial residual = 0.643964, Final residual = 9.88345e-07, No Iterations 695
linear solve p 7639387
time step continuity errors : sum local = 7.93222e-10, global = -1.23611e-20, cumulative = -1.23611e-20
[OGL LOG] init_preconditioner : 0 ms
[OGL LOG] solve : 582 ms
BJcudaGKOCG:  Solving for p, Initial residual = 0.369996, Final residual = 9.62041e-07, No Iterations 694
linear solve p 602137
time step continuity errors : sum local = 6.86322e-10, global = -1.15126e-20, cumulative = -2.38737e-20
ExecutionTime = 12.16 s  ClockTime = 12 s

Time = 0.00235294

Courant Number mean: 0.17242 max: 0.959521
DILUPBiCGStab:  Solving for Ux, Initial residual = 0.0066867, Final residual = 4.22365e-05, No Iterations 5
DILUPBiCGStab:  Solving for Uy, Initial residual = 0.0171906, Final residual = 0.000144528, No Iterations 5
DILUPBiCGStab:  Solving for Uz, Initial residual = 0.0433643, Final residual = 0.000582287, No Iterations 5
linear solve U 620652
[OGL LOG] init_preconditioner : 0 ms
[OGL LOG] solve : 589 ms
BJcudaGKOCG:  Solving for p, Initial residual = 0.435511, Final residual = 9.94124e-07, No Iterations 705
linear solve p 608310
time step continuity errors : sum local = 8.12569e-08, global = 3.40026e-21, cumulative = -2.04734e-20
[OGL LOG] init_preconditioner : 0 ms
[OGL LOG] solve : 590 ms
BJcudaGKOCG:  Solving for p, Initial residual = 0.303855, Final residual = 9.87043e-07, No Iterations 703
linear solve p 609482
time step continuity errors : sum local = 7.02138e-08, global = -1.82471e-21, cumulative = -2.22981e-20
ExecutionTime = 14.35 s  ClockTime = 14 s

Time = 0.00352941

Courant Number mean: 0.173894 max: 0.959456
DILUPBiCGStab:  Solving for Ux, Initial residual = 0.00333713, Final residual = 3.14698e-05, No Iterations 5
DILUPBiCGStab:  Solving for Uy, Initial residual = 0.0094561, Final residual = 8.96576e-05, No Iterations 5
DILUPBiCGStab:  Solving for Uz, Initial residual = 0.0306855, Final residual = 0.000410298, No Iterations 5
linear solve U 617806
[OGL LOG] init_preconditioner : 0 ms
[OGL LOG] solve : 583 ms
BJcudaGKOCG:  Solving for p, Initial residual = 0.299931, Final residual = 9.75754e-07, No Iterations 702
linear solve p 603446
time step continuity errors : sum local = 6.82869e-08, global = -1.35843e-20, cumulative = -3.58824e-20
[OGL LOG] init_preconditioner : 0 ms
[OGL LOG] solve : 587 ms
BJcudaGKOCG:  Solving for p, Initial residual = 0.215688, Final residual = 9.75361e-07, No Iterations 699
linear solve p 606703
time step continuity errors : sum local = 6.8463e-08, global = 7.648e-21, cumulative = -2.82344e-20
ExecutionTime = 16.56 s  ClockTime = 16 s

Time = 0.00470588

Courant Number mean: 0.175264 max: 0.959792
DILUPBiCGStab:  Solving for Ux, Initial residual = 0.0024873, Final residual = 2.07233e-05, No Iterations 5
DILUPBiCGStab:  Solving for Uy, Initial residual = 0.00741672, Final residual = 5.77356e-05, No Iterations 5
DILUPBiCGStab:  Solving for Uz, Initial residual = 0.0248513, Final residual = 0.00034699, No Iterations 5
linear solve U 604709
[OGL LOG] init_preconditioner : 0 ms
[OGL LOG] solve : 582 ms
BJcudaGKOCG:  Solving for p, Initial residual = 0.231304, Final residual = 9.99704e-07, No Iterations 694
linear solve p 604196
time step continuity errors : sum local = 6.9933e-08, global = 2.58638e-21, cumulative = -2.5648e-20
[OGL LOG] init_preconditioner : 0 ms
[OGL LOG] solve : 583 ms
BJcudaGKOCG:  Solving for p, Initial residual = 0.174242, Final residual = 9.93353e-07, No Iterations 692
linear solve p 603331
time step continuity errors : sum local = 6.91906e-08, global = 3.36201e-20, cumulative = 7.97208e-21
ExecutionTime = 18.75 s  ClockTime = 18 s

Time = 0.00588235

Courant Number mean: 0.176537 max: 0.960088
DILUPBiCGStab:  Solving for Ux, Initial residual = 0.00205611, Final residual = 1.50289e-05, No Iterations 5
DILUPBiCGStab:  Solving for Uy, Initial residual = 0.00597112, Final residual = 3.6131e-05, No Iterations 5
DILUPBiCGStab:  Solving for Uz, Initial residual = 0.0198549, Final residual = 0.000272456, No Iterations 5
linear solve U 622816
[OGL LOG] init_preconditioner : 0 ms
[OGL LOG] solve : 574 ms
BJcudaGKOCG:  Solving for p, Initial residual = 0.174287, Final residual = 9.96462e-07, No Iterations 687
linear solve p 593613
time step continuity errors : sum local = 6.92367e-08, global = -4.87988e-21, cumulative = 3.0922e-21
[OGL LOG] init_preconditioner : 0 ms
[OGL LOG] solve : 575 ms
BJcudaGKOCG:  Solving for p, Initial residual = 0.135155, Final residual = 9.73769e-07, No Iterations 685
linear solve p 595019
time step continuity errors : sum local = 6.88034e-08, global = 1.34605e-20, cumulative = 1.65527e-20
ExecutionTime = 20.92 s  ClockTime = 21 s

Time = 0.00705882

Courant Number mean: 0.177704 max: 0.960428
DILUPBiCGStab:  Solving for Ux, Initial residual = 0.00174906, Final residual = 1.21875e-05, No Iterations 5
DILUPBiCGStab:  Solving for Uy, Initial residual = 0.00512415, Final residual = 2.67735e-05, No Iterations 5
DILUPBiCGStab:  Solving for Uz, Initial residual = 0.0165787, Final residual = 0.000216583, No Iterations 5
linear solve U 610188
[OGL LOG] init_preconditioner : 0 ms
[OGL LOG] solve : 567 ms
BJcudaGKOCG:  Solving for p, Initial residual = 0.141168, Final residual = 9.44975e-07, No Iterations 678
linear solve p 586439
time step continuity errors : sum local = 6.89538e-08, global = -1.22923e-20, cumulative = 4.26035e-21
[OGL LOG] init_preconditioner : 0 ms
[OGL LOG] solve : 568 ms
BJcudaGKOCG:  Solving for p, Initial residual = 0.112335, Final residual = 9.73746e-07, No Iterations 676
linear solve p 589657
time step continuity errors : sum local = 6.8986e-08, global = 6.03921e-21, cumulative = 1.02996e-20
ExecutionTime = 23.08 s  ClockTime = 23 s

Time = 0.00823529

Courant Number mean: 0.178771 max: 0.960686
DILUPBiCGStab:  Solving for Ux, Initial residual = 0.00151464, Final residual = 9.78438e-06, No Iterations 5
DILUPBiCGStab:  Solving for Uy, Initial residual = 0.00444476, Final residual = 2.00458e-05, No Iterations 5
DILUPBiCGStab:  Solving for Uz, Initial residual = 0.0136236, Final residual = 0.000162002, No Iterations 5
linear solve U 608667
[OGL LOG] init_preconditioner : 0 ms
[OGL LOG] solve : 563 ms
BJcudaGKOCG:  Solving for p, Initial residual = 0.11392, Final residual = 9.9061e-07, No Iterations 674
linear solve p 583162
time step continuity errors : sum local = 6.91613e-08, global = 5.4874e-21, cumulative = 1.5787e-20
[OGL LOG] init_preconditioner : 0 ms
[OGL LOG] solve : 564 ms
BJcudaGKOCG:  Solving for p, Initial residual = 0.0918216, Final residual = 9.32532e-07, No Iterations 673
linear solve p 583588
time step continuity errors : sum local = 6.88636e-08, global = -3.23875e-20, cumulative = -1.66006e-20
ExecutionTime = 25.23 s  ClockTime = 25 s

Time = 0.00941176

Courant Number mean: 0.179753 max: 0.960953
DILUPBiCGStab:  Solving for Ux, Initial residual = 0.00134499, Final residual = 8.39637e-06, No Iterations 5
DILUPBiCGStab:  Solving for Uy, Initial residual = 0.00391836, Final residual = 1.64918e-05, No Iterations 5
DILUPBiCGStab:  Solving for Uz, Initial residual = 0.0115657, Final residual = 0.000123249, No Iterations 5
linear solve U 606478
[OGL LOG] init_preconditioner : 0 ms
[OGL LOG] solve : 560 ms
BJcudaGKOCG:  Solving for p, Initial residual = 0.0945182, Final residual = 9.77812e-07, No Iterations 669
linear solve p 582126
time step continuity errors : sum local = 6.88761e-08, global = 2.25815e-20, cumulative = 5.98088e-21
[OGL LOG] init_preconditioner : 0 ms
[OGL LOG] solve : 559 ms
BJcudaGKOCG:  Solving for p, Initial residual = 0.0771007, Final residual = 9.70505e-07, No Iterations 667
linear solve p 578698
time step continuity errors : sum local = 6.89273e-08, global = 1.56108e-20, cumulative = 2.15916e-20
ExecutionTime = 27.38 s  ClockTime = 27 s

Time = 0.0105882

Courant Number mean: 0.180649 max: 0.961168
DILUPBiCGStab:  Solving for Ux, Initial residual = 0.00118527, Final residual = 6.93748e-06, No Iterations 5
DILUPBiCGStab:  Solving for Uy, Initial residual = 0.0034948, Final residual = 1.38677e-05, No Iterations 5
DILUPBiCGStab:  Solving for Uz, Initial residual = 0.00963708, Final residual = 8.71688e-05, No Iterations 5
linear solve U 609544
[OGL LOG] init_preconditioner : 0 ms
[OGL LOG] solve : 555 ms
BJcudaGKOCG:  Solving for p, Initial residual = 0.0787011, Final residual = 9.97304e-07, No Iterations 665
linear solve p 574103
time step continuity errors : sum local = 6.90647e-08, global = 1.92875e-20, cumulative = 4.08792e-20
[OGL LOG] init_preconditioner : 0 ms
[OGL LOG] solve : 554 ms
BJcudaGKOCG:  Solving for p, Initial residual = 0.0644998, Final residual = 9.58965e-07, No Iterations 664
linear solve p 573223
time step continuity errors : sum local = 6.88838e-08, global = -1.10905e-20, cumulative = 2.97886e-20
ExecutionTime = 29.49 s  ClockTime = 29 s

Time = 0.0117647

Courant Number mean: 0.181477 max: 0.961382
DILUPBiCGStab:  Solving for Ux, Initial residual = 0.00107351, Final residual = 6.1223e-06, No Iterations 5
DILUPBiCGStab:  Solving for Uy, Initial residual = 0.00312573, Final residual = 1.24594e-05, No Iterations 5
DILUPBiCGStab:  Solving for Uz, Initial residual = 0.00836386, Final residual = 6.5954e-05, No Iterations 5
linear solve U 618951
[OGL LOG] init_preconditioner : 0 ms
[OGL LOG] solve : 546 ms
BJcudaGKOCG:  Solving for p, Initial residual = 0.0658935, Final residual = 9.60555e-07, No Iterations 660
linear solve p 565133
time step continuity errors : sum local = 6.88673e-08, global = 4.06459e-21, cumulative = 3.38532e-20
[OGL LOG] init_preconditioner : 0 ms
[OGL LOG] solve : 552 ms
BJcudaGKOCG:  Solving for p, Initial residual = 0.0542656, Final residual = 9.97619e-07, No Iterations 658
linear solve p 571151
time step continuity errors : sum local = 6.89111e-08, global = 2.51271e-21, cumulative = 3.63659e-20
ExecutionTime = 31.61 s  ClockTime = 31 s

End

