/*---------------------------------------------------------------------------*\
  =========                 |
  \\      /  F ield         | OpenFOAM: The Open Source CFD Toolbox
   \\    /   O peration     | Website:  https://openfoam.org
    \\  /    A nd           | Version:  8
     \\/     M anipulation  |
\*---------------------------------------------------------------------------*/
Build  : 8-ef60d22ea792
Exec   : icoFoam
Date   : Sep 15 2021
Time   : 14:59:13
Host   : "uc2n482.localdomain"
PID    : 3657299
I/O    : uncollated
Case   : /pfs/data5/home/kit/scc/nq7776/data/code/OBR/lidDrivenCavity3D/Variation_init/100/Variation_mesh/10/Variation_matrix_solver/IR_NoPrecond_CUDA/Variation_innerReductionFactor/0.1/1631710751
nProcs : 1
sigFpe : Enabling floating point exception trapping (FOAM_SIGFPE).
fileModificationChecking : Monitoring run-time modified files using timeStampMaster (fileModificationSkew 10)
allowSystemOperations : Allowing user-supplied system call operations

// * * * * * * * * * * * * * * * * * * * * * * * * * * * * * * * * * * * * * //
Create time

Create mesh for time = 0

Reading transportProperties

Reading field p

Reading field U

Reading/calculating face flux field phi


Starting time loop

Time = 0.01

Courant Number mean: 0.164367 max: 0.687382
DILUPBiCGStab:  Solving for Ux, Initial residual = 0.143876, Final residual = 4.90416e-10, No Iterations 5
DILUPBiCGStab:  Solving for Uy, Initial residual = 0.166383, Final residual = 9.49899e-10, No Iterations 5
DILUPBiCGStab:  Solving for Uz, Initial residual = 0.331866, Final residual = 6.25857e-09, No Iterations 5
linear solve U 791
[OGL LOG] init_host_sparsity_pattern : 0 ms
[OGL LOG] matrix not stored update host matrix
[OGL LOG] update_host_mtx : 0 ms
[OGL LOG] matrix is not yet sorted, compute sorting idxs
[OGL LOG] compute_sort : 5 ms
[OGL LOG] matrix is not yet sorted, sorting host matrix
[OGL LOG] sort_host_mtx_sparsity_pattern : 0 ms
[OGL LOG] sort_host_mtx : 0 ms
[OGL LOG] init_preconditioner : 0 ms
[OGL LOG] solve : 15 ms
nonecudaGKOIR:  Solving for p, Initial residual = 0.61492, Final residual = 8.54403e-07, No Iterations 6
linear solve p 779345
time step continuity errors : sum local = 3.01965e-08, global = -6.47323e-19, cumulative = -6.47323e-19
[OGL LOG] init_preconditioner : 0 ms
[OGL LOG] solve : 15 ms
nonecudaGKOIR:  Solving for p, Initial residual = 0.306168, Final residual = 3.01411e-07, No Iterations 6
linear solve p 16167
time step continuity errors : sum local = 5.6422e-09, global = -4.57127e-19, cumulative = -1.10445e-18
ExecutionTime = 0.84 s  ClockTime = 1 s

Time = 0.02

Courant Number mean: 0.168824 max: 0.675339
DILUPBiCGStab:  Solving for Ux, Initial residual = 0.0355473, Final residual = 1.50455e-09, No Iterations 5
DILUPBiCGStab:  Solving for Uy, Initial residual = 0.0400343, Final residual = 6.38146e-10, No Iterations 5
DILUPBiCGStab:  Solving for Uz, Initial residual = 0.103392, Final residual = 1.84862e-09, No Iterations 5
linear solve U 586
[OGL LOG] init_preconditioner : 0 ms
[OGL LOG] solve : 15 ms
nonecudaGKOIR:  Solving for p, Initial residual = 0.153464, Final residual = 1.18961e-07, No Iterations 6
linear solve p 15689
time step continuity errors : sum local = 2.73777e-05, global = -2.19037e-19, cumulative = -1.32349e-18
[OGL LOG] init_preconditioner : 0 ms
[OGL LOG] solve : 13 ms
nonecudaGKOIR:  Solving for p, Initial residual = 0.0682509, Final residual = 7.18593e-07, No Iterations 5
linear solve p 13757
time step continuity errors : sum local = 2.45652e-05, global = -9.21612e-19, cumulative = -2.2451e-18
ExecutionTime = 0.86 s  ClockTime = 1 s

Time = 0.03

Courant Number mean: 0.172125 max: 0.67452
DILUPBiCGStab:  Solving for Ux, Initial residual = 0.0078623, Final residual = 3.41244e-10, No Iterations 5
DILUPBiCGStab:  Solving for Uy, Initial residual = 0.0117528, Final residual = 1.81658e-10, No Iterations 5
DILUPBiCGStab:  Solving for Uz, Initial residual = 0.0329065, Final residual = 7.77033e-10, No Iterations 5
linear solve U 578
[OGL LOG] init_preconditioner : 0 ms
[OGL LOG] solve : 12 ms
nonecudaGKOIR:  Solving for p, Initial residual = 0.0151551, Final residual = 1.33129e-07, No Iterations 5
linear solve p 12904
time step continuity errors : sum local = 2.43583e-05, global = -8.33798e-21, cumulative = -2.25344e-18
[OGL LOG] init_preconditioner : 0 ms
[OGL LOG] solve : 11 ms
nonecudaGKOIR:  Solving for p, Initial residual = 0.00702997, Final residual = 4.90897e-07, No Iterations 4
linear solve p 12191
time step continuity errors : sum local = 2.43952e-05, global = -2.89778e-19, cumulative = -2.54321e-18
ExecutionTime = 0.9 s  ClockTime = 1 s

Time = 0.04

Courant Number mean: 0.174438 max: 0.676488
DILUPBiCGStab:  Solving for Ux, Initial residual = 0.00346879, Final residual = 8.54505e-11, No Iterations 5
DILUPBiCGStab:  Solving for Uy, Initial residual = 0.00573796, Final residual = 8.30756e-11, No Iterations 5
DILUPBiCGStab:  Solving for Uz, Initial residual = 0.0109297, Final residual = 1.61968e-10, No Iterations 5
linear solve U 609
[OGL LOG] init_preconditioner : 0 ms
[OGL LOG] solve : 11 ms
nonecudaGKOIR:  Solving for p, Initial residual = 0.0063308, Final residual = 4.52007e-07, No Iterations 4
linear solve p 11695
time step continuity errors : sum local = 2.44221e-05, global = -2.10567e-19, cumulative = -2.75378e-18
[OGL LOG] init_preconditioner : 0 ms
[OGL LOG] solve : 11 ms
nonecudaGKOIR:  Solving for p, Initial residual = 0.00352206, Final residual = 2.87754e-07, No Iterations 4
linear solve p 11241
time step continuity errors : sum local = 2.43924e-05, global = -3.97047e-22, cumulative = -2.75418e-18
ExecutionTime = 0.92 s  ClockTime = 1 s

Time = 0.05

Courant Number mean: 0.17593 max: 0.67828
DILUPBiCGStab:  Solving for Ux, Initial residual = 0.00187324, Final residual = 4.14725e-11, No Iterations 5
DILUPBiCGStab:  Solving for Uy, Initial residual = 0.00338889, Final residual = 1.90918e-11, No Iterations 5
DILUPBiCGStab:  Solving for Uz, Initial residual = 0.00559524, Final residual = 8.00343e-11, No Iterations 5
linear solve U 574
[OGL LOG] init_preconditioner : 0 ms
[OGL LOG] solve : 11 ms
nonecudaGKOIR:  Solving for p, Initial residual = 0.00308573, Final residual = 1.94968e-07, No Iterations 4
linear solve p 11967
time step continuity errors : sum local = 2.43872e-05, global = -1.27849e-19, cumulative = -2.88203e-18
[OGL LOG] init_preconditioner : 0 ms
[OGL LOG] solve : 11 ms
nonecudaGKOIR:  Solving for p, Initial residual = 0.00176209, Final residual = 1.13975e-07, No Iterations 4
linear solve p 12054
time step continuity errors : sum local = 2.43858e-05, global = -4.89492e-19, cumulative = -3.37152e-18
ExecutionTime = 0.94 s  ClockTime = 1 s

Time = 0.06

Courant Number mean: 0.176864 max: 0.679468
DILUPBiCGStab:  Solving for Ux, Initial residual = 0.00111325, Final residual = 1.55543e-11, No Iterations 5
DILUPBiCGStab:  Solving for Uy, Initial residual = 0.00209474, Final residual = 1.01763e-11, No Iterations 5
DILUPBiCGStab:  Solving for Uz, Initial residual = 0.00302008, Final residual = 5.91239e-11, No Iterations 5
linear solve U 576
[OGL LOG] init_preconditioner : 0 ms
[OGL LOG] solve : 11 ms
nonecudaGKOIR:  Solving for p, Initial residual = 0.00188627, Final residual = 1.15562e-07, No Iterations 4
linear solve p 11905
time step continuity errors : sum local = 2.43797e-05, global = 1.66429e-19, cumulative = -3.20509e-18
[OGL LOG] init_preconditioner : 0 ms
[OGL LOG] solve : 9 ms
nonecudaGKOIR:  Solving for p, Initial residual = 0.00108242, Final residual = 6.82121e-07, No Iterations 3
linear solve p 9909
time step continuity errors : sum local = 2.43811e-05, global = -1.59381e-19, cumulative = -3.36447e-18
ExecutionTime = 0.96 s  ClockTime = 1 s

Time = 0.07

Courant Number mean: 0.177444 max: 0.680222
DILUPBiCGStab:  Solving for Ux, Initial residual = 0.000680243, Final residual = 7.14927e-12, No Iterations 5
DILUPBiCGStab:  Solving for Uy, Initial residual = 0.00129786, Final residual = 6.10758e-12, No Iterations 5
DILUPBiCGStab:  Solving for Uz, Initial residual = 0.00176846, Final residual = 3.92215e-11, No Iterations 5
linear solve U 577
[OGL LOG] init_preconditioner : 0 ms
[OGL LOG] solve : 9 ms
nonecudaGKOIR:  Solving for p, Initial residual = 0.00115145, Final residual = 7.34378e-07, No Iterations 3
linear solve p 9637
time step continuity errors : sum local = 2.43774e-05, global = -2.77271e-20, cumulative = -3.3922e-18
[OGL LOG] init_preconditioner : 0 ms
[OGL LOG] solve : 9 ms
nonecudaGKOIR:  Solving for p, Initial residual = 0.000656701, Final residual = 3.39356e-07, No Iterations 3
linear solve p 9801
time step continuity errors : sum local = 2.43776e-05, global = 1.11636e-19, cumulative = -3.28056e-18
ExecutionTime = 0.98 s  ClockTime = 1 s

Time = 0.08

Courant Number mean: 0.177803 max: 0.680688
DILUPBiCGStab:  Solving for Ux, Initial residual = 0.000418538, Final residual = 3.53624e-12, No Iterations 5
DILUPBiCGStab:  Solving for Uy, Initial residual = 0.000805911, Final residual = 3.70891e-12, No Iterations 5
DILUPBiCGStab:  Solving for Uz, Initial residual = 0.00106479, Final residual = 2.46438e-11, No Iterations 5
linear solve U 579
[OGL LOG] init_preconditioner : 0 ms
[OGL LOG] solve : 8 ms
nonecudaGKOIR:  Solving for p, Initial residual = 0.000708122, Final residual = 6.06288e-07, No Iterations 3
linear solve p 9021
time step continuity errors : sum local = 2.43758e-05, global = 3.28225e-19, cumulative = -2.95234e-18
[OGL LOG] init_preconditioner : 0 ms
[OGL LOG] solve : 9 ms
nonecudaGKOIR:  Solving for p, Initial residual = 0.000404026, Final residual = 2.17321e-07, No Iterations 3
linear solve p 9755
time step continuity errors : sum local = 2.43762e-05, global = -5.691e-20, cumulative = -3.00925e-18
ExecutionTime = 1.01 s  ClockTime = 1 s

Time = 0.09

Courant Number mean: 0.178025 max: 0.680973
DILUPBiCGStab:  Solving for Ux, Initial residual = 0.000258418, Final residual = 1.77715e-12, No Iterations 5
DILUPBiCGStab:  Solving for Uy, Initial residual = 0.000500319, Final residual = 2.26387e-12, No Iterations 5
DILUPBiCGStab:  Solving for Uz, Initial residual = 0.00064872, Final residual = 1.50755e-11, No Iterations 5
linear solve U 578
[OGL LOG] init_preconditioner : 0 ms
[OGL LOG] solve : 8 ms
nonecudaGKOIR:  Solving for p, Initial residual = 0.000436617, Final residual = 3.76763e-07, No Iterations 3
linear solve p 9037
time step continuity errors : sum local = 2.4375e-05, global = 8.75488e-20, cumulative = -2.9217e-18
[OGL LOG] init_preconditioner : 0 ms
[OGL LOG] solve : 10 ms
nonecudaGKOIR:  Solving for p, Initial residual = 0.000248886, Final residual = 1.91774e-07, No Iterations 3
linear solve p 10363
time step continuity errors : sum local = 2.43754e-05, global = -7.21103e-19, cumulative = -3.6428e-18
ExecutionTime = 1.03 s  ClockTime = 1 s

Time = 0.1

Courant Number mean: 0.178162 max: 0.681146
DILUPBiCGStab:  Solving for Ux, Initial residual = 0.000159827, Final residual = 8.86578e-13, No Iterations 5
DILUPBiCGStab:  Solving for Uy, Initial residual = 0.000310566, Final residual = 1.38792e-12, No Iterations 5
DILUPBiCGStab:  Solving for Uz, Initial residual = 0.000398148, Final residual = 8.45461e-12, No Iterations 5
linear solve U 592
[OGL LOG] init_preconditioner : 0 ms
[OGL LOG] solve : 9 ms
nonecudaGKOIR:  Solving for p, Initial residual = 0.000269291, Final residual = 1.82828e-07, No Iterations 3
linear solve p 9434
time step continuity errors : sum local = 2.43745e-05, global = 1.33143e-19, cumulative = -3.50966e-18
[OGL LOG] init_preconditioner : 0 ms
[OGL LOG] solve : 9 ms
nonecudaGKOIR:  Solving for p, Initial residual = 0.000153463, Final residual = 9.19261e-08, No Iterations 3
linear solve p 10189
time step continuity errors : sum local = 2.43748e-05, global = 1.85421e-19, cumulative = -3.32424e-18
ExecutionTime = 1.05 s  ClockTime = 1 s

End

