/*---------------------------------------------------------------------------*\
  =========                 |
  \\      /  F ield         | OpenFOAM: The Open Source CFD Toolbox
   \\    /   O peration     | Website:  https://openfoam.org
    \\  /    A nd           | Version:  8
     \\/     M anipulation  |
\*---------------------------------------------------------------------------*/
Build  : 8-ef60d22ea792
Exec   : icoFoam
Date   : Sep 15 2021
Time   : 14:31:02
Host   : "uc2n482.localdomain"
PID    : 3650772
I/O    : uncollated
Case   : /pfs/data5/home/kit/scc/nq7776/data/code/OBR/lidDrivenCavity3D/Variation_init/100/Variation_mesh/100/Variation_matrix_solver/CG_ILU_CUDA/1631709016
nProcs : 1
sigFpe : Enabling floating point exception trapping (FOAM_SIGFPE).
fileModificationChecking : Monitoring run-time modified files using timeStampMaster (fileModificationSkew 10)
allowSystemOperations : Allowing user-supplied system call operations

// * * * * * * * * * * * * * * * * * * * * * * * * * * * * * * * * * * * * * //
Create time

Create mesh for time = 0

Reading transportProperties

Reading field p

Reading field U

Reading/calculating face flux field phi


Starting time loop

Time = 0.001

Courant Number mean: 0.171005 max: 0.964718
DILUPBiCGStab:  Solving for Ux, Initial residual = 0.00221104, Final residual = 2.10455e-05, No Iterations 5
DILUPBiCGStab:  Solving for Uy, Initial residual = 0.00671465, Final residual = 5.53885e-05, No Iterations 5
DILUPBiCGStab:  Solving for Uz, Initial residual = 0.0303966, Final residual = 0.000635532, No Iterations 5
linear solve U 1120933
[OGL LOG] init_host_sparsity_pattern : 290 ms
[OGL LOG] matrix not stored update host matrix
[OGL LOG] update_host_mtx : 158 ms
[OGL LOG] matrix is not yet sorted, compute sorting idxs
[OGL LOG] compute_sort : 9556 ms
[OGL LOG] matrix is not yet sorted, sorting host matrix
[OGL LOG] sort_host_mtx_sparsity_pattern : 208 ms
[OGL LOG] sort_host_mtx : 137 ms
[OGL LOG] init_preconditioner : 401 ms
[OGL LOG] solve : 2120 ms
ILUcudaGKOCG:  Solving for p, Initial residual = 0.148074, Final residual = 9.81201e-07, No Iterations 264
linear solve p 13735018
time step continuity errors : sum local = 3.13547e-10, global = 2.73532e-20, cumulative = 2.73532e-20
[OGL LOG] init_preconditioner : 0 ms
[OGL LOG] solve : 2122 ms
ILUcudaGKOCG:  Solving for p, Initial residual = 0.126694, Final residual = 9.29629e-07, No Iterations 264
linear solve p 2157011
time step continuity errors : sum local = 2.97578e-10, global = 7.37543e-21, cumulative = 3.47286e-20
ExecutionTime = 22.02 s  ClockTime = 22 s

Time = 0.002

Courant Number mean: 0.172431 max: 0.965079
DILUPBiCGStab:  Solving for Ux, Initial residual = 0.00200106, Final residual = 1.87328e-05, No Iterations 5
DILUPBiCGStab:  Solving for Uy, Initial residual = 0.00604336, Final residual = 4.75885e-05, No Iterations 5
DILUPBiCGStab:  Solving for Uz, Initial residual = 0.0264604, Final residual = 0.000565301, No Iterations 5
linear solve U 1101259
[OGL LOG] init_preconditioner : 0 ms
[OGL LOG] solve : 2105 ms
ILUcudaGKOCG:  Solving for p, Initial residual = 0.132747, Final residual = 9.43309e-07, No Iterations 262
linear solve p 2137834
time step continuity errors : sum local = 4.05156e-08, global = -3.77627e-22, cumulative = 3.4351e-20
[OGL LOG] init_preconditioner : 0 ms
[OGL LOG] solve : 2102 ms
ILUcudaGKOCG:  Solving for p, Initial residual = 0.113614, Final residual = 9.54663e-07, No Iterations 261
linear solve p 2136626
time step continuity errors : sum local = 4.05855e-08, global = -1.22375e-20, cumulative = 2.21134e-20
ExecutionTime = 28.03 s  ClockTime = 28 s

Time = 0.003

Courant Number mean: 0.173747 max: 0.965402
DILUPBiCGStab:  Solving for Ux, Initial residual = 0.00178539, Final residual = 1.36892e-05, No Iterations 5
DILUPBiCGStab:  Solving for Uy, Initial residual = 0.00542559, Final residual = 3.58985e-05, No Iterations 5
DILUPBiCGStab:  Solving for Uz, Initial residual = 0.0226266, Final residual = 0.000473525, No Iterations 5
linear solve U 1093386
[OGL LOG] init_preconditioner : 0 ms
[OGL LOG] solve : 2095 ms
ILUcudaGKOCG:  Solving for p, Initial residual = 0.115648, Final residual = 9.88489e-07, No Iterations 261
linear solve p 2129881
time step continuity errors : sum local = 4.06551e-08, global = 9.34638e-21, cumulative = 3.14598e-20
[OGL LOG] init_preconditioner : 0 ms
[OGL LOG] solve : 2094 ms
ILUcudaGKOCG:  Solving for p, Initial residual = 0.0996551, Final residual = 9.14291e-07, No Iterations 261
linear solve p 2129011
time step continuity errors : sum local = 4.05874e-08, global = 1.52366e-20, cumulative = 4.66964e-20
ExecutionTime = 34.03 s  ClockTime = 34 s

Time = 0.004

Courant Number mean: 0.174968 max: 0.965699
DILUPBiCGStab:  Solving for Ux, Initial residual = 0.00162104, Final residual = 1.17381e-05, No Iterations 5
DILUPBiCGStab:  Solving for Uy, Initial residual = 0.00491229, Final residual = 2.98299e-05, No Iterations 5
DILUPBiCGStab:  Solving for Uz, Initial residual = 0.0199438, Final residual = 0.000417718, No Iterations 5
linear solve U 1093329
[OGL LOG] init_preconditioner : 0 ms
[OGL LOG] solve : 2089 ms
ILUcudaGKOCG:  Solving for p, Initial residual = 0.102854, Final residual = 8.71014e-07, No Iterations 260
linear solve p 2122865
time step continuity errors : sum local = 4.0536e-08, global = 1.73474e-21, cumulative = 4.84311e-20
[OGL LOG] init_preconditioner : 0 ms
[OGL LOG] solve : 2079 ms
ILUcudaGKOCG:  Solving for p, Initial residual = 0.088798, Final residual = 9.32695e-07, No Iterations 259
linear solve p 2113755
time step continuity errors : sum local = 4.05794e-08, global = 5.18036e-21, cumulative = 5.36115e-20
ExecutionTime = 40 s  ClockTime = 40 s

Time = 0.005

Courant Number mean: 0.176093 max: 0.965959
DILUPBiCGStab:  Solving for Ux, Initial residual = 0.00147174, Final residual = 1.01479e-05, No Iterations 5
DILUPBiCGStab:  Solving for Uy, Initial residual = 0.00446501, Final residual = 2.56146e-05, No Iterations 5
DILUPBiCGStab:  Solving for Uz, Initial residual = 0.0171706, Final residual = 0.000346356, No Iterations 5
linear solve U 1090616
[OGL LOG] init_preconditioner : 0 ms
[OGL LOG] solve : 2082 ms
ILUcudaGKOCG:  Solving for p, Initial residual = 0.0910032, Final residual = 9.8956e-07, No Iterations 259
linear solve p 2117734
time step continuity errors : sum local = 4.06287e-08, global = -9.90271e-21, cumulative = 4.37088e-20
[OGL LOG] init_preconditioner : 0 ms
[OGL LOG] solve : 2081 ms
ILUcudaGKOCG:  Solving for p, Initial residual = 0.0783609, Final residual = 9.10505e-07, No Iterations 259
linear solve p 2116992
time step continuity errors : sum local = 4.05797e-08, global = -5.47132e-21, cumulative = 3.82375e-20
ExecutionTime = 45.97 s  ClockTime = 46 s

Time = 0.006

Courant Number mean: 0.177137 max: 0.966208
DILUPBiCGStab:  Solving for Ux, Initial residual = 0.00134468, Final residual = 8.76458e-06, No Iterations 5
DILUPBiCGStab:  Solving for Uy, Initial residual = 0.0040736, Final residual = 2.15006e-05, No Iterations 5
DILUPBiCGStab:  Solving for Uz, Initial residual = 0.0152804, Final residual = 0.000303086, No Iterations 5
linear solve U 1073436
[OGL LOG] init_preconditioner : 0 ms
[OGL LOG] solve : 2073 ms
ILUcudaGKOCG:  Solving for p, Initial residual = 0.0807539, Final residual = 8.75488e-07, No Iterations 258
linear solve p 2105787
time step continuity errors : sum local = 4.0544e-08, global = -2.53296e-20, cumulative = 1.29079e-20
[OGL LOG] init_preconditioner : 0 ms
[OGL LOG] solve : 2064 ms
ILUcudaGKOCG:  Solving for p, Initial residual = 0.0696006, Final residual = 9.70888e-07, No Iterations 257
linear solve p 2096538
time step continuity errors : sum local = 4.05878e-08, global = -8.39111e-21, cumulative = 4.51675e-21
ExecutionTime = 51.86 s  ClockTime = 52 s

Time = 0.007

Courant Number mean: 0.178102 max: 0.966418
DILUPBiCGStab:  Solving for Ux, Initial residual = 0.00122639, Final residual = 7.64839e-06, No Iterations 5
DILUPBiCGStab:  Solving for Uy, Initial residual = 0.00371956, Final residual = 1.89649e-05, No Iterations 5
DILUPBiCGStab:  Solving for Uz, Initial residual = 0.0132336, Final residual = 0.000248086, No Iterations 5
linear solve U 1105223
[OGL LOG] init_preconditioner : 0 ms
[OGL LOG] solve : 2069 ms
ILUcudaGKOCG:  Solving for p, Initial residual = 0.0717583, Final residual = 8.57304e-07, No Iterations 258
linear solve p 2103669
time step continuity errors : sum local = 4.05765e-08, global = -1.18795e-20, cumulative = -7.36272e-21
[OGL LOG] init_preconditioner : 0 ms
[OGL LOG] solve : 2066 ms
ILUcudaGKOCG:  Solving for p, Initial residual = 0.0617178, Final residual = 9.42539e-07, No Iterations 257
linear solve p 2099477
time step continuity errors : sum local = 4.05842e-08, global = 5.85612e-21, cumulative = -1.50661e-21
ExecutionTime = 57.81 s  ClockTime = 58 s

Time = 0.008

Courant Number mean: 0.179 max: 0.966628
DILUPBiCGStab:  Solving for Ux, Initial residual = 0.0011259, Final residual = 6.62589e-06, No Iterations 5
DILUPBiCGStab:  Solving for Uy, Initial residual = 0.00341328, Final residual = 1.60706e-05, No Iterations 5
DILUPBiCGStab:  Solving for Uz, Initial residual = 0.0118625, Final residual = 0.000215852, No Iterations 5
linear solve U 1089002
[OGL LOG] init_preconditioner : 0 ms
[OGL LOG] solve : 2048 ms
ILUcudaGKOCG:  Solving for p, Initial residual = 0.0635234, Final residual = 9.63667e-07, No Iterations 256
linear solve p 2081712
time step continuity errors : sum local = 4.05716e-08, global = 1.25639e-20, cumulative = 1.10573e-20
[OGL LOG] init_preconditioner : 0 ms
[OGL LOG] solve : 2045 ms
ILUcudaGKOCG:  Solving for p, Initial residual = 0.0546621, Final residual = 8.76856e-07, No Iterations 256
linear solve p 2077864
time step continuity errors : sum local = 4.05594e-08, global = -1.17277e-20, cumulative = -6.70386e-22
ExecutionTime = 63.69 s  ClockTime = 63 s

Time = 0.009

Courant Number mean: 0.17983 max: 0.966798
DILUPBiCGStab:  Solving for Ux, Initial residual = 0.00103086, Final residual = 5.80592e-06, No Iterations 5
DILUPBiCGStab:  Solving for Uy, Initial residual = 0.00312802, Final residual = 1.44169e-05, No Iterations 5
DILUPBiCGStab:  Solving for Uz, Initial residual = 0.0103347, Final residual = 0.000173948, No Iterations 5
linear solve U 1077733
[OGL LOG] init_preconditioner : 0 ms
[OGL LOG] solve : 2046 ms
ILUcudaGKOCG:  Solving for p, Initial residual = 0.0566851, Final residual = 8.77569e-07, No Iterations 256
linear solve p 2079822
time step continuity errors : sum local = 4.05734e-08, global = 2.01086e-20, cumulative = 1.94382e-20
[OGL LOG] init_preconditioner : 0 ms
[OGL LOG] solve : 1966 ms
ILUcudaGKOCG:  Solving for p, Initial residual = 0.0487031, Final residual = 9.75003e-07, No Iterations 246
linear solve p 1998307
time step continuity errors : sum local = 4.05878e-08, global = -1.20923e-20, cumulative = 7.34594e-21
ExecutionTime = 69.47 s  ClockTime = 69 s

Time = 0.01

Courant Number mean: 0.180604 max: 0.966976
DILUPBiCGStab:  Solving for Ux, Initial residual = 0.000950205, Final residual = 5.0453e-06, No Iterations 5
DILUPBiCGStab:  Solving for Uy, Initial residual = 0.0028847, Final residual = 1.23325e-05, No Iterations 5
DILUPBiCGStab:  Solving for Uz, Initial residual = 0.00931925, Final residual = 0.000151107, No Iterations 5
linear solve U 1088387
[OGL LOG] init_preconditioner : 0 ms
[OGL LOG] solve : 2020 ms
ILUcudaGKOCG:  Solving for p, Initial residual = 0.0500834, Final residual = 9.92033e-07, No Iterations 253
linear solve p 2055076
time step continuity errors : sum local = 4.05811e-08, global = 1.6057e-20, cumulative = 2.34029e-20
[OGL LOG] init_preconditioner : 0 ms
[OGL LOG] solve : 2023 ms
ILUcudaGKOCG:  Solving for p, Initial residual = 0.04304, Final residual = 9.20212e-07, No Iterations 253
linear solve p 2055059
time step continuity errors : sum local = 4.05705e-08, global = -1.14061e-20, cumulative = 1.19967e-20
ExecutionTime = 75.27 s  ClockTime = 75 s

End

