/*---------------------------------------------------------------------------*\
  =========                 |
  \\      /  F ield         | OpenFOAM: The Open Source CFD Toolbox
   \\    /   O peration     | Website:  https://openfoam.org
    \\  /    A nd           | Version:  8
     \\/     M anipulation  |
\*---------------------------------------------------------------------------*/
Build  : 8-ef60d22ea792
Exec   : icoFoam
Date   : Sep 15 2021
Time   : 14:31:35
Host   : "uc2n438.localdomain"
PID    : 3550601
I/O    : uncollated
Case   : /pfs/data5/home/kit/scc/nq7776/data/code/OBR/lidDrivenCavity3D/Variation_init/100/Variation_mesh/10/Variation_matrix_solver/CG_DIC_Serial/1631709095
nProcs : 1
sigFpe : Enabling floating point exception trapping (FOAM_SIGFPE).
fileModificationChecking : Monitoring run-time modified files using timeStampMaster (fileModificationSkew 10)
allowSystemOperations : Allowing user-supplied system call operations

// * * * * * * * * * * * * * * * * * * * * * * * * * * * * * * * * * * * * * //
Create time

Create mesh for time = 0

Reading transportProperties

Reading field p

Reading field U

Reading/calculating face flux field phi


Starting time loop

Time = 0.01

Courant Number mean: 0.164367 max: 0.687382
DILUPBiCGStab:  Solving for Ux, Initial residual = 0.143876, Final residual = 4.90416e-10, No Iterations 5
DILUPBiCGStab:  Solving for Uy, Initial residual = 0.166383, Final residual = 9.49899e-10, No Iterations 5
DILUPBiCGStab:  Solving for Uz, Initial residual = 0.331866, Final residual = 6.25857e-09, No Iterations 5
linear solve U 952
DICPCG:  Solving for p, Initial residual = 0.61492, Final residual = 6.79392e-07, No Iterations 26
linear solve p 593
time step continuity errors : sum local = 2.07541e-08, global = -7.62946e-19, cumulative = -7.62946e-19
DICPCG:  Solving for p, Initial residual = 0.306169, Final residual = 5.24924e-07, No Iterations 26
linear solve p 568
time step continuity errors : sum local = 8.99013e-09, global = -9.91479e-20, cumulative = -8.62094e-19
ExecutionTime = 0.05 s  ClockTime = 1 s

Time = 0.02

Courant Number mean: 0.168824 max: 0.675339
DILUPBiCGStab:  Solving for Ux, Initial residual = 0.0355474, Final residual = 1.50456e-09, No Iterations 5
DILUPBiCGStab:  Solving for Uy, Initial residual = 0.0400342, Final residual = 6.38377e-10, No Iterations 5
DILUPBiCGStab:  Solving for Uz, Initial residual = 0.103394, Final residual = 1.8326e-09, No Iterations 5
linear solve U 768
DICPCG:  Solving for p, Initial residual = 0.153508, Final residual = 7.99058e-07, No Iterations 25
linear solve p 543
time step continuity errors : sum local = 1.53163e-08, global = 2.5942e-19, cumulative = -6.02673e-19
DICPCG:  Solving for p, Initial residual = 0.0682602, Final residual = 3.00352e-07, No Iterations 25
linear solve p 585
time step continuity errors : sum local = 6.10728e-09, global = -1.6175e-20, cumulative = -6.18848e-19
ExecutionTime = 0.05 s  ClockTime = 1 s

Time = 0.03

Courant Number mean: 0.172125 max: 0.674515
DILUPBiCGStab:  Solving for Ux, Initial residual = 0.00786063, Final residual = 3.41682e-10, No Iterations 5
DILUPBiCGStab:  Solving for Uy, Initial residual = 0.0117502, Final residual = 1.7997e-10, No Iterations 5
DILUPBiCGStab:  Solving for Uz, Initial residual = 0.0328706, Final residual = 7.79184e-10, No Iterations 5
linear solve U 735
DICPCG:  Solving for p, Initial residual = 0.0151806, Final residual = 5.75213e-07, No Iterations 23
linear solve p 493
time step continuity errors : sum local = 1.1464e-08, global = -1.66394e-19, cumulative = -7.85243e-19
DICPCG:  Solving for p, Initial residual = 0.00707772, Final residual = 7.3631e-07, No Iterations 22
linear solve p 455
time step continuity errors : sum local = 1.47372e-08, global = 6.262e-19, cumulative = -1.59042e-19
ExecutionTime = 0.06 s  ClockTime = 1 s

Time = 0.04

Courant Number mean: 0.174438 max: 0.676484
DILUPBiCGStab:  Solving for Ux, Initial residual = 0.00346839, Final residual = 8.5399e-11, No Iterations 5
DILUPBiCGStab:  Solving for Uy, Initial residual = 0.00573667, Final residual = 8.31033e-11, No Iterations 5
DILUPBiCGStab:  Solving for Uz, Initial residual = 0.0109346, Final residual = 1.5967e-10, No Iterations 5
linear solve U 716
DICPCG:  Solving for p, Initial residual = 0.00632661, Final residual = 7.27954e-07, No Iterations 22
linear solve p 455
time step continuity errors : sum local = 1.46176e-08, global = -2.40838e-19, cumulative = -3.9988e-19
DICPCG:  Solving for p, Initial residual = 0.00351535, Final residual = 3.86542e-07, No Iterations 22
linear solve p 469
time step continuity errors : sum local = 7.76246e-09, global = -3.64415e-19, cumulative = -7.64295e-19
ExecutionTime = 0.06 s  ClockTime = 1 s

Time = 0.05

Courant Number mean: 0.17593 max: 0.678276
DILUPBiCGStab:  Solving for Ux, Initial residual = 0.00187296, Final residual = 4.14313e-11, No Iterations 5
DILUPBiCGStab:  Solving for Uy, Initial residual = 0.00338816, Final residual = 1.90714e-11, No Iterations 5
DILUPBiCGStab:  Solving for Uz, Initial residual = 0.00559217, Final residual = 7.95778e-11, No Iterations 5
linear solve U 754
DICPCG:  Solving for p, Initial residual = 0.00308838, Final residual = 6.20632e-07, No Iterations 21
linear solve p 424
time step continuity errors : sum local = 1.25268e-08, global = 4.80008e-19, cumulative = -2.84287e-19
DICPCG:  Solving for p, Initial residual = 0.00176489, Final residual = 6.36845e-07, No Iterations 20
linear solve p 408
time step continuity errors : sum local = 1.28834e-08, global = -3.72769e-19, cumulative = -6.57056e-19
ExecutionTime = 0.06 s  ClockTime = 1 s

Time = 0.06

Courant Number mean: 0.176863 max: 0.679463
DILUPBiCGStab:  Solving for Ux, Initial residual = 0.00111311, Final residual = 1.55485e-11, No Iterations 5
DILUPBiCGStab:  Solving for Uy, Initial residual = 0.0020943, Final residual = 1.01765e-11, No Iterations 5
DILUPBiCGStab:  Solving for Uz, Initial residual = 0.00301961, Final residual = 5.81696e-11, No Iterations 5
linear solve U 708
DICPCG:  Solving for p, Initial residual = 0.00188524, Final residual = 5.03531e-07, No Iterations 20
linear solve p 412
time step continuity errors : sum local = 1.01632e-08, global = -3.33965e-19, cumulative = -9.91021e-19
DICPCG:  Solving for p, Initial residual = 0.00108172, Final residual = 9.26571e-07, No Iterations 19
linear solve p 390
time step continuity errors : sum local = 1.86438e-08, global = 6.24946e-19, cumulative = -3.66075e-19
ExecutionTime = 0.06 s  ClockTime = 1 s

Time = 0.07

Courant Number mean: 0.177443 max: 0.680218
DILUPBiCGStab:  Solving for Ux, Initial residual = 0.00068017, Final residual = 7.14824e-12, No Iterations 5
DILUPBiCGStab:  Solving for Uy, Initial residual = 0.00129753, Final residual = 6.10657e-12, No Iterations 5
DILUPBiCGStab:  Solving for Uz, Initial residual = 0.00176921, Final residual = 3.83059e-11, No Iterations 5
linear solve U 711
DICPCG:  Solving for p, Initial residual = 0.00115089, Final residual = 2.78704e-07, No Iterations 20
linear solve p 413
time step continuity errors : sum local = 5.61758e-09, global = 4.44906e-19, cumulative = 7.8831e-20
DICPCG:  Solving for p, Initial residual = 0.000656558, Final residual = 5.43249e-07, No Iterations 19
linear solve p 401
time step continuity errors : sum local = 1.09214e-08, global = 9.01886e-20, cumulative = 1.6902e-19
ExecutionTime = 0.07 s  ClockTime = 1 s

Time = 0.08

Courant Number mean: 0.177802 max: 0.680682
DILUPBiCGStab:  Solving for Ux, Initial residual = 0.000418457, Final residual = 3.53543e-12, No Iterations 5
DILUPBiCGStab:  Solving for Uy, Initial residual = 0.000805747, Final residual = 3.70877e-12, No Iterations 5
DILUPBiCGStab:  Solving for Uz, Initial residual = 0.00106468, Final residual = 2.41483e-11, No Iterations 5
linear solve U 704
DICPCG:  Solving for p, Initial residual = 0.000707775, Final residual = 6.11873e-07, No Iterations 19
linear solve p 346
time step continuity errors : sum local = 1.23121e-08, global = 1.44565e-19, cumulative = 3.13584e-19
DICPCG:  Solving for p, Initial residual = 0.000403731, Final residual = 8.50851e-07, No Iterations 18
linear solve p 375
time step continuity errors : sum local = 1.71561e-08, global = -2.48063e-19, cumulative = 6.55215e-20
ExecutionTime = 0.07 s  ClockTime = 1 s

Time = 0.09

Courant Number mean: 0.178024 max: 0.680966
DILUPBiCGStab:  Solving for Ux, Initial residual = 0.000258389, Final residual = 1.7753e-12, No Iterations 5
DILUPBiCGStab:  Solving for Uy, Initial residual = 0.000500193, Final residual = 2.2624e-12, No Iterations 5
DILUPBiCGStab:  Solving for Uz, Initial residual = 0.000649017, Final residual = 1.55133e-11, No Iterations 5
linear solve U 709
DICPCG:  Solving for p, Initial residual = 0.000436282, Final residual = 8.73838e-07, No Iterations 18
linear solve p 328
time step continuity errors : sum local = 1.76342e-08, global = 7.92744e-19, cumulative = 8.58266e-19
DICPCG:  Solving for p, Initial residual = 0.000248736, Final residual = 4.80699e-07, No Iterations 18
linear solve p 338
time step continuity errors : sum local = 9.69854e-09, global = -8.09627e-20, cumulative = 7.77303e-19
ExecutionTime = 0.07 s  ClockTime = 1 s

Time = 0.1

Courant Number mean: 0.17816 max: 0.681139
DILUPBiCGStab:  Solving for Ux, Initial residual = 0.000159807, Final residual = 8.84298e-13, No Iterations 5
DILUPBiCGStab:  Solving for Uy, Initial residual = 0.000310485, Final residual = 1.386e-12, No Iterations 5
DILUPBiCGStab:  Solving for Uz, Initial residual = 0.000398121, Final residual = 9.73354e-12, No Iterations 5
linear solve U 588
DICPCG:  Solving for p, Initial residual = 0.000269109, Final residual = 5.20361e-07, No Iterations 18
linear solve p 311
time step continuity errors : sum local = 1.05048e-08, global = -1.47577e-19, cumulative = 6.29726e-19
DICPCG:  Solving for p, Initial residual = 0.00015337, Final residual = 9.56905e-07, No Iterations 8
linear solve p 169
time step continuity errors : sum local = 2.85936e-08, global = 3.11661e-20, cumulative = 6.60892e-19
ExecutionTime = 0.07 s  ClockTime = 1 s

End

