/*---------------------------------------------------------------------------*\
  =========                 |
  \\      /  F ield         | OpenFOAM: The Open Source CFD Toolbox
   \\    /   O peration     | Website:  https://openfoam.org
    \\  /    A nd           | Version:  8
     \\/     M anipulation  |
\*---------------------------------------------------------------------------*/
Build  : 8-ef60d22ea792
Exec   : icoFoam
Date   : Sep 15 2021
Time   : 13:29:09
Host   : "uc2n482.localdomain"
PID    : 3631180
I/O    : uncollated
Case   : /pfs/data5/home/kit/scc/nq7776/data/code/OBR/lidDrivenCavity3D/Variation_init/100/Variation_mesh/75/Variation_matrix_solver/BiCGStab_NoPrecond_CUDA/1631705331
nProcs : 1
sigFpe : Enabling floating point exception trapping (FOAM_SIGFPE).
fileModificationChecking : Monitoring run-time modified files using timeStampMaster (fileModificationSkew 10)
allowSystemOperations : Allowing user-supplied system call operations

// * * * * * * * * * * * * * * * * * * * * * * * * * * * * * * * * * * * * * //
Create time

Create mesh for time = 0

Reading transportProperties

Reading field p

Reading field U

Reading/calculating face flux field phi


Starting time loop

Time = 0.00133333

Courant Number mean: 0.170873 max: 0.955248
DILUPBiCGStab:  Solving for Ux, Initial residual = 0.150945, Final residual = 8.53015e-05, No Iterations 5
DILUPBiCGStab:  Solving for Uy, Initial residual = 0.292287, Final residual = 0.000196272, No Iterations 5
DILUPBiCGStab:  Solving for Uz, Initial residual = 0.443155, Final residual = 0.000590488, No Iterations 5
linear solve U 443594
[OGL LOG] init_host_sparsity_pattern : 119 ms
[OGL LOG] matrix not stored update host matrix
[OGL LOG] update_host_mtx : 68 ms
[OGL LOG] matrix is not yet sorted, compute sorting idxs
[OGL LOG] compute_sort : 3779 ms
[OGL LOG] matrix is not yet sorted, sorting host matrix
[OGL LOG] sort_host_mtx_sparsity_pattern : 85 ms
[OGL LOG] sort_host_mtx : 52 ms
[OGL LOG] init_preconditioner : 0 ms
[OGL LOG] solve : 577 ms
nonecudaGKOBiCGStab:  Solving for p, Initial residual = 0.621595, Final residual = 8.08901e-07, No Iterations 468
linear solve p 5479937
time step continuity errors : sum local = 9.16426e-05, global = 7.87215e-20, cumulative = 7.87215e-20
[OGL LOG] init_preconditioner : 0 ms
[OGL LOG] solve : 595 ms
nonecudaGKOBiCGStab:  Solving for p, Initial residual = 0.396425, Final residual = 4.74671e-07, No Iterations 482
linear solve p 610277
time step continuity errors : sum local = 1.73115e-05, global = 3.93723e-22, cumulative = 7.91152e-20
ExecutionTime = 8.71 s  ClockTime = 9 s

Time = 0.00266667

Courant Number mean: 0.172835 max: 0.953369
DILUPBiCGStab:  Solving for Ux, Initial residual = 0.00633735, Final residual = 3.0273e-05, No Iterations 5
DILUPBiCGStab:  Solving for Uy, Initial residual = 0.0154247, Final residual = 7.69025e-05, No Iterations 5
DILUPBiCGStab:  Solving for Uz, Initial residual = 0.282186, Final residual = 0.00460765, No Iterations 5
linear solve U 412349
[OGL LOG] init_preconditioner : 0 ms
[OGL LOG] solve : 581 ms
nonecudaGKOBiCGStab:  Solving for p, Initial residual = 0.634097, Final residual = 8.07722e-07, No Iterations 469
linear solve p 595094
time step continuity errors : sum local = 2.15636e-05, global = 6.83307e-20, cumulative = 1.47446e-19
[OGL LOG] init_preconditioner : 0 ms
[OGL LOG] solve : 605 ms
nonecudaGKOBiCGStab:  Solving for p, Initial residual = 0.53355, Final residual = 6.03254e-07, No Iterations 493
linear solve p 618522
time step continuity errors : sum local = 0.000122887, global = 1.54086e-19, cumulative = 3.01532e-19
ExecutionTime = 10.59 s  ClockTime = 11 s

Time = 0.004

Courant Number mean: 0.174683 max: 0.961594
DILUPBiCGStab:  Solving for Ux, Initial residual = 0.00306164, Final residual = 2.0595e-05, No Iterations 5
DILUPBiCGStab:  Solving for Uy, Initial residual = 0.00976373, Final residual = 7.70492e-05, No Iterations 5
DILUPBiCGStab:  Solving for Uz, Initial residual = 0.415358, Final residual = 0.0063095, No Iterations 5
linear solve U 407172
[OGL LOG] init_preconditioner : 0 ms
[OGL LOG] solve : 569 ms
nonecudaGKOBiCGStab:  Solving for p, Initial residual = 0.744837, Final residual = 8.36008e-07, No Iterations 462
linear solve p 590655
time step continuity errors : sum local = 6.29073e-06, global = 9.43331e-23, cumulative = 3.01626e-19
[OGL LOG] init_preconditioner : 0 ms
[OGL LOG] solve : 570 ms
nonecudaGKOBiCGStab:  Solving for p, Initial residual = 0.635082, Final residual = 8.89302e-07, No Iterations 461
linear solve p 583536
time step continuity errors : sum local = 9.56649e-06, global = 5.49596e-21, cumulative = 3.07122e-19
ExecutionTime = 12.43 s  ClockTime = 12 s

Time = 0.00533333

Courant Number mean: 0.176243 max: 0.966071
DILUPBiCGStab:  Solving for Ux, Initial residual = 0.00316745, Final residual = 2.32188e-05, No Iterations 5
DILUPBiCGStab:  Solving for Uy, Initial residual = 0.0104049, Final residual = 8.63589e-05, No Iterations 5
DILUPBiCGStab:  Solving for Uz, Initial residual = 0.458098, Final residual = 0.00404653, No Iterations 5
linear solve U 406459
[OGL LOG] init_preconditioner : 0 ms
[OGL LOG] solve : 533 ms
nonecudaGKOBiCGStab:  Solving for p, Initial residual = 0.689896, Final residual = 2.65824e-07, No Iterations 433
linear solve p 546617
time step continuity errors : sum local = 3.70008e-05, global = 2.83948e-20, cumulative = 3.35517e-19
[OGL LOG] init_preconditioner : 0 ms
[OGL LOG] solve : 603 ms
nonecudaGKOBiCGStab:  Solving for p, Initial residual = 0.577272, Final residual = 8.04074e-07, No Iterations 485
linear solve p 617660
time step continuity errors : sum local = 8.17509e-06, global = 3.98219e-21, cumulative = 3.39499e-19
ExecutionTime = 14.25 s  ClockTime = 14 s

Time = 0.00666667

Courant Number mean: 0.177419 max: 0.961531
DILUPBiCGStab:  Solving for Ux, Initial residual = 0.00257036, Final residual = 1.79988e-05, No Iterations 5
DILUPBiCGStab:  Solving for Uy, Initial residual = 0.00837732, Final residual = 6.80101e-05, No Iterations 5
DILUPBiCGStab:  Solving for Uz, Initial residual = 0.436514, Final residual = 0.00372676, No Iterations 5
linear solve U 408574
[OGL LOG] init_preconditioner : 0 ms
[OGL LOG] solve : 529 ms
nonecudaGKOBiCGStab:  Solving for p, Initial residual = 0.670792, Final residual = 3.93872e-07, No Iterations 432
linear solve p 542706
time step continuity errors : sum local = 0.000142822, global = 4.72692e-19, cumulative = 8.12191e-19
[OGL LOG] init_preconditioner : 0 ms
[OGL LOG] solve : 568 ms
nonecudaGKOBiCGStab:  Solving for p, Initial residual = 0.665774, Final residual = 9.94542e-07, No Iterations 462
linear solve p 581930
time step continuity errors : sum local = 2.37324e-07, global = 6.25514e-21, cumulative = 8.18446e-19
ExecutionTime = 16.04 s  ClockTime = 16 s

Time = 0.008

Courant Number mean: 0.178648 max: 0.961617
DILUPBiCGStab:  Solving for Ux, Initial residual = 0.00235482, Final residual = 1.73272e-05, No Iterations 5
DILUPBiCGStab:  Solving for Uy, Initial residual = 0.00756369, Final residual = 6.22465e-05, No Iterations 5
DILUPBiCGStab:  Solving for Uz, Initial residual = 0.332911, Final residual = 0.00345576, No Iterations 5
linear solve U 408508
[OGL LOG] init_preconditioner : 0 ms
[OGL LOG] solve : 566 ms
nonecudaGKOBiCGStab:  Solving for p, Initial residual = 0.495237, Final residual = 9.26866e-07, No Iterations 456
linear solve p 581129
time step continuity errors : sum local = 1.9235e-06, global = -7.24004e-21, cumulative = 8.11206e-19
[OGL LOG] init_preconditioner : 0 ms
[OGL LOG] solve : 559 ms
nonecudaGKOBiCGStab:  Solving for p, Initial residual = 0.447677, Final residual = 2.8314e-07, No Iterations 440
linear solve p 572999
time step continuity errors : sum local = 6.53102e-05, global = -7.78334e-20, cumulative = 7.33373e-19
ExecutionTime = 17.85 s  ClockTime = 18 s

Time = 0.00933333

Courant Number mean: 0.179805 max: 0.960541
DILUPBiCGStab:  Solving for Ux, Initial residual = 0.00179248, Final residual = 7.94398e-06, No Iterations 5
DILUPBiCGStab:  Solving for Uy, Initial residual = 0.00580791, Final residual = 2.81427e-05, No Iterations 5
DILUPBiCGStab:  Solving for Uz, Initial residual = 0.311873, Final residual = 0.00308107, No Iterations 5
linear solve U 412488
[OGL LOG] init_preconditioner : 0 ms
[OGL LOG] solve : 597 ms
nonecudaGKOBiCGStab:  Solving for p, Initial residual = 0.561106, Final residual = 9.61895e-07, No Iterations 463
linear solve p 611419
time step continuity errors : sum local = 0.000135056, global = -2.04161e-19, cumulative = 5.29212e-19
[OGL LOG] init_preconditioner : 0 ms
[OGL LOG] solve : 581 ms
nonecudaGKOBiCGStab:  Solving for p, Initial residual = 0.496989, Final residual = 2.71901e-07, No Iterations 458
linear solve p 594646
time step continuity errors : sum local = 2.42241e-05, global = -1.38366e-20, cumulative = 5.15375e-19
ExecutionTime = 19.71 s  ClockTime = 20 s

Time = 0.0106667

Courant Number mean: 0.180727 max: 0.961462
DILUPBiCGStab:  Solving for Ux, Initial residual = 0.00164617, Final residual = 8.01093e-06, No Iterations 5
DILUPBiCGStab:  Solving for Uy, Initial residual = 0.0054044, Final residual = 4.91773e-05, No Iterations 5
DILUPBiCGStab:  Solving for Uz, Initial residual = 0.392594, Final residual = 0.00634348, No Iterations 5
linear solve U 414311
[OGL LOG] init_preconditioner : 0 ms
[OGL LOG] solve : 554 ms
nonecudaGKOBiCGStab:  Solving for p, Initial residual = 0.717414, Final residual = 7.05604e-07, No Iterations 429
linear solve p 568155
time step continuity errors : sum local = 0.000154578, global = 3.90087e-20, cumulative = 5.54384e-19
[OGL LOG] init_preconditioner : 0 ms
[OGL LOG] solve : 538 ms
nonecudaGKOBiCGStab:  Solving for p, Initial residual = 0.719681, Final residual = 8.98567e-07, No Iterations 421
linear solve p 551804
time step continuity errors : sum local = 1.59617e-07, global = 5.78558e-21, cumulative = 5.6017e-19
ExecutionTime = 21.51 s  ClockTime = 22 s

Time = 0.012

Courant Number mean: 0.181836 max: 0.967057
DILUPBiCGStab:  Solving for Ux, Initial residual = 0.0024639, Final residual = 1.91578e-05, No Iterations 5
DILUPBiCGStab:  Solving for Uy, Initial residual = 0.00792793, Final residual = 6.56297e-05, No Iterations 5
DILUPBiCGStab:  Solving for Uz, Initial residual = 0.320787, Final residual = 0.00266161, No Iterations 5
linear solve U 405894
[OGL LOG] init_preconditioner : 0 ms
[OGL LOG] solve : 580 ms
nonecudaGKOBiCGStab:  Solving for p, Initial residual = 0.427988, Final residual = 9.27134e-07, No Iterations 452
linear solve p 593796
time step continuity errors : sum local = 4.58488e-06, global = 2.56374e-20, cumulative = 5.85807e-19
[OGL LOG] init_preconditioner : 0 ms
[OGL LOG] solve : 563 ms
nonecudaGKOBiCGStab:  Solving for p, Initial residual = 0.406108, Final residual = 8.66916e-07, No Iterations 434
linear solve p 576238
time step continuity errors : sum local = 2.23278e-06, global = -3.095e-20, cumulative = 5.54857e-19
ExecutionTime = 23.32 s  ClockTime = 23 s

Time = 0.0133333

Courant Number mean: 0.182547 max: 0.959287
DILUPBiCGStab:  Solving for Ux, Initial residual = 0.00136392, Final residual = 6.70253e-06, No Iterations 5
DILUPBiCGStab:  Solving for Uy, Initial residual = 0.00429825, Final residual = 1.74844e-05, No Iterations 5
DILUPBiCGStab:  Solving for Uz, Initial residual = 0.17463, Final residual = 0.0015689, No Iterations 5
linear solve U 403938
[OGL LOG] init_preconditioner : 0 ms
[OGL LOG] solve : 565 ms
nonecudaGKOBiCGStab:  Solving for p, Initial residual = 0.248122, Final residual = 9.75862e-07, No Iterations 441
linear solve p 579358
time step continuity errors : sum local = 4.40091e-07, global = 1.10043e-20, cumulative = 5.65861e-19
[OGL LOG] init_preconditioner : 0 ms
[OGL LOG] solve : 571 ms
nonecudaGKOBiCGStab:  Solving for p, Initial residual = 0.22906, Final residual = 9.51487e-07, No Iterations 444
linear solve p 584621
time step continuity errors : sum local = 6.652e-07, global = -6.393e-21, cumulative = 5.59468e-19
ExecutionTime = 25.15 s  ClockTime = 25 s

End

