/*---------------------------------------------------------------------------*\
  =========                 |
  \\      /  F ield         | OpenFOAM: The Open Source CFD Toolbox
   \\    /   O peration     | Website:  https://openfoam.org
    \\  /    A nd           | Version:  8
     \\/     M anipulation  |
\*---------------------------------------------------------------------------*/
Build  : 8-ef60d22ea792
Exec   : icoFoam
Date   : Sep 15 2021
Time   : 14:31:41
Host   : "uc2n438.localdomain"
PID    : 3550866
I/O    : uncollated
Case   : /pfs/data5/home/kit/scc/nq7776/data/code/OBR/lidDrivenCavity3D/Variation_init/100/Variation_mesh/50/Variation_matrix_solver/CG_DIC_Serial/1631709097
nProcs : 1
sigFpe : Enabling floating point exception trapping (FOAM_SIGFPE).
fileModificationChecking : Monitoring run-time modified files using timeStampMaster (fileModificationSkew 10)
allowSystemOperations : Allowing user-supplied system call operations

// * * * * * * * * * * * * * * * * * * * * * * * * * * * * * * * * * * * * * //
Create time

Create mesh for time = 0

Reading transportProperties

Reading field p

Reading field U

Reading/calculating face flux field phi


Starting time loop

Time = 0.002

Courant Number mean: 0.171832 max: 0.950949
DILUPBiCGStab:  Solving for Ux, Initial residual = 0.170437, Final residual = 6.82397e-05, No Iterations 5
DILUPBiCGStab:  Solving for Uy, Initial residual = 0.34992, Final residual = 0.000142663, No Iterations 5
DILUPBiCGStab:  Solving for Uz, Initial residual = 0.557699, Final residual = 0.000189983, No Iterations 5
linear solve U 116757
DICPCG:  Solving for p, Initial residual = 0.678275, Final residual = 9.48622e-07, No Iterations 131
linear solve p 334468
time step continuity errors : sum local = 2.84973e-09, global = -1.49052e-20, cumulative = -1.49052e-20
DICPCG:  Solving for p, Initial residual = 0.41358, Final residual = 9.22404e-07, No Iterations 132
linear solve p 336521
time step continuity errors : sum local = 1.41839e-09, global = -1.53721e-20, cumulative = -3.02773e-20
ExecutionTime = 1.44 s  ClockTime = 1 s

Time = 0.004

Courant Number mean: 0.174856 max: 0.932415
DILUPBiCGStab:  Solving for Ux, Initial residual = 0.0115943, Final residual = 2.67525e-05, No Iterations 5
DILUPBiCGStab:  Solving for Uy, Initial residual = 0.0268869, Final residual = 4.92439e-05, No Iterations 5
DILUPBiCGStab:  Solving for Uz, Initial residual = 0.112848, Final residual = 0.000158134, No Iterations 5
linear solve U 105710
DICPCG:  Solving for p, Initial residual = 0.327334, Final residual = 9.05124e-07, No Iterations 133
linear solve p 339147
time step continuity errors : sum local = 1.29297e-09, global = 1.02952e-20, cumulative = -1.99821e-20
DICPCG:  Solving for p, Initial residual = 0.243053, Final residual = 9.37776e-07, No Iterations 132
linear solve p 337395
time step continuity errors : sum local = 1.27695e-09, global = 5.60434e-20, cumulative = 3.60613e-20
ExecutionTime = 2.28 s  ClockTime = 2 s

Time = 0.006

Courant Number mean: 0.176823 max: 0.934846
DILUPBiCGStab:  Solving for Ux, Initial residual = 0.00529475, Final residual = 9.85095e-06, No Iterations 5
DILUPBiCGStab:  Solving for Uy, Initial residual = 0.0102201, Final residual = 2.29784e-05, No Iterations 5
DILUPBiCGStab:  Solving for Uz, Initial residual = 0.0485259, Final residual = 7.74e-05, No Iterations 5
linear solve U 104746
DICPCG:  Solving for p, Initial residual = 0.174447, Final residual = 8.9272e-07, No Iterations 130
linear solve p 331355
time step continuity errors : sum local = 1.10217e-09, global = -2.79716e-20, cumulative = 8.08964e-21
DICPCG:  Solving for p, Initial residual = 0.133089, Final residual = 7.58768e-07, No Iterations 130
linear solve p 331669
time step continuity errors : sum local = 9.35918e-10, global = 2.20544e-20, cumulative = 3.01441e-20
ExecutionTime = 3.12 s  ClockTime = 3 s

Time = 0.008

Courant Number mean: 0.178238 max: 0.933359
DILUPBiCGStab:  Solving for Ux, Initial residual = 0.00289616, Final residual = 5.56969e-06, No Iterations 5
DILUPBiCGStab:  Solving for Uy, Initial residual = 0.00786368, Final residual = 1.00813e-05, No Iterations 5
DILUPBiCGStab:  Solving for Uz, Initial residual = 0.0260333, Final residual = 3.95465e-05, No Iterations 5
linear solve U 104082
DICPCG:  Solving for p, Initial residual = 0.105335, Final residual = 7.87212e-07, No Iterations 128
linear solve p 325859
time step continuity errors : sum local = 9.09889e-10, global = 8.64507e-20, cumulative = 1.16595e-19
DICPCG:  Solving for p, Initial residual = 0.0812479, Final residual = 9.20027e-07, No Iterations 127
linear solve p 323819
time step continuity errors : sum local = 1.0564e-09, global = 3.92658e-20, cumulative = 1.55861e-19
ExecutionTime = 3.94 s  ClockTime = 4 s

Time = 0.01

Courant Number mean: 0.179753 max: 0.9341
DILUPBiCGStab:  Solving for Ux, Initial residual = 0.0022718, Final residual = 4.01317e-06, No Iterations 5
DILUPBiCGStab:  Solving for Uy, Initial residual = 0.00526727, Final residual = 5.88609e-06, No Iterations 5
DILUPBiCGStab:  Solving for Uz, Initial residual = 0.0148996, Final residual = 2.07689e-05, No Iterations 5
linear solve U 106085
DICPCG:  Solving for p, Initial residual = 0.0676316, Final residual = 7.62538e-07, No Iterations 126
linear solve p 321352
time step continuity errors : sum local = 8.66463e-10, global = -2.71536e-20, cumulative = 1.28707e-19
DICPCG:  Solving for p, Initial residual = 0.0517259, Final residual = 8.69883e-07, No Iterations 125
linear solve p 318204
time step continuity errors : sum local = 9.90337e-10, global = -1.74059e-20, cumulative = 1.11301e-19
ExecutionTime = 4.75 s  ClockTime = 4 s

Time = 0.012

Courant Number mean: 0.181051 max: 0.934596
DILUPBiCGStab:  Solving for Ux, Initial residual = 0.00175527, Final residual = 1.90541e-06, No Iterations 5
DILUPBiCGStab:  Solving for Uy, Initial residual = 0.00453422, Final residual = 4.02075e-06, No Iterations 5
DILUPBiCGStab:  Solving for Uz, Initial residual = 0.0114992, Final residual = 1.25766e-05, No Iterations 5
linear solve U 104222
DICPCG:  Solving for p, Initial residual = 0.0446847, Final residual = 8.70405e-07, No Iterations 123
linear solve p 314650
time step continuity errors : sum local = 9.71983e-10, global = -6.03369e-21, cumulative = 1.05267e-19
DICPCG:  Solving for p, Initial residual = 0.0343797, Final residual = 7.71973e-07, No Iterations 123
linear solve p 313523
time step continuity errors : sum local = 8.60517e-10, global = -6.31394e-20, cumulative = 4.2128e-20
ExecutionTime = 5.55 s  ClockTime = 5 s

Time = 0.014

Courant Number mean: 0.182225 max: 0.93496
DILUPBiCGStab:  Solving for Ux, Initial residual = 0.00149064, Final residual = 9.88073e-07, No Iterations 5
DILUPBiCGStab:  Solving for Uy, Initial residual = 0.00373606, Final residual = 1.79952e-06, No Iterations 5
DILUPBiCGStab:  Solving for Uz, Initial residual = 0.00819203, Final residual = 8.40369e-06, No Iterations 5
linear solve U 105161
DICPCG:  Solving for p, Initial residual = 0.0303524, Final residual = 9.33583e-07, No Iterations 122
linear solve p 312692
time step continuity errors : sum local = 1.03756e-09, global = 3.94952e-20, cumulative = 8.16232e-20
DICPCG:  Solving for p, Initial residual = 0.0232707, Final residual = 7.89743e-07, No Iterations 122
linear solve p 310990
time step continuity errors : sum local = 8.78429e-10, global = -1.00444e-20, cumulative = 7.15787e-20
ExecutionTime = 6.34 s  ClockTime = 6 s

Time = 0.016

Courant Number mean: 0.183255 max: 0.935382
DILUPBiCGStab:  Solving for Ux, Initial residual = 0.00125115, Final residual = 4.13904e-07, No Iterations 5
DILUPBiCGStab:  Solving for Uy, Initial residual = 0.00326806, Final residual = 1.0105e-06, No Iterations 5
DILUPBiCGStab:  Solving for Uz, Initial residual = 0.00685267, Final residual = 6.24845e-06, No Iterations 5
linear solve U 104992
DICPCG:  Solving for p, Initial residual = 0.0207052, Final residual = 8.29875e-07, No Iterations 118
linear solve p 300812
time step continuity errors : sum local = 9.17443e-10, global = 1.94931e-21, cumulative = 7.3528e-20
DICPCG:  Solving for p, Initial residual = 0.0160368, Final residual = 9.54716e-07, No Iterations 117
linear solve p 300029
time step continuity errors : sum local = 1.0549e-09, global = -2.70732e-20, cumulative = 4.64548e-20
ExecutionTime = 7.11 s  ClockTime = 7 s

Time = 0.018

Courant Number mean: 0.184168 max: 0.935681
DILUPBiCGStab:  Solving for Ux, Initial residual = 0.00108073, Final residual = 3.2849e-07, No Iterations 5
DILUPBiCGStab:  Solving for Uy, Initial residual = 0.0028118, Final residual = 1.01217e-06, No Iterations 5
DILUPBiCGStab:  Solving for Uz, Initial residual = 0.00553879, Final residual = 4.59174e-06, No Iterations 5
linear solve U 106860
DICPCG:  Solving for p, Initial residual = 0.0144643, Final residual = 9.71952e-07, No Iterations 111
linear solve p 284129
time step continuity errors : sum local = 1.07271e-09, global = -5.23421e-20, cumulative = -5.8873e-21
DICPCG:  Solving for p, Initial residual = 0.0112134, Final residual = 8.91758e-07, No Iterations 111
linear solve p 282925
time step continuity errors : sum local = 9.84613e-10, global = 1.15282e-20, cumulative = 5.6409e-21
ExecutionTime = 7.84 s  ClockTime = 8 s

Time = 0.02

Courant Number mean: 0.184973 max: 0.935987
DILUPBiCGStab:  Solving for Ux, Initial residual = 0.000928461, Final residual = 1.85255e-07, No Iterations 5
DILUPBiCGStab:  Solving for Uy, Initial residual = 0.00248398, Final residual = 5.62575e-07, No Iterations 5
DILUPBiCGStab:  Solving for Uz, Initial residual = 0.00473463, Final residual = 3.34439e-06, No Iterations 5
linear solve U 105118
DICPCG:  Solving for p, Initial residual = 0.0101797, Final residual = 9.3622e-07, No Iterations 114
linear solve p 293127
time step continuity errors : sum local = 1.03186e-09, global = 2.16037e-20, cumulative = 2.72446e-20
DICPCG:  Solving for p, Initial residual = 0.00803573, Final residual = 8.86162e-07, No Iterations 114
linear solve p 291444
time step continuity errors : sum local = 9.76586e-10, global = -7.7235e-20, cumulative = -4.99904e-20
ExecutionTime = 8.59 s  ClockTime = 8 s

End

