/*---------------------------------------------------------------------------*\
  =========                 |
  \\      /  F ield         | OpenFOAM: The Open Source CFD Toolbox
   \\    /   O peration     | Website:  https://openfoam.org
    \\  /    A nd           | Version:  8
     \\/     M anipulation  |
\*---------------------------------------------------------------------------*/
Build  : 8-ef60d22ea792
Exec   : icoFoam
Date   : Sep 15 2021
Time   : 13:39:13
Host   : "uc2n482.localdomain"
PID    : 3635256
I/O    : uncollated
Case   : /pfs/data5/home/kit/scc/nq7776/data/code/OBR/lidDrivenCavity3D/Variation_init/100/Variation_mesh/65/Variation_matrix_solver/BiCGStab_ILU_CUDA/1631705939
nProcs : 1
sigFpe : Enabling floating point exception trapping (FOAM_SIGFPE).
fileModificationChecking : Monitoring run-time modified files using timeStampMaster (fileModificationSkew 10)
allowSystemOperations : Allowing user-supplied system call operations

// * * * * * * * * * * * * * * * * * * * * * * * * * * * * * * * * * * * * * //
Create time

Create mesh for time = 0

Reading transportProperties

Reading field p

Reading field U

Reading/calculating face flux field phi


Starting time loop

Time = 0.00153846

Courant Number mean: 0.17093 max: 0.953778
DILUPBiCGStab:  Solving for Ux, Initial residual = 0.112594, Final residual = 8.25037e-05, No Iterations 5
DILUPBiCGStab:  Solving for Uy, Initial residual = 0.214167, Final residual = 0.00019351, No Iterations 5
DILUPBiCGStab:  Solving for Uz, Initial residual = 0.265767, Final residual = 0.000360103, No Iterations 5
linear solve U 276275
[OGL LOG] init_host_sparsity_pattern : 76 ms
[OGL LOG] matrix not stored update host matrix
[OGL LOG] update_host_mtx : 43 ms
[OGL LOG] matrix is not yet sorted, compute sorting idxs
[OGL LOG] compute_sort : 2477 ms
[OGL LOG] matrix is not yet sorted, sorting host matrix
[OGL LOG] sort_host_mtx_sparsity_pattern : 55 ms
[OGL LOG] sort_host_mtx : 30 ms
[OGL LOG] init_preconditioner : 95 ms
[OGL LOG] solve : 584 ms
ILUcudaGKOBiCGStab:  Solving for p, Initial residual = 0.554571, Final residual = 9.97555e-07, No Iterations 115
linear solve p 4134442
time step continuity errors : sum local = 6.34741e-06, global = 2.21641e-21, cumulative = 2.21641e-21
[OGL LOG] init_preconditioner : 0 ms
[OGL LOG] solve : 664 ms
ILUcudaGKOBiCGStab:  Solving for p, Initial residual = 0.333007, Final residual = 4.15082e-07, No Iterations 132
linear solve p 673059
time step continuity errors : sum local = 3.74379e-10, global = 5.97138e-22, cumulative = 2.81355e-21
ExecutionTime = 6.55 s  ClockTime = 7 s

Time = 0.00307692

Courant Number mean: 0.173153 max: 0.946977
DILUPBiCGStab:  Solving for Ux, Initial residual = 0.00646101, Final residual = 2.91047e-05, No Iterations 5
DILUPBiCGStab:  Solving for Uy, Initial residual = 0.0152965, Final residual = 6.58429e-05, No Iterations 5
DILUPBiCGStab:  Solving for Uz, Initial residual = 0.0533061, Final residual = 0.000355638, No Iterations 5
linear solve U 256039
[OGL LOG] init_preconditioner : 0 ms
[OGL LOG] solve : 649 ms
ILUcudaGKOBiCGStab:  Solving for p, Initial residual = 0.271664, Final residual = 8.57403e-07, No Iterations 129
linear solve p 658474
time step continuity errors : sum local = 2.58519e-07, global = -2.90488e-20, cumulative = -2.62352e-20
[OGL LOG] init_preconditioner : 0 ms
[OGL LOG] solve : 631 ms
ILUcudaGKOBiCGStab:  Solving for p, Initial residual = 0.221984, Final residual = 5.0488e-07, No Iterations 125
linear solve p 640458
time step continuity errors : sum local = 1.50027e-05, global = -3.81613e-20, cumulative = -6.43965e-20
ExecutionTime = 8.27 s  ClockTime = 8 s

Time = 0.00461538

Courant Number mean: 0.174971 max: 0.94808
DILUPBiCGStab:  Solving for Ux, Initial residual = 0.00331294, Final residual = 1.28504e-05, No Iterations 5
DILUPBiCGStab:  Solving for Uy, Initial residual = 0.00812387, Final residual = 2.91145e-05, No Iterations 5
DILUPBiCGStab:  Solving for Uz, Initial residual = 0.0531672, Final residual = 0.000447207, No Iterations 5
linear solve U 251702
[OGL LOG] init_preconditioner : 0 ms
[OGL LOG] solve : 619 ms
ILUcudaGKOBiCGStab:  Solving for p, Initial residual = 0.225226, Final residual = 9.91721e-07, No Iterations 122
linear solve p 628071
time step continuity errors : sum local = 2.87774e-06, global = -2.36403e-20, cumulative = -8.80367e-20
[OGL LOG] init_preconditioner : 0 ms
[OGL LOG] solve : 633 ms
ILUcudaGKOBiCGStab:  Solving for p, Initial residual = 0.175545, Final residual = 3.25494e-07, No Iterations 125
linear solve p 642257
time step continuity errors : sum local = 2.92654e-06, global = 1.35297e-20, cumulative = -7.4507e-20
ExecutionTime = 9.96 s  ClockTime = 10 s

Time = 0.00615385

Courant Number mean: 0.176524 max: 0.948584
DILUPBiCGStab:  Solving for Ux, Initial residual = 0.0023105, Final residual = 8.50706e-06, No Iterations 5
DILUPBiCGStab:  Solving for Uy, Initial residual = 0.00676961, Final residual = 1.86685e-05, No Iterations 5
DILUPBiCGStab:  Solving for Uz, Initial residual = 0.0582023, Final residual = 0.000433115, No Iterations 5
linear solve U 252964
[OGL LOG] init_preconditioner : 0 ms
[OGL LOG] solve : 603 ms
ILUcudaGKOBiCGStab:  Solving for p, Initial residual = 0.180182, Final residual = 9.59494e-07, No Iterations 119
linear solve p 612503
time step continuity errors : sum local = 6.45568e-07, global = 3.7832e-21, cumulative = -7.07238e-20
[OGL LOG] init_preconditioner : 0 ms
[OGL LOG] solve : 627 ms
ILUcudaGKOBiCGStab:  Solving for p, Initial residual = 0.14728, Final residual = 6.18897e-07, No Iterations 124
linear solve p 636120
time step continuity errors : sum local = 1.54362e-06, global = -1.19213e-20, cumulative = -8.26452e-20
ExecutionTime = 11.62 s  ClockTime = 12 s

Time = 0.00769231

Courant Number mean: 0.177972 max: 0.948697
DILUPBiCGStab:  Solving for Ux, Initial residual = 0.001963, Final residual = 6.62295e-06, No Iterations 5
DILUPBiCGStab:  Solving for Uy, Initial residual = 0.00530277, Final residual = 1.3781e-05, No Iterations 5
DILUPBiCGStab:  Solving for Uz, Initial residual = 0.0501763, Final residual = 0.000288917, No Iterations 5
linear solve U 254922
[OGL LOG] init_preconditioner : 0 ms
[OGL LOG] solve : 621 ms
ILUcudaGKOBiCGStab:  Solving for p, Initial residual = 0.137764, Final residual = 6.0423e-07, No Iterations 123
linear solve p 630066
time step continuity errors : sum local = 8.00794e-07, global = 8.58823e-20, cumulative = 3.23708e-21
[OGL LOG] init_preconditioner : 0 ms
[OGL LOG] solve : 597 ms
ILUcudaGKOBiCGStab:  Solving for p, Initial residual = 0.111541, Final residual = 8.85771e-07, No Iterations 118
linear solve p 606971
time step continuity errors : sum local = 2.46998e-07, global = 4.72719e-20, cumulative = 5.05089e-20
ExecutionTime = 13.28 s  ClockTime = 14 s

Time = 0.00923077

Courant Number mean: 0.179262 max: 0.949208
DILUPBiCGStab:  Solving for Ux, Initial residual = 0.00161409, Final residual = 5.28517e-06, No Iterations 5
DILUPBiCGStab:  Solving for Uy, Initial residual = 0.0046087, Final residual = 9.33591e-06, No Iterations 5
DILUPBiCGStab:  Solving for Uz, Initial residual = 0.0398039, Final residual = 0.000191549, No Iterations 5
linear solve U 255862
[OGL LOG] init_preconditioner : 0 ms
[OGL LOG] solve : 658 ms
ILUcudaGKOBiCGStab:  Solving for p, Initial residual = 0.106212, Final residual = 9.86546e-07, No Iterations 130
linear solve p 667083
time step continuity errors : sum local = 4.17124e-07, global = 2.13932e-20, cumulative = 7.19022e-20
[OGL LOG] init_preconditioner : 0 ms
[OGL LOG] solve : 609 ms
ILUcudaGKOBiCGStab:  Solving for p, Initial residual = 0.0869982, Final residual = 8.65861e-07, No Iterations 121
linear solve p 618149
time step continuity errors : sum local = 2.4667e-07, global = 5.49952e-21, cumulative = 7.74017e-20
ExecutionTime = 14.99 s  ClockTime = 15 s

Time = 0.0107692

Courant Number mean: 0.180428 max: 0.949213
DILUPBiCGStab:  Solving for Ux, Initial residual = 0.00141638, Final residual = 4.27525e-06, No Iterations 5
DILUPBiCGStab:  Solving for Uy, Initial residual = 0.00395032, Final residual = 6.32292e-06, No Iterations 5
DILUPBiCGStab:  Solving for Uz, Initial residual = 0.0304391, Final residual = 0.000127335, No Iterations 5
linear solve U 251317
[OGL LOG] init_preconditioner : 0 ms
[OGL LOG] solve : 346 ms
ILUcudaGKOBiCGStab:  Solving for p, Initial residual = 0.0812781, Final residual = 8.03184e-07, No Iterations 68
linear solve p 355278
time step continuity errors : sum local = 2.51593e-07, global = -1.38363e-20, cumulative = 6.35654e-20
[OGL LOG] init_preconditioner : 0 ms
[OGL LOG] solve : 299 ms
ILUcudaGKOBiCGStab:  Solving for p, Initial residual = 0.0663589, Final residual = 9.80271e-07, No Iterations 59
linear solve p 308477
time step continuity errors : sum local = 2.4672e-07, global = -1.21367e-20, cumulative = 5.14287e-20
ExecutionTime = 16.06 s  ClockTime = 16 s

Time = 0.0123077

Courant Number mean: 0.181475 max: 0.949705
DILUPBiCGStab:  Solving for Ux, Initial residual = 0.00122344, Final residual = 3.19613e-06, No Iterations 5
DILUPBiCGStab:  Solving for Uy, Initial residual = 0.0034926, Final residual = 4.62849e-06, No Iterations 5
DILUPBiCGStab:  Solving for Uz, Initial residual = 0.0236691, Final residual = 8.0953e-05, No Iterations 5
linear solve U 255902
[OGL LOG] init_preconditioner : 0 ms
[OGL LOG] solve : 604 ms
ILUcudaGKOBiCGStab:  Solving for p, Initial residual = 0.0624552, Final residual = 8.2721e-07, No Iterations 119
linear solve p 613308
time step continuity errors : sum local = 9.68975e-07, global = 2.3746e-21, cumulative = 5.38033e-20
[OGL LOG] init_preconditioner : 0 ms
[OGL LOG] solve : 586 ms
ILUcudaGKOBiCGStab:  Solving for p, Initial residual = 0.0499325, Final residual = 8.94948e-07, No Iterations 117
linear solve p 594605
time step continuity errors : sum local = 2.85102e-07, global = 3.53694e-20, cumulative = 8.91727e-20
ExecutionTime = 17.7 s  ClockTime = 18 s

Time = 0.0138462

Courant Number mean: 0.182417 max: 0.949835
DILUPBiCGStab:  Solving for Ux, Initial residual = 0.00108794, Final residual = 2.4227e-06, No Iterations 5
DILUPBiCGStab:  Solving for Uy, Initial residual = 0.00307537, Final residual = 3.44927e-06, No Iterations 5
DILUPBiCGStab:  Solving for Uz, Initial residual = 0.0195305, Final residual = 6.13082e-05, No Iterations 5
linear solve U 254615
[OGL LOG] init_preconditioner : 0 ms
[OGL LOG] solve : 307 ms
ILUcudaGKOBiCGStab:  Solving for p, Initial residual = 0.0513381, Final residual = 9.95171e-07, No Iterations 61
linear solve p 316524
time step continuity errors : sum local = 2.86074e-07, global = 7.92721e-21, cumulative = 9.70999e-20
[OGL LOG] init_preconditioner : 0 ms
[OGL LOG] solve : 271 ms
ILUcudaGKOBiCGStab:  Solving for p, Initial residual = 0.0417472, Final residual = 9.91522e-07, No Iterations 53
linear solve p 279966
time step continuity errors : sum local = 2.46685e-07, global = -3.62583e-21, cumulative = 9.34741e-20
ExecutionTime = 18.73 s  ClockTime = 19 s

Time = 0.0153846

Courant Number mean: 0.183267 max: 0.950205
DILUPBiCGStab:  Solving for Ux, Initial residual = 0.000962378, Final residual = 1.70624e-06, No Iterations 5
DILUPBiCGStab:  Solving for Uy, Initial residual = 0.0027562, Final residual = 2.48042e-06, No Iterations 5
DILUPBiCGStab:  Solving for Uz, Initial residual = 0.01596, Final residual = 4.59761e-05, No Iterations 5
linear solve U 254506
[OGL LOG] init_preconditioner : 0 ms
[OGL LOG] solve : 582 ms
ILUcudaGKOBiCGStab:  Solving for p, Initial residual = 0.0400004, Final residual = 6.00316e-07, No Iterations 115
linear solve p 590950
time step continuity errors : sum local = 5.12451e-07, global = 4.65329e-20, cumulative = 1.40007e-19
[OGL LOG] init_preconditioner : 0 ms
[OGL LOG] solve : 583 ms
ILUcudaGKOBiCGStab:  Solving for p, Initial residual = 0.0322431, Final residual = 9.23878e-07, No Iterations 115
linear solve p 593095
time step continuity errors : sum local = 2.4667e-07, global = 1.48917e-20, cumulative = 1.54899e-19
ExecutionTime = 20.34 s  ClockTime = 21 s

End

