/*---------------------------------------------------------------------------*\
  =========                 |
  \\      /  F ield         | OpenFOAM: The Open Source CFD Toolbox
   \\    /   O peration     | Website:  https://openfoam.org
    \\  /    A nd           | Version:  8
     \\/     M anipulation  |
\*---------------------------------------------------------------------------*/
Build  : 8-ef60d22ea792
Exec   : icoFoam
Date   : Sep 15 2021
Time   : 14:03:38
Host   : "uc2n482.localdomain"
PID    : 3640293
I/O    : uncollated
Case   : /pfs/data5/home/kit/scc/nq7776/data/code/OBR/lidDrivenCavity3D/Variation_init/100/Variation_mesh/30/Variation_matrix_solver/BiCGStab_BJ_CUDA/1631707416
nProcs : 1
sigFpe : Enabling floating point exception trapping (FOAM_SIGFPE).
fileModificationChecking : Monitoring run-time modified files using timeStampMaster (fileModificationSkew 10)
allowSystemOperations : Allowing user-supplied system call operations

// * * * * * * * * * * * * * * * * * * * * * * * * * * * * * * * * * * * * * //
Create time

Create mesh for time = 0

Reading transportProperties

Reading field p

Reading field U

Reading/calculating face flux field phi


Starting time loop

Time = 0.00333333

Courant Number mean: 0.169907 max: 0.893517
DILUPBiCGStab:  Solving for Ux, Initial residual = 0.0911511, Final residual = 3.95829e-06, No Iterations 5
DILUPBiCGStab:  Solving for Uy, Initial residual = 0.158672, Final residual = 5.65407e-06, No Iterations 5
DILUPBiCGStab:  Solving for Uz, Initial residual = 0.266117, Final residual = 9.88141e-06, No Iterations 5
linear solve U 20026
[OGL LOG] init_host_sparsity_pattern : 7 ms
[OGL LOG] matrix not stored update host matrix
[OGL LOG] update_host_mtx : 3 ms
[OGL LOG] matrix is not yet sorted, compute sorting idxs
[OGL LOG] compute_sort : 202 ms
[OGL LOG] matrix is not yet sorted, sorting host matrix
[OGL LOG] sort_host_mtx_sparsity_pattern : 4 ms
[OGL LOG] sort_host_mtx : 2 ms
[OGL LOG] init_preconditioner : 3 ms
[OGL LOG] solve : 43 ms
BJcudaGKOBiCGStab:  Solving for p, Initial residual = 0.542954, Final residual = 7.09206e-07, No Iterations 156
linear solve p 1035400
time step continuity errors : sum local = 6.62236e-09, global = -1.17141e-19, cumulative = -1.17141e-19
[OGL LOG] init_preconditioner : 0 ms
[OGL LOG] solve : 41 ms
BJcudaGKOBiCGStab:  Solving for p, Initial residual = 0.318922, Final residual = 6.23219e-07, No Iterations 148
linear solve p 41875
time step continuity errors : sum local = 3.35775e-09, global = 3.09705e-20, cumulative = -8.61705e-20
ExecutionTime = 1.24 s  ClockTime = 2 s

Time = 0.00666667

Courant Number mean: 0.173776 max: 0.888266
DILUPBiCGStab:  Solving for Ux, Initial residual = 0.0119476, Final residual = 2.97118e-06, No Iterations 5
DILUPBiCGStab:  Solving for Uy, Initial residual = 0.0223275, Final residual = 3.40085e-06, No Iterations 5
DILUPBiCGStab:  Solving for Uz, Initial residual = 0.059685, Final residual = 5.28789e-06, No Iterations 5
linear solve U 18619
[OGL LOG] init_preconditioner : 0 ms
[OGL LOG] solve : 43 ms
BJcudaGKOBiCGStab:  Solving for p, Initial residual = 0.156729, Final residual = 9.04248e-07, No Iterations 147
linear solve p 44870
time step continuity errors : sum local = 9.93831e-07, global = -1.20169e-20, cumulative = -9.81874e-20
[OGL LOG] init_preconditioner : 0 ms
[OGL LOG] solve : 41 ms
BJcudaGKOBiCGStab:  Solving for p, Initial residual = 0.0960205, Final residual = 6.14599e-07, No Iterations 150
linear solve p 42276
time step continuity errors : sum local = 8.88347e-07, global = -8.66179e-21, cumulative = -1.06849e-19
ExecutionTime = 1.36 s  ClockTime = 2 s

Time = 0.01

Courant Number mean: 0.176716 max: 0.888542
DILUPBiCGStab:  Solving for Ux, Initial residual = 0.00409309, Final residual = 6.70406e-07, No Iterations 5
DILUPBiCGStab:  Solving for Uy, Initial residual = 0.00964151, Final residual = 1.18552e-06, No Iterations 5
DILUPBiCGStab:  Solving for Uz, Initial residual = 0.0232628, Final residual = 3.07038e-06, No Iterations 5
linear solve U 18455
[OGL LOG] init_preconditioner : 0 ms
[OGL LOG] solve : 39 ms
BJcudaGKOBiCGStab:  Solving for p, Initial residual = 0.0542675, Final residual = 4.90323e-07, No Iterations 141
linear solve p 40178
time step continuity errors : sum local = 8.68098e-07, global = 4.7073e-20, cumulative = -5.97762e-20
[OGL LOG] init_preconditioner : 0 ms
[OGL LOG] solve : 38 ms
BJcudaGKOBiCGStab:  Solving for p, Initial residual = 0.0362391, Final residual = 3.73105e-07, No Iterations 141
linear solve p 39703
time step continuity errors : sum local = 8.80657e-07, global = -9.35445e-20, cumulative = -1.53321e-19
ExecutionTime = 1.47 s  ClockTime = 2 s

Time = 0.0133333

Courant Number mean: 0.179156 max: 0.890256
DILUPBiCGStab:  Solving for Ux, Initial residual = 0.00297508, Final residual = 3.25947e-07, No Iterations 5
DILUPBiCGStab:  Solving for Uy, Initial residual = 0.0070385, Final residual = 6.19439e-07, No Iterations 5
DILUPBiCGStab:  Solving for Uz, Initial residual = 0.0128655, Final residual = 1.20445e-06, No Iterations 5
linear solve U 18642
[OGL LOG] init_preconditioner : 0 ms
[OGL LOG] solve : 34 ms
BJcudaGKOBiCGStab:  Solving for p, Initial residual = 0.0253473, Final residual = 6.61357e-07, No Iterations 127
linear solve p 35442
time step continuity errors : sum local = 8.84576e-07, global = 1.02545e-19, cumulative = -5.0776e-20
[OGL LOG] init_preconditioner : 0 ms
[OGL LOG] solve : 34 ms
BJcudaGKOBiCGStab:  Solving for p, Initial residual = 0.0181727, Final residual = 7.07162e-07, No Iterations 130
linear solve p 35626
time step continuity errors : sum local = 8.8276e-07, global = 1.48455e-20, cumulative = -3.59305e-20
ExecutionTime = 1.58 s  ClockTime = 2 s

Time = 0.0166667

Courant Number mean: 0.181129 max: 0.891457
DILUPBiCGStab:  Solving for Ux, Initial residual = 0.00228123, Final residual = 2.37428e-07, No Iterations 5
DILUPBiCGStab:  Solving for Uy, Initial residual = 0.00534264, Final residual = 4.69156e-07, No Iterations 5
DILUPBiCGStab:  Solving for Uz, Initial residual = 0.00928741, Final residual = 5.63834e-07, No Iterations 5
linear solve U 18315
[OGL LOG] init_preconditioner : 0 ms
[OGL LOG] solve : 37 ms
BJcudaGKOBiCGStab:  Solving for p, Initial residual = 0.0142934, Final residual = 3.06787e-07, No Iterations 141
linear solve p 38527
time step continuity errors : sum local = 8.8043e-07, global = -1.14341e-19, cumulative = -1.50271e-19
[OGL LOG] init_preconditioner : 0 ms
[OGL LOG] solve : 34 ms
BJcudaGKOBiCGStab:  Solving for p, Initial residual = 0.0104799, Final residual = 6.785e-07, No Iterations 128
linear solve p 35239
time step continuity errors : sum local = 8.8181e-07, global = -6.10059e-20, cumulative = -2.11277e-19
ExecutionTime = 1.68 s  ClockTime = 2 s

Time = 0.02

Courant Number mean: 0.182723 max: 0.892519
DILUPBiCGStab:  Solving for Ux, Initial residual = 0.00179238, Final residual = 1.43032e-07, No Iterations 5
DILUPBiCGStab:  Solving for Uy, Initial residual = 0.00435049, Final residual = 3.47462e-07, No Iterations 5
DILUPBiCGStab:  Solving for Uz, Initial residual = 0.00735966, Final residual = 4.42122e-07, No Iterations 5
linear solve U 17687
[OGL LOG] init_preconditioner : 0 ms
[OGL LOG] solve : 36 ms
BJcudaGKOBiCGStab:  Solving for p, Initial residual = 0.00820883, Final residual = 6.89787e-07, No Iterations 123
linear solve p 36841
time step continuity errors : sum local = 8.82997e-07, global = 1.01581e-19, cumulative = -1.09696e-19
[OGL LOG] init_preconditioner : 0 ms
[OGL LOG] solve : 33 ms
BJcudaGKOBiCGStab:  Solving for p, Initial residual = 0.00653704, Final residual = 8.7773e-07, No Iterations 121
linear solve p 33984
time step continuity errors : sum local = 8.83241e-07, global = 5.33668e-20, cumulative = -5.63297e-20
ExecutionTime = 1.78 s  ClockTime = 2 s

Time = 0.0233333

Courant Number mean: 0.184011 max: 0.893289
DILUPBiCGStab:  Solving for Ux, Initial residual = 0.00143637, Final residual = 1.09351e-07, No Iterations 5
DILUPBiCGStab:  Solving for Uy, Initial residual = 0.00348154, Final residual = 2.42485e-07, No Iterations 5
DILUPBiCGStab:  Solving for Uz, Initial residual = 0.00575779, Final residual = 2.66772e-07, No Iterations 5
linear solve U 17938
[OGL LOG] init_preconditioner : 0 ms
[OGL LOG] solve : 34 ms
BJcudaGKOBiCGStab:  Solving for p, Initial residual = 0.00545471, Final residual = 9.9889e-07, No Iterations 128
linear solve p 34984
time step continuity errors : sum local = 8.82204e-07, global = 1.27222e-19, cumulative = 7.08921e-20
[OGL LOG] init_preconditioner : 0 ms
[OGL LOG] solve : 35 ms
BJcudaGKOBiCGStab:  Solving for p, Initial residual = 0.0044262, Final residual = 8.7091e-07, No Iterations 132
linear solve p 36410
time step continuity errors : sum local = 8.82184e-07, global = 1.62895e-19, cumulative = 2.33788e-19
ExecutionTime = 1.88 s  ClockTime = 2 s

Time = 0.0266667

Courant Number mean: 0.185057 max: 0.893926
DILUPBiCGStab:  Solving for Ux, Initial residual = 0.00115893, Final residual = 5.52707e-08, No Iterations 5
DILUPBiCGStab:  Solving for Uy, Initial residual = 0.00285512, Final residual = 1.86825e-07, No Iterations 5
DILUPBiCGStab:  Solving for Uz, Initial residual = 0.00466861, Final residual = 2.33912e-07, No Iterations 5
linear solve U 17691
[OGL LOG] init_preconditioner : 0 ms
[OGL LOG] solve : 33 ms
BJcudaGKOBiCGStab:  Solving for p, Initial residual = 0.00385377, Final residual = 9.12574e-07, No Iterations 123
linear solve p 34155
time step continuity errors : sum local = 8.82514e-07, global = -7.84264e-20, cumulative = 1.55361e-19
[OGL LOG] init_preconditioner : 0 ms
[OGL LOG] solve : 33 ms
BJcudaGKOBiCGStab:  Solving for p, Initial residual = 0.00327234, Final residual = 8.38097e-07, No Iterations 123
linear solve p 34723
time step continuity errors : sum local = 8.82585e-07, global = -1.45842e-20, cumulative = 1.40777e-19
ExecutionTime = 1.98 s  ClockTime = 2 s

Time = 0.03

Courant Number mean: 0.185908 max: 0.894414
DILUPBiCGStab:  Solving for Ux, Initial residual = 0.000942257, Final residual = 5.10485e-08, No Iterations 5
DILUPBiCGStab:  Solving for Uy, Initial residual = 0.00232568, Final residual = 1.37671e-07, No Iterations 5
DILUPBiCGStab:  Solving for Uz, Initial residual = 0.00370848, Final residual = 1.75014e-07, No Iterations 5
linear solve U 17608
[OGL LOG] init_preconditioner : 0 ms
[OGL LOG] solve : 35 ms
BJcudaGKOBiCGStab:  Solving for p, Initial residual = 0.00291563, Final residual = 7.8682e-07, No Iterations 132
linear solve p 36224
time step continuity errors : sum local = 8.81859e-07, global = 7.74686e-20, cumulative = 2.18246e-19
[OGL LOG] init_preconditioner : 0 ms
[OGL LOG] solve : 31 ms
BJcudaGKOBiCGStab:  Solving for p, Initial residual = 0.00251392, Final residual = 8.89766e-07, No Iterations 115
linear solve p 32284
time step continuity errors : sum local = 8.82383e-07, global = 1.06485e-19, cumulative = 3.24731e-19
ExecutionTime = 2.08 s  ClockTime = 3 s

Time = 0.0333333

Courant Number mean: 0.186602 max: 0.894809
DILUPBiCGStab:  Solving for Ux, Initial residual = 0.000767471, Final residual = 2.98341e-08, No Iterations 5
DILUPBiCGStab:  Solving for Uy, Initial residual = 0.00191432, Final residual = 1.25587e-07, No Iterations 5
DILUPBiCGStab:  Solving for Uz, Initial residual = 0.00300098, Final residual = 1.47544e-07, No Iterations 5
linear solve U 17605
[OGL LOG] init_preconditioner : 0 ms
[OGL LOG] solve : 28 ms
BJcudaGKOBiCGStab:  Solving for p, Initial residual = 0.00225247, Final residual = 9.13824e-07, No Iterations 105
linear solve p 29828
time step continuity errors : sum local = 8.83277e-07, global = 6.27392e-20, cumulative = 3.8747e-19
[OGL LOG] init_preconditioner : 0 ms
[OGL LOG] solve : 31 ms
BJcudaGKOBiCGStab:  Solving for p, Initial residual = 0.00197635, Final residual = 9.77157e-07, No Iterations 114
linear solve p 31946
time step continuity errors : sum local = 8.82599e-07, global = -1.26574e-20, cumulative = 3.74813e-19
ExecutionTime = 2.17 s  ClockTime = 3 s

End

