/*---------------------------------------------------------------------------*\
  =========                 |
  \\      /  F ield         | OpenFOAM: The Open Source CFD Toolbox
   \\    /   O peration     | Website:  https://openfoam.org
    \\  /    A nd           | Version:  8
     \\/     M anipulation  |
\*---------------------------------------------------------------------------*/
Build  : 8-ef60d22ea792
Exec   : icoFoam
Date   : Sep 15 2021
Time   : 13:29:12
Host   : "uc2n438.localdomain"
PID    : 3542746
I/O    : uncollated
Case   : /pfs/data5/home/kit/scc/nq7776/data/code/OBR/lidDrivenCavity3D/Variation_init/100/Variation_mesh/65/Variation_matrix_solver/BiCGStab_NoPrecond_Serial/1631705335
nProcs : 1
sigFpe : Enabling floating point exception trapping (FOAM_SIGFPE).
fileModificationChecking : Monitoring run-time modified files using timeStampMaster (fileModificationSkew 10)
allowSystemOperations : Allowing user-supplied system call operations

// * * * * * * * * * * * * * * * * * * * * * * * * * * * * * * * * * * * * * //
Create time

Create mesh for time = 0

Reading transportProperties

Reading field p

Reading field U

Reading/calculating face flux field phi


Starting time loop

Time = 0.00153846

Courant Number mean: 0.17093 max: 0.953778
DILUPBiCGStab:  Solving for Ux, Initial residual = 0.112594, Final residual = 8.25037e-05, No Iterations 5
DILUPBiCGStab:  Solving for Uy, Initial residual = 0.214167, Final residual = 0.00019351, No Iterations 5
DILUPBiCGStab:  Solving for Uz, Initial residual = 0.265767, Final residual = 0.000360103, No Iterations 5
linear solve U 271450
nonePBiCGStab:  Solving for p, Initial residual = 0.554571, Final residual = 9.79701e-07, No Iterations 425
linear solve p 3160751
time step continuity errors : sum local = 2.01007e-09, global = 3.19329e-20, cumulative = 3.19329e-20
nonePBiCGStab:  Solving for p, Initial residual = 0.328964, Final residual = 9.45435e-07, No Iterations 465
linear solve p 3299846
time step continuity errors : sum local = 1.03801e-09, global = 6.67938e-21, cumulative = 3.86122e-20
ExecutionTime = 8.27 s  ClockTime = 8 s

Time = 0.00307692

Courant Number mean: 0.173153 max: 0.946981
DILUPBiCGStab:  Solving for Ux, Initial residual = 0.00646054, Final residual = 2.91038e-05, No Iterations 5
DILUPBiCGStab:  Solving for Uy, Initial residual = 0.0152972, Final residual = 6.58847e-05, No Iterations 5
DILUPBiCGStab:  Solving for Uz, Initial residual = 0.0410422, Final residual = 0.00021568, No Iterations 5
linear solve U 249490
nonePBiCGStab:  Solving for p, Initial residual = 0.259036, Final residual = 8.49804e-07, No Iterations 417
linear solve p 2949781
time step continuity errors : sum local = 1.35746e-09, global = 1.62672e-20, cumulative = 5.48795e-20
nonePBiCGStab:  Solving for p, Initial residual = 0.21046, Final residual = 5.14785e-07, No Iterations 442
linear solve p 3154603
time step continuity errors : sum local = 7.78655e-10, global = -8.5933e-22, cumulative = 5.40201e-20
ExecutionTime = 14.76 s  ClockTime = 15 s

Time = 0.00461538

Courant Number mean: 0.174968 max: 0.947842
DILUPBiCGStab:  Solving for Ux, Initial residual = 0.0033115, Final residual = 1.28488e-05, No Iterations 5
DILUPBiCGStab:  Solving for Uy, Initial residual = 0.00810381, Final residual = 2.89844e-05, No Iterations 5
DILUPBiCGStab:  Solving for Uz, Initial residual = 0.0238652, Final residual = 0.000136825, No Iterations 5
linear solve U 246383
nonePBiCGStab:  Solving for p, Initial residual = 0.168056, Final residual = 7.76406e-07, No Iterations 418
linear solve p 2968226
time step continuity errors : sum local = 1.16946e-09, global = 8.94604e-21, cumulative = 6.29662e-20
nonePBiCGStab:  Solving for p, Initial residual = 0.135535, Final residual = 9.55546e-07, No Iterations 423
linear solve p 3017870
time step continuity errors : sum local = 1.44375e-09, global = -2.63347e-21, cumulative = 6.03327e-20
ExecutionTime = 21.12 s  ClockTime = 21 s

Time = 0.00615385

Courant Number mean: 0.176518 max: 0.947985
DILUPBiCGStab:  Solving for Ux, Initial residual = 0.00229829, Final residual = 8.48764e-06, No Iterations 5
DILUPBiCGStab:  Solving for Uy, Initial residual = 0.00670939, Final residual = 1.83189e-05, No Iterations 5
DILUPBiCGStab:  Solving for Uz, Initial residual = 0.0193105, Final residual = 8.41884e-05, No Iterations 5
linear solve U 247406
nonePBiCGStab:  Solving for p, Initial residual = 0.117511, Final residual = 3.01761e-07, No Iterations 424
linear solve p 3013224
time step continuity errors : sum local = 4.29532e-10, global = -8.54026e-21, cumulative = 5.17925e-20
nonePBiCGStab:  Solving for p, Initial residual = 0.0952621, Final residual = 8.35791e-07, No Iterations 421
linear solve p 3001087
time step continuity errors : sum local = 1.01444e-09, global = -3.38954e-20, cumulative = 1.7897e-20
ExecutionTime = 27.52 s  ClockTime = 27 s

Time = 0.00769231

Courant Number mean: 0.17797 max: 0.948443
DILUPBiCGStab:  Solving for Ux, Initial residual = 0.0019496, Final residual = 6.60118e-06, No Iterations 5
DILUPBiCGStab:  Solving for Uy, Initial residual = 0.00523724, Final residual = 1.36059e-05, No Iterations 5
DILUPBiCGStab:  Solving for Uz, Initial residual = 0.0138304, Final residual = 5.11272e-05, No Iterations 5
linear solve U 243735
nonePBiCGStab:  Solving for p, Initial residual = 0.0839589, Final residual = 9.59734e-07, No Iterations 378
linear solve p 2701222
time step continuity errors : sum local = 1.1316e-09, global = -3.7094e-20, cumulative = -1.9197e-20
nonePBiCGStab:  Solving for p, Initial residual = 0.0673522, Final residual = 9.57475e-07, No Iterations 359
linear solve p 2545745
time step continuity errors : sum local = 1.34337e-09, global = 5.13381e-20, cumulative = 3.21411e-20
ExecutionTime = 33.14 s  ClockTime = 33 s

Time = 0.00923077

Courant Number mean: 0.179261 max: 0.948913
DILUPBiCGStab:  Solving for Ux, Initial residual = 0.00160194, Final residual = 5.25116e-06, No Iterations 5
DILUPBiCGStab:  Solving for Uy, Initial residual = 0.00456404, Final residual = 9.17534e-06, No Iterations 5
DILUPBiCGStab:  Solving for Uz, Initial residual = 0.0115869, Final residual = 3.6014e-05, No Iterations 5
linear solve U 244086
nonePBiCGStab:  Solving for p, Initial residual = 0.0614085, Final residual = 8.24625e-07, No Iterations 390
linear solve p 2766476
time step continuity errors : sum local = 5.94169e-10, global = 1.98896e-20, cumulative = 5.20307e-20
nonePBiCGStab:  Solving for p, Initial residual = 0.049534, Final residual = 8.62856e-07, No Iterations 405
linear solve p 2862190
time step continuity errors : sum local = 7.61628e-10, global = -2.63384e-20, cumulative = 2.56923e-20
ExecutionTime = 39.15 s  ClockTime = 39 s

Time = 0.0107692

Courant Number mean: 0.180428 max: 0.949219
DILUPBiCGStab:  Solving for Ux, Initial residual = 0.00140779, Final residual = 4.23054e-06, No Iterations 5
DILUPBiCGStab:  Solving for Uy, Initial residual = 0.00391379, Final residual = 6.23014e-06, No Iterations 5
DILUPBiCGStab:  Solving for Uz, Initial residual = 0.00912258, Final residual = 2.50055e-05, No Iterations 5
linear solve U 243451
nonePBiCGStab:  Solving for p, Initial residual = 0.0454079, Final residual = 9.61424e-07, No Iterations 385
linear solve p 2736794
time step continuity errors : sum local = 9.28076e-10, global = -3.09287e-20, cumulative = -5.23632e-21
nonePBiCGStab:  Solving for p, Initial residual = 0.0363537, Final residual = 4.4445e-07, No Iterations 374
linear solve p 2648523
time step continuity errors : sum local = 4.23836e-10, global = 5.07162e-21, cumulative = -1.64702e-22
ExecutionTime = 44.92 s  ClockTime = 45 s

Time = 0.0123077

Courant Number mean: 0.181475 max: 0.949602
DILUPBiCGStab:  Solving for Ux, Initial residual = 0.00121921, Final residual = 3.14826e-06, No Iterations 5
DILUPBiCGStab:  Solving for Uy, Initial residual = 0.00347393, Final residual = 4.47674e-06, No Iterations 5
DILUPBiCGStab:  Solving for Uz, Initial residual = 0.00776026, Final residual = 1.97738e-05, No Iterations 5
linear solve U 244177
nonePBiCGStab:  Solving for p, Initial residual = 0.0339093, Final residual = 9.744e-07, No Iterations 384
linear solve p 2742633
time step continuity errors : sum local = 1.30996e-09, global = 3.96679e-22, cumulative = 2.31977e-22
nonePBiCGStab:  Solving for p, Initial residual = 0.027311, Final residual = 8.61095e-07, No Iterations 178
linear solve p 1260288
time step continuity errors : sum local = 6.31432e-10, global = -3.33128e-21, cumulative = -3.0993e-21
ExecutionTime = 49.31 s  ClockTime = 49 s

Time = 0.0138462

Courant Number mean: 0.182418 max: 0.949852
DILUPBiCGStab:  Solving for Ux, Initial residual = 0.0010848, Final residual = 2.38801e-06, No Iterations 5
DILUPBiCGStab:  Solving for Uy, Initial residual = 0.00306058, Final residual = 3.31258e-06, No Iterations 5
DILUPBiCGStab:  Solving for Uz, Initial residual = 0.00650968, Final residual = 1.61814e-05, No Iterations 5
linear solve U 245337
nonePBiCGStab:  Solving for p, Initial residual = 0.0255178, Final residual = 9.36995e-07, No Iterations 376
linear solve p 2661609
time step continuity errors : sum local = 1.21991e-09, global = -4.76565e-21, cumulative = -7.86496e-21
nonePBiCGStab:  Solving for p, Initial residual = 0.0204303, Final residual = 8.07428e-07, No Iterations 374
linear solve p 2653461
time step continuity errors : sum local = 1.08213e-09, global = -1.84028e-20, cumulative = -2.62678e-20
ExecutionTime = 55 s  ClockTime = 55 s

Time = 0.0153846

Courant Number mean: 0.183267 max: 0.95014
DILUPBiCGStab:  Solving for Ux, Initial residual = 0.000958745, Final residual = 1.66075e-06, No Iterations 5
DILUPBiCGStab:  Solving for Uy, Initial residual = 0.00275408, Final residual = 2.35882e-06, No Iterations 5
DILUPBiCGStab:  Solving for Uz, Initial residual = 0.00564248, Final residual = 1.3014e-05, No Iterations 5
linear solve U 246076
nonePBiCGStab:  Solving for p, Initial residual = 0.0193818, Final residual = 9.06922e-07, No Iterations 371
linear solve p 2625489
time step continuity errors : sum local = 6.75856e-10, global = 1.23443e-20, cumulative = -1.39235e-20
nonePBiCGStab:  Solving for p, Initial residual = 0.0156738, Final residual = 9.5713e-07, No Iterations 384
linear solve p 2728816
time step continuity errors : sum local = 1.02004e-09, global = -5.7668e-20, cumulative = -7.15914e-20
ExecutionTime = 60.73 s  ClockTime = 61 s

End

