/*---------------------------------------------------------------------------*\
  =========                 |
  \\      /  F ield         | OpenFOAM: The Open Source CFD Toolbox
   \\    /   O peration     | Website:  https://openfoam.org
    \\  /    A nd           | Version:  8
     \\/     M anipulation  |
\*---------------------------------------------------------------------------*/
Build  : 8-ef60d22ea792
Exec   : icoFoam
Date   : Sep 15 2021
Time   : 14:34:42
Host   : "uc2n438.localdomain"
PID    : 3551814
I/O    : uncollated
Case   : /pfs/data5/home/kit/scc/nq7776/data/code/OBR/lidDrivenCavity3D/Variation_init/100/Variation_mesh/35/Variation_matrix_solver/BiCGStab_NoPrecond_Serial/1631709280
nProcs : 1
sigFpe : Enabling floating point exception trapping (FOAM_SIGFPE).
fileModificationChecking : Monitoring run-time modified files using timeStampMaster (fileModificationSkew 10)
allowSystemOperations : Allowing user-supplied system call operations

// * * * * * * * * * * * * * * * * * * * * * * * * * * * * * * * * * * * * * //
Create time

Create mesh for time = 0

Reading transportProperties

Reading field p

Reading field U

Reading/calculating face flux field phi


Starting time loop

Time = 0.00285714

Courant Number mean: 0.170224 max: 0.896231
DILUPBiCGStab:  Solving for Ux, Initial residual = 0.0535917, Final residual = 5.77204e-06, No Iterations 5
DILUPBiCGStab:  Solving for Uy, Initial residual = 0.0977818, Final residual = 6.12956e-06, No Iterations 5
DILUPBiCGStab:  Solving for Uz, Initial residual = 0.14058, Final residual = 2.6287e-05, No Iterations 5
linear solve U 33844
nonePBiCGStab:  Solving for p, Initial residual = 0.499827, Final residual = 2.30653e-07, No Iterations 229
linear solve p 198493
time step continuity errors : sum local = 1.43651e-09, global = -2.34517e-21, cumulative = -2.34517e-21
nonePBiCGStab:  Solving for p, Initial residual = 0.250333, Final residual = 7.81446e-07, No Iterations 239
linear solve p 208400
time step continuity errors : sum local = 3.81503e-09, global = 3.43288e-20, cumulative = 3.19836e-20
ExecutionTime = 0.7 s  ClockTime = 1 s

Time = 0.00571429

Courant Number mean: 0.173241 max: 0.901365
DILUPBiCGStab:  Solving for Ux, Initial residual = 0.00900617, Final residual = 3.93736e-06, No Iterations 5
DILUPBiCGStab:  Solving for Uy, Initial residual = 0.0172111, Final residual = 5.21079e-06, No Iterations 5
DILUPBiCGStab:  Solving for Uz, Initial residual = 0.0412792, Final residual = 1.64697e-05, No Iterations 5
linear solve U 30379
nonePBiCGStab:  Solving for p, Initial residual = 0.196083, Final residual = 8.3526e-07, No Iterations 238
linear solve p 206549
time step continuity errors : sum local = 3.9312e-09, global = -5.03335e-20, cumulative = -1.83498e-20
nonePBiCGStab:  Solving for p, Initial residual = 0.136241, Final residual = 8.46276e-07, No Iterations 237
linear solve p 206498
time step continuity errors : sum local = 3.9506e-09, global = -3.36006e-20, cumulative = -5.19505e-20
ExecutionTime = 1.16 s  ClockTime = 1 s

Time = 0.00857143

Courant Number mean: 0.176068 max: 0.902689
DILUPBiCGStab:  Solving for Ux, Initial residual = 0.00391041, Final residual = 1.9561e-06, No Iterations 5
DILUPBiCGStab:  Solving for Uy, Initial residual = 0.0112136, Final residual = 3.28235e-06, No Iterations 5
DILUPBiCGStab:  Solving for Uz, Initial residual = 0.0238901, Final residual = 7.02105e-06, No Iterations 5
linear solve U 30453
nonePBiCGStab:  Solving for p, Initial residual = 0.0885585, Final residual = 9.72827e-07, No Iterations 230
linear solve p 200775
time step continuity errors : sum local = 4.44035e-09, global = -4.43115e-20, cumulative = -9.6262e-20
nonePBiCGStab:  Solving for p, Initial residual = 0.0629757, Final residual = 9.13235e-07, No Iterations 226
linear solve p 198208
time step continuity errors : sum local = 4.1856e-09, global = -6.93382e-21, cumulative = -1.03196e-19
ExecutionTime = 1.61 s  ClockTime = 2 s

Time = 0.0114286

Courant Number mean: 0.178562 max: 0.90517
DILUPBiCGStab:  Solving for Ux, Initial residual = 0.00298344, Final residual = 7.83947e-07, No Iterations 5
DILUPBiCGStab:  Solving for Uy, Initial residual = 0.0070695, Final residual = 1.21829e-06, No Iterations 5
DILUPBiCGStab:  Solving for Uz, Initial residual = 0.0135947, Final residual = 2.98615e-06, No Iterations 5
linear solve U 30279
nonePBiCGStab:  Solving for p, Initial residual = 0.0454896, Final residual = 9.44906e-07, No Iterations 200
linear solve p 174559
time step continuity errors : sum local = 3.37916e-09, global = -2.74757e-20, cumulative = -1.30672e-19
nonePBiCGStab:  Solving for p, Initial residual = 0.0325154, Final residual = 9.81704e-07, No Iterations 213
linear solve p 185980
time step continuity errors : sum local = 4.29667e-09, global = 4.52464e-20, cumulative = -8.54251e-20
ExecutionTime = 2.02 s  ClockTime = 2 s

Time = 0.0142857

Courant Number mean: 0.180508 max: 0.906239
DILUPBiCGStab:  Solving for Ux, Initial residual = 0.00217884, Final residual = 3.95845e-07, No Iterations 5
DILUPBiCGStab:  Solving for Uy, Initial residual = 0.00556622, Final residual = 4.94798e-07, No Iterations 5
DILUPBiCGStab:  Solving for Uz, Initial residual = 0.0101601, Final residual = 1.74576e-06, No Iterations 5
linear solve U 29945
nonePBiCGStab:  Solving for p, Initial residual = 0.0250476, Final residual = 7.24133e-07, No Iterations 201
linear solve p 173914
time step continuity errors : sum local = 3.17213e-09, global = 1.96119e-21, cumulative = -8.34639e-20
nonePBiCGStab:  Solving for p, Initial residual = 0.0177922, Final residual = 7.88342e-07, No Iterations 203
linear solve p 176577
time step continuity errors : sum local = 3.46015e-09, global = 7.57606e-20, cumulative = -7.70338e-21
ExecutionTime = 2.42 s  ClockTime = 3 s

Time = 0.0171429

Courant Number mean: 0.182128 max: 0.907282
DILUPBiCGStab:  Solving for Ux, Initial residual = 0.00180102, Final residual = 1.99011e-07, No Iterations 5
DILUPBiCGStab:  Solving for Uy, Initial residual = 0.00454207, Final residual = 6.94755e-07, No Iterations 5
DILUPBiCGStab:  Solving for Uz, Initial residual = 0.00816559, Final residual = 1.33227e-06, No Iterations 5
linear solve U 30089
nonePBiCGStab:  Solving for p, Initial residual = 0.0136363, Final residual = 9.14067e-07, No Iterations 198
linear solve p 171382
time step continuity errors : sum local = 3.97913e-09, global = -2.48624e-20, cumulative = -3.25658e-20
nonePBiCGStab:  Solving for p, Initial residual = 0.0100724, Final residual = 9.53739e-07, No Iterations 195
linear solve p 169405
time step continuity errors : sum local = 4.14817e-09, global = 3.75682e-20, cumulative = 5.00243e-21
ExecutionTime = 2.81 s  ClockTime = 3 s

Time = 0.02

Courant Number mean: 0.183455 max: 0.907988
DILUPBiCGStab:  Solving for Ux, Initial residual = 0.00146153, Final residual = 2.18898e-07, No Iterations 5
DILUPBiCGStab:  Solving for Uy, Initial residual = 0.00370166, Final residual = 4.94327e-07, No Iterations 5
DILUPBiCGStab:  Solving for Uz, Initial residual = 0.0064322, Final residual = 7.35527e-07, No Iterations 5
linear solve U 29826
nonePBiCGStab:  Solving for p, Initial residual = 0.0088652, Final residual = 9.91977e-07, No Iterations 101
linear solve p 87953
time step continuity errors : sum local = 4.21339e-09, global = 1.36159e-20, cumulative = 1.86183e-20
nonePBiCGStab:  Solving for p, Initial residual = 0.00667556, Final residual = 9.43856e-07, No Iterations 93
linear solve p 81876
time step continuity errors : sum local = 3.57567e-09, global = 3.46207e-20, cumulative = 5.3239e-20
ExecutionTime = 3.03 s  ClockTime = 3 s

Time = 0.0228571

Courant Number mean: 0.184561 max: 0.908607
DILUPBiCGStab:  Solving for Ux, Initial residual = 0.00121332, Final residual = 1.39273e-07, No Iterations 5
DILUPBiCGStab:  Solving for Uy, Initial residual = 0.0031001, Final residual = 4.14265e-07, No Iterations 5
DILUPBiCGStab:  Solving for Uz, Initial residual = 0.00537548, Final residual = 6.34354e-07, No Iterations 5
linear solve U 29829
nonePBiCGStab:  Solving for p, Initial residual = 0.00528733, Final residual = 9.9789e-07, No Iterations 100
linear solve p 86836
time step continuity errors : sum local = 4.13249e-09, global = -7.02492e-21, cumulative = 4.62141e-20
nonePBiCGStab:  Solving for p, Initial residual = 0.0043017, Final residual = 9.87959e-07, No Iterations 96
linear solve p 83266
time step continuity errors : sum local = 3.15559e-09, global = 6.93124e-20, cumulative = 1.15526e-19
ExecutionTime = 3.25 s  ClockTime = 3 s

Time = 0.0257143

Courant Number mean: 0.18548 max: 0.909075
DILUPBiCGStab:  Solving for Ux, Initial residual = 0.00100703, Final residual = 7.66786e-08, No Iterations 5
DILUPBiCGStab:  Solving for Uy, Initial residual = 0.00257529, Final residual = 1.56439e-07, No Iterations 5
DILUPBiCGStab:  Solving for Uz, Initial residual = 0.00434625, Final residual = 4.65718e-07, No Iterations 5
linear solve U 29764
nonePBiCGStab:  Solving for p, Initial residual = 0.0040338, Final residual = 8.3038e-07, No Iterations 102
linear solve p 88928
time step continuity errors : sum local = 3.50358e-09, global = 4.26908e-20, cumulative = 1.58217e-19
nonePBiCGStab:  Solving for p, Initial residual = 0.00335212, Final residual = 9.58203e-07, No Iterations 96
linear solve p 83573
time step continuity errors : sum local = 2.73738e-09, global = -2.88684e-20, cumulative = 1.29349e-19
ExecutionTime = 3.47 s  ClockTime = 4 s

Time = 0.0285714

Courant Number mean: 0.186248 max: 0.909471
DILUPBiCGStab:  Solving for Ux, Initial residual = 0.000842128, Final residual = 6.29267e-08, No Iterations 5
DILUPBiCGStab:  Solving for Uy, Initial residual = 0.00217056, Final residual = 2.8231e-07, No Iterations 5
DILUPBiCGStab:  Solving for Uz, Initial residual = 0.00361958, Final residual = 3.99596e-07, No Iterations 5
linear solve U 29827
nonePBiCGStab:  Solving for p, Initial residual = 0.00282922, Final residual = 9.09991e-07, No Iterations 84
linear solve p 73843
time step continuity errors : sum local = 3.62548e-09, global = -7.58702e-20, cumulative = 5.34786e-20
nonePBiCGStab:  Solving for p, Initial residual = 0.00247431, Final residual = 9.92802e-07, No Iterations 81
linear solve p 71036
time step continuity errors : sum local = 2.47363e-09, global = 8.1931e-20, cumulative = 1.3541e-19
ExecutionTime = 3.66 s  ClockTime = 4 s

End

