/*---------------------------------------------------------------------------*\
  =========                 |
  \\      /  F ield         | OpenFOAM: The Open Source CFD Toolbox
   \\    /   O peration     | Website:  https://openfoam.org
    \\  /    A nd           | Version:  8
     \\/     M anipulation  |
\*---------------------------------------------------------------------------*/
Build  : 8-ef60d22ea792
Exec   : icoFoam
Date   : Sep 15 2021
Time   : 13:13:29
Host   : "uc2n482.localdomain"
PID    : 3628485
I/O    : uncollated
Case   : /pfs/data5/home/kit/scc/nq7776/data/code/OBR/lidDrivenCavity3D/Variation_init/100/Variation_mesh/90/Variation_matrix_solver/CG_BJ_CUDA/Variation_maxBlockSize/1/1631704380
nProcs : 1
sigFpe : Enabling floating point exception trapping (FOAM_SIGFPE).
fileModificationChecking : Monitoring run-time modified files using timeStampMaster (fileModificationSkew 10)
allowSystemOperations : Allowing user-supplied system call operations

// * * * * * * * * * * * * * * * * * * * * * * * * * * * * * * * * * * * * * //
Create time

Create mesh for time = 0

Reading transportProperties

Reading field p

Reading field U

Reading/calculating face flux field phi


Starting time loop

Time = 0.00111111

Courant Number mean: 0.170803 max: 0.959403
DILUPBiCGStab:  Solving for Ux, Initial residual = 0.0817494, Final residual = 0.000236661, No Iterations 5
DILUPBiCGStab:  Solving for Uy, Initial residual = 0.166742, Final residual = 0.000630917, No Iterations 5
DILUPBiCGStab:  Solving for Uz, Initial residual = 0.256474, Final residual = 0.00093799, No Iterations 5
linear solve U 797544
[OGL LOG] init_host_sparsity_pattern : 212 ms
[OGL LOG] matrix not stored update host matrix
[OGL LOG] update_host_mtx : 114 ms
[OGL LOG] matrix is not yet sorted, compute sorting idxs
[OGL LOG] compute_sort : 6808 ms
[OGL LOG] matrix is not yet sorted, sorting host matrix
[OGL LOG] sort_host_mtx_sparsity_pattern : 148 ms
[OGL LOG] sort_host_mtx : 88 ms
[OGL LOG] init_preconditioner : 1 ms
[OGL LOG] solve : 672 ms
BJcudaGKOCG:  Solving for p, Initial residual = 0.628613, Final residual = 9.97347e-07, No Iterations 748
linear solve p 8854148
time step continuity errors : sum local = 7.80571e-10, global = 1.85422e-20, cumulative = 1.85422e-20
[OGL LOG] init_preconditioner : 0 ms
[OGL LOG] solve : 669 ms
BJcudaGKOCG:  Solving for p, Initial residual = 0.413687, Final residual = 9.91092e-07, No Iterations 747
linear solve p 692287
time step continuity errors : sum local = 6.80459e-10, global = -4.31878e-21, cumulative = 1.42234e-20
ExecutionTime = 14.12 s  ClockTime = 14 s

Time = 0.00222222

Courant Number mean: 0.172492 max: 0.961842
DILUPBiCGStab:  Solving for Ux, Initial residual = 0.00648977, Final residual = 6.65168e-05, No Iterations 5
DILUPBiCGStab:  Solving for Uy, Initial residual = 0.018169, Final residual = 0.000188379, No Iterations 5
DILUPBiCGStab:  Solving for Uz, Initial residual = 0.055929, Final residual = 0.000786811, No Iterations 5
linear solve U 740378
[OGL LOG] init_preconditioner : 0 ms
[OGL LOG] solve : 680 ms
BJcudaGKOCG:  Solving for p, Initial residual = 0.502231, Final residual = 9.99745e-07, No Iterations 750
linear solve p 702684
time step continuity errors : sum local = 6.56131e-08, global = -2.31128e-20, cumulative = -8.88943e-21
[OGL LOG] init_preconditioner : 0 ms
[OGL LOG] solve : 667 ms
BJcudaGKOCG:  Solving for p, Initial residual = 0.412943, Final residual = 9.81647e-07, No Iterations 748
linear solve p 697374
time step continuity errors : sum local = 5.60774e-08, global = 8.40193e-21, cumulative = -4.87497e-22
ExecutionTime = 16.69 s  ClockTime = 17 s

Time = 0.00333333

Courant Number mean: 0.173861 max: 0.961987
DILUPBiCGStab:  Solving for Ux, Initial residual = 0.00378862, Final residual = 3.601e-05, No Iterations 5
DILUPBiCGStab:  Solving for Uy, Initial residual = 0.0107274, Final residual = 0.000108706, No Iterations 5
DILUPBiCGStab:  Solving for Uz, Initial residual = 0.0377599, Final residual = 0.000490159, No Iterations 5
linear solve U 745031
[OGL LOG] init_preconditioner : 0 ms
[OGL LOG] solve : 670 ms
BJcudaGKOCG:  Solving for p, Initial residual = 0.412758, Final residual = 9.56808e-07, No Iterations 748
linear solve p 694020
time step continuity errors : sum local = 5.82159e-08, global = 1.09783e-20, cumulative = 1.04908e-20
[OGL LOG] init_preconditioner : 0 ms
[OGL LOG] solve : 677 ms
BJcudaGKOCG:  Solving for p, Initial residual = 0.329405, Final residual = 9.8493e-07, No Iterations 744
linear solve p 702270
time step continuity errors : sum local = 5.53185e-08, global = 1.50648e-20, cumulative = 2.55556e-20
ExecutionTime = 19.29 s  ClockTime = 19 s

Time = 0.00444444

Courant Number mean: 0.175122 max: 0.96203
DILUPBiCGStab:  Solving for Ux, Initial residual = 0.00283366, Final residual = 2.30253e-05, No Iterations 5
DILUPBiCGStab:  Solving for Uy, Initial residual = 0.00840087, Final residual = 6.82567e-05, No Iterations 5
DILUPBiCGStab:  Solving for Uz, Initial residual = 0.0303781, Final residual = 0.000466662, No Iterations 5
linear solve U 732521
[OGL LOG] init_preconditioner : 0 ms
[OGL LOG] solve : 676 ms
BJcudaGKOCG:  Solving for p, Initial residual = 0.355944, Final residual = 9.96027e-07, No Iterations 741
linear solve p 700564
time step continuity errors : sum local = 5.68988e-08, global = -2.1969e-20, cumulative = 3.58655e-21
[OGL LOG] init_preconditioner : 0 ms
[OGL LOG] solve : 678 ms
BJcudaGKOCG:  Solving for p, Initial residual = 0.288926, Final residual = 9.89683e-07, No Iterations 739
linear solve p 700972
time step continuity errors : sum local = 5.56882e-08, global = 6.17923e-21, cumulative = 9.76577e-21
ExecutionTime = 21.87 s  ClockTime = 22 s

Time = 0.00555556

Courant Number mean: 0.176336 max: 0.962265
DILUPBiCGStab:  Solving for Ux, Initial residual = 0.00237662, Final residual = 1.5852e-05, No Iterations 5
DILUPBiCGStab:  Solving for Uy, Initial residual = 0.00656994, Final residual = 4.32081e-05, No Iterations 5
DILUPBiCGStab:  Solving for Uz, Initial residual = 0.0243788, Final residual = 0.000373291, No Iterations 5
linear solve U 737009
[OGL LOG] init_preconditioner : 0 ms
[OGL LOG] solve : 676 ms
BJcudaGKOCG:  Solving for p, Initial residual = 0.298696, Final residual = 9.85508e-07, No Iterations 738
linear solve p 699158
time step continuity errors : sum local = 5.68104e-08, global = 2.18103e-21, cumulative = 1.19468e-20
[OGL LOG] init_preconditioner : 0 ms
[OGL LOG] solve : 681 ms
BJcudaGKOCG:  Solving for p, Initial residual = 0.24135, Final residual = 9.89562e-07, No Iterations 736
linear solve p 705265
time step continuity errors : sum local = 5.54064e-08, global = 5.83911e-21, cumulative = 1.77859e-20
ExecutionTime = 24.44 s  ClockTime = 25 s

Time = 0.00666667

Courant Number mean: 0.177448 max: 0.962591
DILUPBiCGStab:  Solving for Ux, Initial residual = 0.00201483, Final residual = 1.19558e-05, No Iterations 5
DILUPBiCGStab:  Solving for Uy, Initial residual = 0.00552656, Final residual = 3.24112e-05, No Iterations 5
DILUPBiCGStab:  Solving for Uz, Initial residual = 0.0203595, Final residual = 0.000326794, No Iterations 5
linear solve U 735636
[OGL LOG] init_preconditioner : 0 ms
[OGL LOG] solve : 665 ms
BJcudaGKOCG:  Solving for p, Initial residual = 0.259594, Final residual = 9.51067e-07, No Iterations 731
linear solve p 689382
time step continuity errors : sum local = 5.57958e-08, global = 3.93704e-20, cumulative = 5.71563e-20
[OGL LOG] init_preconditioner : 0 ms
[OGL LOG] solve : 665 ms
BJcudaGKOCG:  Solving for p, Initial residual = 0.210338, Final residual = 9.9026e-07, No Iterations 728
linear solve p 687631
time step continuity errors : sum local = 5.55748e-08, global = -1.58715e-21, cumulative = 5.55691e-20
ExecutionTime = 27 s  ClockTime = 27 s

Time = 0.00777778

Courant Number mean: 0.17848 max: 0.962789
DILUPBiCGStab:  Solving for Ux, Initial residual = 0.00174459, Final residual = 9.87666e-06, No Iterations 5
DILUPBiCGStab:  Solving for Uy, Initial residual = 0.00474397, Final residual = 2.29052e-05, No Iterations 5
DILUPBiCGStab:  Solving for Uz, Initial residual = 0.0169164, Final residual = 0.000263279, No Iterations 5
linear solve U 740837
[OGL LOG] init_preconditioner : 0 ms
[OGL LOG] solve : 666 ms
BJcudaGKOCG:  Solving for p, Initial residual = 0.222056, Final residual = 9.90447e-07, No Iterations 724
linear solve p 689821
time step continuity errors : sum local = 5.60585e-08, global = -9.49472e-21, cumulative = 4.60744e-20
[OGL LOG] init_preconditioner : 0 ms
[OGL LOG] solve : 662 ms
BJcudaGKOCG:  Solving for p, Initial residual = 0.180057, Final residual = 9.91002e-07, No Iterations 722
linear solve p 685446
time step continuity errors : sum local = 5.54245e-08, global = 1.5378e-20, cumulative = 6.14524e-20
ExecutionTime = 29.57 s  ClockTime = 30 s

Time = 0.00888889

Courant Number mean: 0.17943 max: 0.963051
DILUPBiCGStab:  Solving for Ux, Initial residual = 0.00153308, Final residual = 8.75937e-06, No Iterations 5
DILUPBiCGStab:  Solving for Uy, Initial residual = 0.00409992, Final residual = 1.97697e-05, No Iterations 5
DILUPBiCGStab:  Solving for Uz, Initial residual = 0.0141868, Final residual = 0.000221869, No Iterations 5
linear solve U 734506
[OGL LOG] init_preconditioner : 0 ms
[OGL LOG] solve : 656 ms
BJcudaGKOCG:  Solving for p, Initial residual = 0.192567, Final residual = 9.9553e-07, No Iterations 715
linear solve p 678880
time step continuity errors : sum local = 5.56662e-08, global = 8.85968e-21, cumulative = 7.03121e-20
[OGL LOG] init_preconditioner : 0 ms
[OGL LOG] solve : 641 ms
BJcudaGKOCG:  Solving for p, Initial residual = 0.156034, Final residual = 9.44913e-07, No Iterations 714
linear solve p 664088
time step continuity errors : sum local = 5.55084e-08, global = -8.17379e-21, cumulative = 6.21383e-20
ExecutionTime = 32.08 s  ClockTime = 32 s

Time = 0.01

Courant Number mean: 0.180306 max: 0.963239
DILUPBiCGStab:  Solving for Ux, Initial residual = 0.00134687, Final residual = 8.22699e-06, No Iterations 5
DILUPBiCGStab:  Solving for Uy, Initial residual = 0.00364342, Final residual = 1.63465e-05, No Iterations 5
DILUPBiCGStab:  Solving for Uz, Initial residual = 0.0119454, Final residual = 0.000171576, No Iterations 5
linear solve U 733042
[OGL LOG] init_preconditioner : 0 ms
[OGL LOG] solve : 645 ms
BJcudaGKOCG:  Solving for p, Initial residual = 0.165997, Final residual = 9.9637e-07, No Iterations 712
linear solve p 667714
time step continuity errors : sum local = 5.5685e-08, global = 1.3406e-20, cumulative = 7.55443e-20
[OGL LOG] init_preconditioner : 0 ms
[OGL LOG] solve : 633 ms
BJcudaGKOCG:  Solving for p, Initial residual = 0.134791, Final residual = 9.93693e-07, No Iterations 710
linear solve p 656735
time step continuity errors : sum local = 5.54287e-08, global = 1.28602e-20, cumulative = 8.84045e-20
ExecutionTime = 34.58 s  ClockTime = 35 s

Time = 0.0111111

Courant Number mean: 0.181116 max: 0.963438
DILUPBiCGStab:  Solving for Ux, Initial residual = 0.00120343, Final residual = 7.36997e-06, No Iterations 5
DILUPBiCGStab:  Solving for Uy, Initial residual = 0.00320715, Final residual = 1.52814e-05, No Iterations 5
DILUPBiCGStab:  Solving for Uz, Initial residual = 0.0101878, Final residual = 0.000139979, No Iterations 5
linear solve U 740859
[OGL LOG] init_preconditioner : 0 ms
[OGL LOG] solve : 634 ms
BJcudaGKOCG:  Solving for p, Initial residual = 0.143531, Final residual = 9.73335e-07, No Iterations 708
linear solve p 658007
time step continuity errors : sum local = 5.55969e-08, global = 5.0094e-21, cumulative = 9.34139e-20
[OGL LOG] init_preconditioner : 0 ms
[OGL LOG] solve : 635 ms
BJcudaGKOCG:  Solving for p, Initial residual = 0.116378, Final residual = 9.25627e-07, No Iterations 707
linear solve p 658337
time step continuity errors : sum local = 5.54728e-08, global = 1.78839e-20, cumulative = 1.11298e-19
ExecutionTime = 37.07 s  ClockTime = 37 s

End

