/*---------------------------------------------------------------------------*\
  =========                 |
  \\      /  F ield         | OpenFOAM: The Open Source CFD Toolbox
   \\    /   O peration     | Website:  https://openfoam.org
    \\  /    A nd           | Version:  8
     \\/     M anipulation  |
\*---------------------------------------------------------------------------*/
Build  : 8-ef60d22ea792
Exec   : icoFoam
Date   : Sep 15 2021
Time   : 15:03:38
Host   : "uc2n482.localdomain"
PID    : 3659789
I/O    : uncollated
Case   : /pfs/data5/home/kit/scc/nq7776/data/code/OBR/lidDrivenCavity3D/Variation_init/100/Variation_mesh/55/Variation_matrix_solver/CG_BJ_CUDA/Variation_maxBlockSize/1/1631711010
nProcs : 1
sigFpe : Enabling floating point exception trapping (FOAM_SIGFPE).
fileModificationChecking : Monitoring run-time modified files using timeStampMaster (fileModificationSkew 10)
allowSystemOperations : Allowing user-supplied system call operations

// * * * * * * * * * * * * * * * * * * * * * * * * * * * * * * * * * * * * * //
Create time

Create mesh for time = 0

Reading transportProperties

Reading field p

Reading field U

Reading/calculating face flux field phi


Starting time loop

Time = 0.00181818

Courant Number mean: 0.170885 max: 0.951813
DILUPBiCGStab:  Solving for Ux, Initial residual = 0.0617772, Final residual = 8.17367e-05, No Iterations 5
DILUPBiCGStab:  Solving for Uy, Initial residual = 0.127918, Final residual = 0.000176819, No Iterations 5
DILUPBiCGStab:  Solving for Uz, Initial residual = 0.177193, Final residual = 0.000215685, No Iterations 5
linear solve U 166439
[OGL LOG] init_host_sparsity_pattern : 49 ms
[OGL LOG] matrix not stored update host matrix
[OGL LOG] update_host_mtx : 26 ms
[OGL LOG] matrix is not yet sorted, compute sorting idxs
[OGL LOG] compute_sort : 1436 ms
[OGL LOG] matrix is not yet sorted, sorting host matrix
[OGL LOG] sort_host_mtx_sparsity_pattern : 33 ms
[OGL LOG] sort_host_mtx : 19 ms
[OGL LOG] init_preconditioner : 0 ms
[OGL LOG] solve : 134 ms
BJcudaGKOCG:  Solving for p, Initial residual = 0.614449, Final residual = 9.85981e-07, No Iterations 439
linear solve p 2465525
time step continuity errors : sum local = 1.62291e-09, global = 1.93485e-20, cumulative = 1.93485e-20
[OGL LOG] init_preconditioner : 0 ms
[OGL LOG] solve : 130 ms
BJcudaGKOCG:  Solving for p, Initial residual = 0.429359, Final residual = 9.92111e-07, No Iterations 440
linear solve p 135550
time step continuity errors : sum local = 1.14312e-09, global = 5.45468e-21, cumulative = 2.48032e-20
ExecutionTime = 3.66 s  ClockTime = 4 s

Time = 0.00363636

Courant Number mean: 0.173201 max: 0.938447
DILUPBiCGStab:  Solving for Ux, Initial residual = 0.00803601, Final residual = 1.32171e-05, No Iterations 5
DILUPBiCGStab:  Solving for Uy, Initial residual = 0.0187993, Final residual = 2.49188e-05, No Iterations 5
DILUPBiCGStab:  Solving for Uz, Initial residual = 0.0434189, Final residual = 0.000133399, No Iterations 5
linear solve U 148910
[OGL LOG] init_preconditioner : 0 ms
[OGL LOG] solve : 132 ms
BJcudaGKOCG:  Solving for p, Initial residual = 0.309262, Final residual = 9.37374e-07, No Iterations 439
linear solve p 137275
time step continuity errors : sum local = 3.77528e-07, global = -3.54825e-20, cumulative = -1.06793e-20
[OGL LOG] init_preconditioner : 0 ms
[OGL LOG] solve : 134 ms
BJcudaGKOCG:  Solving for p, Initial residual = 0.196347, Final residual = 9.40855e-07, No Iterations 436
linear solve p 139029
time step continuity errors : sum local = 3.64834e-07, global = -3.41655e-20, cumulative = -4.48447e-20
ExecutionTime = 4.18 s  ClockTime = 4 s

Time = 0.00545455

Courant Number mean: 0.175253 max: 0.938256
DILUPBiCGStab:  Solving for Ux, Initial residual = 0.00374961, Final residual = 1.01144e-05, No Iterations 5
DILUPBiCGStab:  Solving for Uy, Initial residual = 0.0092029, Final residual = 1.43023e-05, No Iterations 5
DILUPBiCGStab:  Solving for Uz, Initial residual = 0.0232231, Final residual = 5.76174e-05, No Iterations 5
linear solve U 149989
[OGL LOG] init_preconditioner : 0 ms
[OGL LOG] solve : 131 ms
BJcudaGKOCG:  Solving for p, Initial residual = 0.17123, Final residual = 9.12386e-07, No Iterations 435
linear solve p 136446
time step continuity errors : sum local = 3.66576e-07, global = -6.35148e-20, cumulative = -1.0836e-19
[OGL LOG] init_preconditioner : 0 ms
[OGL LOG] solve : 132 ms
BJcudaGKOCG:  Solving for p, Initial residual = 0.116656, Final residual = 9.92536e-07, No Iterations 432
linear solve p 137928
time step continuity errors : sum local = 3.63503e-07, global = 2.49399e-20, cumulative = -8.34197e-20
ExecutionTime = 4.7 s  ClockTime = 5 s

Time = 0.00727273

Courant Number mean: 0.177048 max: 0.938779
DILUPBiCGStab:  Solving for Ux, Initial residual = 0.00266586, Final residual = 6.46368e-06, No Iterations 5
DILUPBiCGStab:  Solving for Uy, Initial residual = 0.00703996, Final residual = 1.01548e-05, No Iterations 5
DILUPBiCGStab:  Solving for Uz, Initial residual = 0.0168317, Final residual = 3.4218e-05, No Iterations 5
linear solve U 151781
[OGL LOG] init_preconditioner : 0 ms
[OGL LOG] solve : 130 ms
BJcudaGKOCG:  Solving for p, Initial residual = 0.103548, Final residual = 9.65531e-07, No Iterations 428
linear solve p 135037
time step continuity errors : sum local = 3.61582e-07, global = 2.50987e-20, cumulative = -5.83209e-20
[OGL LOG] init_preconditioner : 0 ms
[OGL LOG] solve : 133 ms
BJcudaGKOCG:  Solving for p, Initial residual = 0.0729169, Final residual = 9.97639e-07, No Iterations 426
linear solve p 138983
time step continuity errors : sum local = 3.63441e-07, global = 4.08009e-20, cumulative = -1.75201e-20
ExecutionTime = 5.22 s  ClockTime = 5 s

Time = 0.00909091

Courant Number mean: 0.178659 max: 0.939358
DILUPBiCGStab:  Solving for Ux, Initial residual = 0.00214455, Final residual = 4.4771e-06, No Iterations 5
DILUPBiCGStab:  Solving for Uy, Initial residual = 0.00554024, Final residual = 7.69181e-06, No Iterations 5
DILUPBiCGStab:  Solving for Uz, Initial residual = 0.0120071, Final residual = 2.15322e-05, No Iterations 5
linear solve U 149998
[OGL LOG] init_preconditioner : 0 ms
[OGL LOG] solve : 128 ms
BJcudaGKOCG:  Solving for p, Initial residual = 0.0676795, Final residual = 9.63409e-07, No Iterations 425
linear solve p 134094
time step continuity errors : sum local = 3.64738e-07, global = 2.27882e-20, cumulative = 5.26811e-21
[OGL LOG] init_preconditioner : 0 ms
[OGL LOG] solve : 125 ms
BJcudaGKOCG:  Solving for p, Initial residual = 0.0494706, Final residual = 8.951e-07, No Iterations 424
linear solve p 130598
time step continuity errors : sum local = 3.63524e-07, global = 1.8363e-20, cumulative = 2.36311e-20
ExecutionTime = 5.73 s  ClockTime = 6 s

Time = 0.0109091

Courant Number mean: 0.180069 max: 0.939963
DILUPBiCGStab:  Solving for Ux, Initial residual = 0.00177178, Final residual = 2.99533e-06, No Iterations 5
DILUPBiCGStab:  Solving for Uy, Initial residual = 0.00472596, Final residual = 5.80084e-06, No Iterations 5
DILUPBiCGStab:  Solving for Uz, Initial residual = 0.0101116, Final residual = 1.58961e-05, No Iterations 5
linear solve U 148525
[OGL LOG] init_preconditioner : 0 ms
[OGL LOG] solve : 124 ms
BJcudaGKOCG:  Solving for p, Initial residual = 0.0441853, Final residual = 9.4071e-07, No Iterations 415
linear solve p 129615
time step continuity errors : sum local = 3.62787e-07, global = -7.65725e-21, cumulative = 1.59739e-20
[OGL LOG] init_preconditioner : 0 ms
[OGL LOG] solve : 123 ms
BJcudaGKOCG:  Solving for p, Initial residual = 0.033091, Final residual = 9.17074e-07, No Iterations 414
linear solve p 128863
time step continuity errors : sum local = 3.6342e-07, global = 4.534e-20, cumulative = 6.13139e-20
ExecutionTime = 6.23 s  ClockTime = 6 s

Time = 0.0127273

Courant Number mean: 0.181311 max: 0.940375
DILUPBiCGStab:  Solving for Ux, Initial residual = 0.00150046, Final residual = 1.86628e-06, No Iterations 5
DILUPBiCGStab:  Solving for Uy, Initial residual = 0.00397844, Final residual = 3.93464e-06, No Iterations 5
DILUPBiCGStab:  Solving for Uz, Initial residual = 0.00797313, Final residual = 1.14645e-05, No Iterations 5
linear solve U 150756
[OGL LOG] init_preconditioner : 0 ms
[OGL LOG] solve : 126 ms
BJcudaGKOCG:  Solving for p, Initial residual = 0.0312977, Final residual = 9.68491e-07, No Iterations 412
linear solve p 132562
time step continuity errors : sum local = 3.63814e-07, global = 2.36721e-20, cumulative = 8.4986e-20
[OGL LOG] init_preconditioner : 0 ms
[OGL LOG] solve : 124 ms
BJcudaGKOCG:  Solving for p, Initial residual = 0.0239648, Final residual = 9.42084e-07, No Iterations 410
linear solve p 129471
time step continuity errors : sum local = 3.6349e-07, global = 4.74907e-20, cumulative = 1.32477e-19
ExecutionTime = 6.74 s  ClockTime = 7 s

Time = 0.0145455

Courant Number mean: 0.182406 max: 0.940818
DILUPBiCGStab:  Solving for Ux, Initial residual = 0.0012852, Final residual = 1.12752e-06, No Iterations 5
DILUPBiCGStab:  Solving for Uy, Initial residual = 0.0034904, Final residual = 2.55942e-06, No Iterations 5
DILUPBiCGStab:  Solving for Uz, Initial residual = 0.00694129, Final residual = 8.68571e-06, No Iterations 5
linear solve U 150769
[OGL LOG] init_preconditioner : 0 ms
[OGL LOG] solve : 124 ms
BJcudaGKOCG:  Solving for p, Initial residual = 0.0214643, Final residual = 9.85654e-07, No Iterations 406
linear solve p 129787
time step continuity errors : sum local = 3.63259e-07, global = -2.25012e-21, cumulative = 1.30227e-19
[OGL LOG] init_preconditioner : 0 ms
[OGL LOG] solve : 122 ms
BJcudaGKOCG:  Solving for p, Initial residual = 0.0167055, Final residual = 9.49753e-07, No Iterations 405
linear solve p 127771
time step continuity errors : sum local = 3.63436e-07, global = 2.79963e-20, cumulative = 1.58223e-19
ExecutionTime = 7.24 s  ClockTime = 7 s

Time = 0.0163636

Courant Number mean: 0.183372 max: 0.941134
DILUPBiCGStab:  Solving for Ux, Initial residual = 0.00111634, Final residual = 7.08795e-07, No Iterations 5
DILUPBiCGStab:  Solving for Uy, Initial residual = 0.00301004, Final residual = 1.58189e-06, No Iterations 5
DILUPBiCGStab:  Solving for Uz, Initial residual = 0.00577498, Final residual = 6.12289e-06, No Iterations 5
linear solve U 150860
[OGL LOG] init_preconditioner : 0 ms
[OGL LOG] solve : 121 ms
BJcudaGKOCG:  Solving for p, Initial residual = 0.0158737, Final residual = 9.49479e-07, No Iterations 406
linear solve p 126775
time step continuity errors : sum local = 3.63562e-07, global = -4.23688e-20, cumulative = 1.15854e-19
[OGL LOG] init_preconditioner : 0 ms
[OGL LOG] solve : 123 ms
BJcudaGKOCG:  Solving for p, Initial residual = 0.0125523, Final residual = 8.94265e-07, No Iterations 405
linear solve p 128367
time step continuity errors : sum local = 3.6342e-07, global = -5.08725e-20, cumulative = 6.49817e-20
ExecutionTime = 7.74 s  ClockTime = 8 s

Time = 0.0181818

Courant Number mean: 0.18423 max: 0.941454
DILUPBiCGStab:  Solving for Ux, Initial residual = 0.000969238, Final residual = 5.33188e-07, No Iterations 5
DILUPBiCGStab:  Solving for Uy, Initial residual = 0.00267676, Final residual = 1.09409e-06, No Iterations 5
DILUPBiCGStab:  Solving for Uz, Initial residual = 0.00508082, Final residual = 5.08734e-06, No Iterations 5
linear solve U 150769
[OGL LOG] init_preconditioner : 0 ms
[OGL LOG] solve : 118 ms
BJcudaGKOCG:  Solving for p, Initial residual = 0.011264, Final residual = 9.26292e-07, No Iterations 393
linear solve p 123465
time step continuity errors : sum local = 3.63352e-07, global = -4.57882e-21, cumulative = 6.04029e-20
[OGL LOG] init_preconditioner : 0 ms
[OGL LOG] solve : 119 ms
BJcudaGKOCG:  Solving for p, Initial residual = 0.00902455, Final residual = 9.6842e-07, No Iterations 391
linear solve p 124061
time step continuity errors : sum local = 3.63446e-07, global = 1.40303e-20, cumulative = 7.44332e-20
ExecutionTime = 8.23 s  ClockTime = 8 s

End

