/*---------------------------------------------------------------------------*\
  =========                 |
  \\      /  F ield         | OpenFOAM: The Open Source CFD Toolbox
   \\    /   O peration     | Website:  https://openfoam.org
    \\  /    A nd           | Version:  8
     \\/     M anipulation  |
\*---------------------------------------------------------------------------*/
Build  : 8-ef60d22ea792
Exec   : icoFoam
Date   : Sep 15 2021
Time   : 14:46:27
Host   : "uc2n482.localdomain"
PID    : 3654063
I/O    : uncollated
Case   : /pfs/data5/home/kit/scc/nq7776/data/code/OBR/lidDrivenCavity3D/Variation_init/100/Variation_mesh/85/Variation_matrix_solver/CG_BJ_CUDA/Variation_maxBlockSize/8/1631709962
nProcs : 1
sigFpe : Enabling floating point exception trapping (FOAM_SIGFPE).
fileModificationChecking : Monitoring run-time modified files using timeStampMaster (fileModificationSkew 10)
allowSystemOperations : Allowing user-supplied system call operations

// * * * * * * * * * * * * * * * * * * * * * * * * * * * * * * * * * * * * * //
Create time

Create mesh for time = 0

Reading transportProperties

Reading field p

Reading field U

Reading/calculating face flux field phi


Starting time loop

Time = 0.00117647

Courant Number mean: 0.17078 max: 0.958539
DILUPBiCGStab:  Solving for Ux, Initial residual = 0.08035, Final residual = 0.000200532, No Iterations 5
DILUPBiCGStab:  Solving for Uy, Initial residual = 0.159613, Final residual = 0.00056519, No Iterations 5
DILUPBiCGStab:  Solving for Uz, Initial residual = 0.222246, Final residual = 0.000790216, No Iterations 5
linear solve U 664546
[OGL LOG] init_host_sparsity_pattern : 180 ms
[OGL LOG] matrix not stored update host matrix
[OGL LOG] update_host_mtx : 100 ms
[OGL LOG] matrix is not yet sorted, compute sorting idxs
[OGL LOG] compute_sort : 5755 ms
[OGL LOG] matrix is not yet sorted, sorting host matrix
[OGL LOG] sort_host_mtx_sparsity_pattern : 125 ms
[OGL LOG] sort_host_mtx : 76 ms
[OGL LOG] init_preconditioner : 67 ms
[OGL LOG] solve : 493 ms
BJcudaGKOCG:  Solving for p, Initial residual = 0.643964, Final residual = 9.98031e-07, No Iterations 590
linear solve p 7615668
time step continuity errors : sum local = 8.01009e-10, global = -1.19981e-20, cumulative = -1.19981e-20
[OGL LOG] init_preconditioner : 0 ms
[OGL LOG] solve : 492 ms
BJcudaGKOCG:  Solving for p, Initial residual = 0.369996, Final residual = 9.97549e-07, No Iterations 590
linear solve p 511616
time step continuity errors : sum local = 7.11668e-10, global = 1.1016e-20, cumulative = -9.82112e-22
ExecutionTime = 12 s  ClockTime = 12 s

Time = 0.00235294

Courant Number mean: 0.17242 max: 0.959521
DILUPBiCGStab:  Solving for Ux, Initial residual = 0.00668669, Final residual = 4.22369e-05, No Iterations 5
DILUPBiCGStab:  Solving for Uy, Initial residual = 0.0171906, Final residual = 0.000144526, No Iterations 5
DILUPBiCGStab:  Solving for Uz, Initial residual = 0.0433629, Final residual = 0.000582259, No Iterations 5
linear solve U 622337
[OGL LOG] init_preconditioner : 0 ms
[OGL LOG] solve : 498 ms
BJcudaGKOCG:  Solving for p, Initial residual = 0.435511, Final residual = 9.80864e-07, No Iterations 598
linear solve p 518464
time step continuity errors : sum local = 8.12426e-08, global = 2.6128e-21, cumulative = 1.63069e-21
[OGL LOG] init_preconditioner : 0 ms
[OGL LOG] solve : 500 ms
BJcudaGKOCG:  Solving for p, Initial residual = 0.303854, Final residual = 9.81257e-07, No Iterations 597
linear solve p 519324
time step continuity errors : sum local = 7.01985e-08, global = 9.0736e-21, cumulative = 1.07043e-20
ExecutionTime = 14.03 s  ClockTime = 14 s

Time = 0.00352941

Courant Number mean: 0.173894 max: 0.959456
DILUPBiCGStab:  Solving for Ux, Initial residual = 0.00333714, Final residual = 3.14696e-05, No Iterations 5
DILUPBiCGStab:  Solving for Uy, Initial residual = 0.0094561, Final residual = 8.96579e-05, No Iterations 5
DILUPBiCGStab:  Solving for Uz, Initial residual = 0.0306857, Final residual = 0.000410325, No Iterations 5
linear solve U 604100
[OGL LOG] init_preconditioner : 0 ms
[OGL LOG] solve : 492 ms
BJcudaGKOCG:  Solving for p, Initial residual = 0.299931, Final residual = 9.79859e-07, No Iterations 583
linear solve p 512397
time step continuity errors : sum local = 6.82774e-08, global = 1.06187e-20, cumulative = 2.1323e-20
[OGL LOG] init_preconditioner : 0 ms
[OGL LOG] solve : 493 ms
BJcudaGKOCG:  Solving for p, Initial residual = 0.215688, Final residual = 9.51988e-07, No Iterations 582
linear solve p 512930
time step continuity errors : sum local = 6.84463e-08, global = -1.22072e-20, cumulative = 9.11582e-21
ExecutionTime = 16.05 s  ClockTime = 16 s

Time = 0.00470588

Courant Number mean: 0.175264 max: 0.959792
DILUPBiCGStab:  Solving for Ux, Initial residual = 0.0024873, Final residual = 2.07235e-05, No Iterations 5
DILUPBiCGStab:  Solving for Uy, Initial residual = 0.00741667, Final residual = 5.77341e-05, No Iterations 5
DILUPBiCGStab:  Solving for Uz, Initial residual = 0.02485, Final residual = 0.000346952, No Iterations 5
linear solve U 606041
[OGL LOG] init_preconditioner : 0 ms
[OGL LOG] solve : 489 ms
BJcudaGKOCG:  Solving for p, Initial residual = 0.231305, Final residual = 9.51122e-07, No Iterations 579
linear solve p 508317
time step continuity errors : sum local = 6.99136e-08, global = -5.4302e-21, cumulative = 3.68563e-21
[OGL LOG] init_preconditioner : 0 ms
[OGL LOG] solve : 484 ms
BJcudaGKOCG:  Solving for p, Initial residual = 0.174242, Final residual = 9.9069e-07, No Iterations 577
linear solve p 505611
time step continuity errors : sum local = 6.9184e-08, global = -1.35999e-20, cumulative = -9.91432e-21
ExecutionTime = 18.04 s  ClockTime = 18 s

Time = 0.00588235

Courant Number mean: 0.176537 max: 0.960088
DILUPBiCGStab:  Solving for Ux, Initial residual = 0.00205612, Final residual = 1.5029e-05, No Iterations 5
DILUPBiCGStab:  Solving for Uy, Initial residual = 0.0059711, Final residual = 3.61321e-05, No Iterations 5
DILUPBiCGStab:  Solving for Uz, Initial residual = 0.0198551, Final residual = 0.000272449, No Iterations 5
linear solve U 616429
[OGL LOG] init_preconditioner : 0 ms
[OGL LOG] solve : 482 ms
BJcudaGKOCG:  Solving for p, Initial residual = 0.174288, Final residual = 9.94461e-07, No Iterations 576
linear solve p 502561
time step continuity errors : sum local = 6.92256e-08, global = -5.70679e-22, cumulative = -1.0485e-20
[OGL LOG] init_preconditioner : 0 ms
[OGL LOG] solve : 477 ms
BJcudaGKOCG:  Solving for p, Initial residual = 0.135155, Final residual = 9.94604e-07, No Iterations 575
linear solve p 496910
time step continuity errors : sum local = 6.88031e-08, global = 1.90153e-20, cumulative = 8.53035e-21
ExecutionTime = 20.03 s  ClockTime = 20 s

Time = 0.00705882

Courant Number mean: 0.177704 max: 0.960428
DILUPBiCGStab:  Solving for Ux, Initial residual = 0.00174906, Final residual = 1.21877e-05, No Iterations 5
DILUPBiCGStab:  Solving for Uy, Initial residual = 0.0051241, Final residual = 2.67724e-05, No Iterations 5
DILUPBiCGStab:  Solving for Uz, Initial residual = 0.0165776, Final residual = 0.000216549, No Iterations 5
linear solve U 609660
[OGL LOG] init_preconditioner : 0 ms
[OGL LOG] solve : 473 ms
BJcudaGKOCG:  Solving for p, Initial residual = 0.141169, Final residual = 9.77568e-07, No Iterations 565
linear solve p 492566
time step continuity errors : sum local = 6.89608e-08, global = -2.26157e-20, cumulative = -1.40854e-20
[OGL LOG] init_preconditioner : 0 ms
[OGL LOG] solve : 465 ms
BJcudaGKOCG:  Solving for p, Initial residual = 0.112335, Final residual = 9.80119e-07, No Iterations 563
linear solve p 485047
time step continuity errors : sum local = 6.89857e-08, global = 3.89761e-20, cumulative = 2.48907e-20
ExecutionTime = 21.97 s  ClockTime = 22 s

Time = 0.00823529

Courant Number mean: 0.178771 max: 0.960686
DILUPBiCGStab:  Solving for Ux, Initial residual = 0.00151465, Final residual = 9.78435e-06, No Iterations 5
DILUPBiCGStab:  Solving for Uy, Initial residual = 0.00444478, Final residual = 2.00467e-05, No Iterations 5
DILUPBiCGStab:  Solving for Uz, Initial residual = 0.0136239, Final residual = 0.000161978, No Iterations 5
linear solve U 618044
[OGL LOG] init_preconditioner : 0 ms
[OGL LOG] solve : 476 ms
BJcudaGKOCG:  Solving for p, Initial residual = 0.11392, Final residual = 9.96285e-07, No Iterations 565
linear solve p 496231
time step continuity errors : sum local = 6.9161e-08, global = -1.5996e-20, cumulative = 8.89468e-21
[OGL LOG] init_preconditioner : 0 ms
[OGL LOG] solve : 480 ms
BJcudaGKOCG:  Solving for p, Initial residual = 0.0918221, Final residual = 9.7456e-07, No Iterations 563
linear solve p 499677
time step continuity errors : sum local = 6.88688e-08, global = -7.00157e-21, cumulative = 1.89312e-21
ExecutionTime = 23.96 s  ClockTime = 24 s

Time = 0.00941176

Courant Number mean: 0.179753 max: 0.960953
DILUPBiCGStab:  Solving for Ux, Initial residual = 0.001345, Final residual = 8.39636e-06, No Iterations 5
DILUPBiCGStab:  Solving for Uy, Initial residual = 0.00391835, Final residual = 1.64921e-05, No Iterations 5
DILUPBiCGStab:  Solving for Uz, Initial residual = 0.0115646, Final residual = 0.000123232, No Iterations 5
linear solve U 605718
[OGL LOG] init_preconditioner : 0 ms
[OGL LOG] solve : 476 ms
BJcudaGKOCG:  Solving for p, Initial residual = 0.0945187, Final residual = 9.93961e-07, No Iterations 559
linear solve p 495653
time step continuity errors : sum local = 6.8872e-08, global = 4.89049e-21, cumulative = 6.78361e-21
[OGL LOG] init_preconditioner : 0 ms
[OGL LOG] solve : 474 ms
BJcudaGKOCG:  Solving for p, Initial residual = 0.0771012, Final residual = 9.61353e-07, No Iterations 558
linear solve p 494348
time step continuity errors : sum local = 6.89229e-08, global = 3.57499e-20, cumulative = 4.25336e-20
ExecutionTime = 25.92 s  ClockTime = 26 s

Time = 0.0105882

Courant Number mean: 0.180649 max: 0.961168
DILUPBiCGStab:  Solving for Ux, Initial residual = 0.00118528, Final residual = 6.93727e-06, No Iterations 5
DILUPBiCGStab:  Solving for Uy, Initial residual = 0.00349481, Final residual = 1.38683e-05, No Iterations 5
DILUPBiCGStab:  Solving for Uz, Initial residual = 0.00963834, Final residual = 8.71514e-05, No Iterations 5
linear solve U 617052
[OGL LOG] init_preconditioner : 0 ms
[OGL LOG] solve : 468 ms
BJcudaGKOCG:  Solving for p, Initial residual = 0.0787021, Final residual = 9.58309e-07, No Iterations 551
linear solve p 487789
time step continuity errors : sum local = 6.90468e-08, global = -2.17606e-20, cumulative = 2.07729e-20
[OGL LOG] init_preconditioner : 0 ms
[OGL LOG] solve : 470 ms
BJcudaGKOCG:  Solving for p, Initial residual = 0.0645008, Final residual = 9.53354e-07, No Iterations 551
linear solve p 490052
time step continuity errors : sum local = 6.88828e-08, global = -2.21278e-21, cumulative = 1.85602e-20
ExecutionTime = 27.88 s  ClockTime = 28 s

Time = 0.0117647

Courant Number mean: 0.181477 max: 0.961382
DILUPBiCGStab:  Solving for Ux, Initial residual = 0.00107352, Final residual = 6.12234e-06, No Iterations 5
DILUPBiCGStab:  Solving for Uy, Initial residual = 0.00312574, Final residual = 1.24597e-05, No Iterations 5
DILUPBiCGStab:  Solving for Uz, Initial residual = 0.00836293, Final residual = 6.59498e-05, No Iterations 5
linear solve U 612987
[OGL LOG] init_preconditioner : 0 ms
[OGL LOG] solve : 470 ms
BJcudaGKOCG:  Solving for p, Initial residual = 0.0658936, Final residual = 9.89675e-07, No Iterations 553
linear solve p 489808
time step continuity errors : sum local = 6.88689e-08, global = 1.58432e-20, cumulative = 3.44034e-20
[OGL LOG] init_preconditioner : 0 ms
[OGL LOG] solve : 470 ms
BJcudaGKOCG:  Solving for p, Initial residual = 0.0542656, Final residual = 9.63928e-07, No Iterations 552
linear solve p 489589
time step continuity errors : sum local = 6.89022e-08, global = 1.64751e-20, cumulative = 5.08785e-20
ExecutionTime = 29.84 s  ClockTime = 30 s

End

