/*---------------------------------------------------------------------------*\
  =========                 |
  \\      /  F ield         | OpenFOAM: The Open Source CFD Toolbox
   \\    /   O peration     | Website:  https://openfoam.org
    \\  /    A nd           | Version:  8
     \\/     M anipulation  |
\*---------------------------------------------------------------------------*/
Build  : 8-ef60d22ea792
Exec   : icoFoam
Date   : Sep 15 2021
Time   : 14:10:25
Host   : "uc2n482.localdomain"
PID    : 3641928
I/O    : uncollated
Case   : /pfs/data5/home/kit/scc/nq7776/data/code/OBR/lidDrivenCavity3D/Variation_init/100/Variation_mesh/70/Variation_matrix_solver/CG_ILU_CUDA/1631707809
nProcs : 1
sigFpe : Enabling floating point exception trapping (FOAM_SIGFPE).
fileModificationChecking : Monitoring run-time modified files using timeStampMaster (fileModificationSkew 10)
allowSystemOperations : Allowing user-supplied system call operations

// * * * * * * * * * * * * * * * * * * * * * * * * * * * * * * * * * * * * * //
Create time

Create mesh for time = 0

Reading transportProperties

Reading field p

Reading field U

Reading/calculating face flux field phi


Starting time loop

Time = 0.00142857

Courant Number mean: 0.170837 max: 0.954853
DILUPBiCGStab:  Solving for Ux, Initial residual = 0.123158, Final residual = 4.78684e-05, No Iterations 5
DILUPBiCGStab:  Solving for Uy, Initial residual = 0.240191, Final residual = 8.17702e-05, No Iterations 5
DILUPBiCGStab:  Solving for Uz, Initial residual = 0.328596, Final residual = 0.000523545, No Iterations 5
linear solve U 372376
[OGL LOG] init_host_sparsity_pattern : 98 ms
[OGL LOG] matrix not stored update host matrix
[OGL LOG] update_host_mtx : 54 ms
[OGL LOG] matrix is not yet sorted, compute sorting idxs
[OGL LOG] compute_sort : 3098 ms
[OGL LOG] matrix is not yet sorted, sorting host matrix
[OGL LOG] sort_host_mtx_sparsity_pattern : 69 ms
[OGL LOG] sort_host_mtx : 38 ms
[OGL LOG] init_preconditioner : 124 ms
[OGL LOG] solve : 548 ms
ILUcudaGKOCG:  Solving for p, Initial residual = 0.567453, Final residual = 8.03832e-07, No Iterations 182
linear solve p 4808277
time step continuity errors : sum local = 9.66351e-10, global = 2.34367e-20, cumulative = 2.34367e-20
[OGL LOG] init_preconditioner : 0 ms
[OGL LOG] solve : 554 ms
ILUcudaGKOCG:  Solving for p, Initial residual = 0.279391, Final residual = 8.47879e-07, No Iterations 183
linear solve p 566603
time step continuity errors : sum local = 6.03738e-10, global = 3.60673e-20, cumulative = 5.9504e-20
ExecutionTime = 7.55 s  ClockTime = 7 s

Time = 0.00285714

Courant Number mean: 0.172875 max: 0.950141
DILUPBiCGStab:  Solving for Ux, Initial residual = 0.0060537, Final residual = 2.356e-05, No Iterations 5
DILUPBiCGStab:  Solving for Uy, Initial residual = 0.0139616, Final residual = 4.53085e-05, No Iterations 5
DILUPBiCGStab:  Solving for Uz, Initial residual = 0.0507756, Final residual = 0.000286295, No Iterations 5
linear solve U 340015
[OGL LOG] init_preconditioner : 0 ms
[OGL LOG] solve : 555 ms
ILUcudaGKOCG:  Solving for p, Initial residual = 0.261249, Final residual = 7.90345e-07, No Iterations 182
linear solve p 566196
time step continuity errors : sum local = 2.11602e-07, global = 2.54214e-20, cumulative = 8.49254e-20
[OGL LOG] init_preconditioner : 0 ms
[OGL LOG] solve : 552 ms
ILUcudaGKOCG:  Solving for p, Initial residual = 0.183725, Final residual = 9.08967e-07, No Iterations 181
linear solve p 564031
time step continuity errors : sum local = 2.07432e-07, global = -1.40483e-20, cumulative = 7.08771e-20
ExecutionTime = 9.22 s  ClockTime = 9 s

Time = 0.00428571

Courant Number mean: 0.17465 max: 0.951231
DILUPBiCGStab:  Solving for Ux, Initial residual = 0.00280721, Final residual = 1.28905e-05, No Iterations 5
DILUPBiCGStab:  Solving for Uy, Initial residual = 0.00743888, Final residual = 2.49756e-05, No Iterations 5
DILUPBiCGStab:  Solving for Uz, Initial residual = 0.0269125, Final residual = 0.000161773, No Iterations 5
linear solve U 336537
[OGL LOG] init_preconditioner : 0 ms
[OGL LOG] solve : 549 ms
ILUcudaGKOCG:  Solving for p, Initial residual = 0.167741, Final residual = 9.31109e-07, No Iterations 180
linear solve p 559712
time step continuity errors : sum local = 2.07203e-07, global = -4.50666e-22, cumulative = 7.04265e-20
[OGL LOG] init_preconditioner : 0 ms
[OGL LOG] solve : 547 ms
ILUcudaGKOCG:  Solving for p, Initial residual = 0.122038, Final residual = 7.80212e-07, No Iterations 180
linear solve p 557669
time step continuity errors : sum local = 2.06995e-07, global = -3.12385e-20, cumulative = 3.9188e-20
ExecutionTime = 10.88 s  ClockTime = 11 s

Time = 0.00571429

Courant Number mean: 0.176201 max: 0.951516
DILUPBiCGStab:  Solving for Ux, Initial residual = 0.00217509, Final residual = 7.97241e-06, No Iterations 5
DILUPBiCGStab:  Solving for Uy, Initial residual = 0.00611261, Final residual = 1.44616e-05, No Iterations 5
DILUPBiCGStab:  Solving for Uz, Initial residual = 0.0192778, Final residual = 8.86755e-05, No Iterations 5
linear solve U 339333
[OGL LOG] init_preconditioner : 0 ms
[OGL LOG] solve : 544 ms
ILUcudaGKOCG:  Solving for p, Initial residual = 0.120391, Final residual = 9.57798e-07, No Iterations 178
linear solve p 555746
time step continuity errors : sum local = 2.07265e-07, global = 2.44426e-20, cumulative = 6.36305e-20
[OGL LOG] init_preconditioner : 0 ms
[OGL LOG] solve : 542 ms
ILUcudaGKOCG:  Solving for p, Initial residual = 0.0892146, Final residual = 8.7198e-07, No Iterations 178
linear solve p 553224
time step continuity errors : sum local = 2.06967e-07, global = 4.91305e-21, cumulative = 6.85436e-20
ExecutionTime = 12.53 s  ClockTime = 12 s

Time = 0.00714286

Courant Number mean: 0.177607 max: 0.951995
DILUPBiCGStab:  Solving for Ux, Initial residual = 0.00184423, Final residual = 6.05737e-06, No Iterations 5
DILUPBiCGStab:  Solving for Uy, Initial residual = 0.00509688, Final residual = 1.21899e-05, No Iterations 5
DILUPBiCGStab:  Solving for Uz, Initial residual = 0.0137055, Final residual = 5.49571e-05, No Iterations 5
linear solve U 341759
[OGL LOG] init_preconditioner : 0 ms
[OGL LOG] solve : 539 ms
ILUcudaGKOCG:  Solving for p, Initial residual = 0.0867884, Final residual = 9.34757e-07, No Iterations 177
linear solve p 550091
time step continuity errors : sum local = 2.07163e-07, global = -1.39834e-20, cumulative = 5.45602e-20
[OGL LOG] init_preconditioner : 0 ms
[OGL LOG] solve : 540 ms
ILUcudaGKOCG:  Solving for p, Initial residual = 0.0641273, Final residual = 8.23702e-07, No Iterations 177
linear solve p 551377
time step continuity errors : sum local = 2.07014e-07, global = -5.86117e-22, cumulative = 5.39741e-20
ExecutionTime = 14.17 s  ClockTime = 14 s

Time = 0.00857143

Courant Number mean: 0.178874 max: 0.952386
DILUPBiCGStab:  Solving for Ux, Initial residual = 0.00157905, Final residual = 4.2911e-06, No Iterations 5
DILUPBiCGStab:  Solving for Uy, Initial residual = 0.0044363, Final residual = 9.91257e-06, No Iterations 5
DILUPBiCGStab:  Solving for Uz, Initial residual = 0.0114958, Final residual = 3.87764e-05, No Iterations 5
linear solve U 355026
[OGL LOG] init_preconditioner : 0 ms
[OGL LOG] solve : 522 ms
ILUcudaGKOCG:  Solving for p, Initial residual = 0.0636321, Final residual = 9.89364e-07, No Iterations 171
linear solve p 532788
time step continuity errors : sum local = 2.06978e-07, global = 2.61278e-20, cumulative = 8.01019e-20
[OGL LOG] init_preconditioner : 0 ms
[OGL LOG] solve : 516 ms
ILUcudaGKOCG:  Solving for p, Initial residual = 0.0474807, Final residual = 9.85557e-07, No Iterations 170
linear solve p 526790
time step continuity errors : sum local = 2.07002e-07, global = -2.97178e-20, cumulative = 5.03841e-20
ExecutionTime = 15.79 s  ClockTime = 16 s

Time = 0.01

Courant Number mean: 0.180014 max: 0.952713
DILUPBiCGStab:  Solving for Ux, Initial residual = 0.00137777, Final residual = 3.00481e-06, No Iterations 5
DILUPBiCGStab:  Solving for Uy, Initial residual = 0.0038706, Final residual = 8.11104e-06, No Iterations 5
DILUPBiCGStab:  Solving for Uz, Initial residual = 0.00901982, Final residual = 3.06625e-05, No Iterations 5
linear solve U 341183
[OGL LOG] init_preconditioner : 0 ms
[OGL LOG] solve : 528 ms
ILUcudaGKOCG:  Solving for p, Initial residual = 0.0474038, Final residual = 8.79115e-07, No Iterations 174
linear solve p 539385
time step continuity errors : sum local = 2.07056e-07, global = -7.01324e-21, cumulative = 4.33708e-20
[OGL LOG] init_preconditioner : 0 ms
[OGL LOG] solve : 531 ms
ILUcudaGKOCG:  Solving for p, Initial residual = 0.0355036, Final residual = 7.71184e-07, No Iterations 174
linear solve p 542553
time step continuity errors : sum local = 2.06971e-07, global = 1.83787e-20, cumulative = 6.17495e-20
ExecutionTime = 17.41 s  ClockTime = 17 s

Time = 0.0114286

Courant Number mean: 0.181045 max: 0.953038
DILUPBiCGStab:  Solving for Ux, Initial residual = 0.00121485, Final residual = 2.0108e-06, No Iterations 5
DILUPBiCGStab:  Solving for Uy, Initial residual = 0.00345408, Final residual = 6.14402e-06, No Iterations 5
DILUPBiCGStab:  Solving for Uz, Initial residual = 0.00785773, Final residual = 2.31934e-05, No Iterations 5
linear solve U 344456
[OGL LOG] init_preconditioner : 0 ms
[OGL LOG] solve : 524 ms
ILUcudaGKOCG:  Solving for p, Initial residual = 0.0350942, Final residual = 9.37486e-07, No Iterations 172
linear solve p 535590
time step continuity errors : sum local = 2.06933e-07, global = -3.83059e-20, cumulative = 2.34436e-20
[OGL LOG] init_preconditioner : 0 ms
[OGL LOG] solve : 523 ms
ILUcudaGKOCG:  Solving for p, Initial residual = 0.0265494, Final residual = 9.03082e-07, No Iterations 172
linear solve p 534593
time step continuity errors : sum local = 2.06971e-07, global = 1.10335e-20, cumulative = 3.44771e-20
ExecutionTime = 19.02 s  ClockTime = 19 s

Time = 0.0128571

Courant Number mean: 0.181976 max: 0.953292
DILUPBiCGStab:  Solving for Ux, Initial residual = 0.00107674, Final residual = 1.45087e-06, No Iterations 5
DILUPBiCGStab:  Solving for Uy, Initial residual = 0.00306253, Final residual = 4.45627e-06, No Iterations 5
DILUPBiCGStab:  Solving for Uz, Initial residual = 0.00653144, Final residual = 2.11617e-05, No Iterations 5
linear solve U 342120
[OGL LOG] init_preconditioner : 0 ms
[OGL LOG] solve : 524 ms
ILUcudaGKOCG:  Solving for p, Initial residual = 0.0268317, Final residual = 8.32697e-07, No Iterations 172
linear solve p 535526
time step continuity errors : sum local = 2.06994e-07, global = 3.45189e-20, cumulative = 6.89961e-20
[OGL LOG] init_preconditioner : 0 ms
[OGL LOG] solve : 518 ms
ILUcudaGKOCG:  Solving for p, Initial residual = 0.0204002, Final residual = 9.39227e-07, No Iterations 171
linear solve p 529590
time step continuity errors : sum local = 2.07003e-07, global = 1.13847e-20, cumulative = 8.03807e-20
ExecutionTime = 20.62 s  ClockTime = 20 s

Time = 0.0142857

Courant Number mean: 0.182821 max: 0.953549
DILUPBiCGStab:  Solving for Ux, Initial residual = 0.00096311, Final residual = 1.08089e-06, No Iterations 5
DILUPBiCGStab:  Solving for Uy, Initial residual = 0.0027721, Final residual = 3.39796e-06, No Iterations 5
DILUPBiCGStab:  Solving for Uz, Initial residual = 0.00580631, Final residual = 1.56306e-05, No Iterations 5
linear solve U 337382
[OGL LOG] init_preconditioner : 0 ms
[OGL LOG] solve : 520 ms
ILUcudaGKOCG:  Solving for p, Initial residual = 0.0200685, Final residual = 9.13139e-07, No Iterations 170
linear solve p 532695
time step continuity errors : sum local = 2.06934e-07, global = 1.20104e-20, cumulative = 9.23912e-20
[OGL LOG] init_preconditioner : 0 ms
[OGL LOG] solve : 514 ms
ILUcudaGKOCG:  Solving for p, Initial residual = 0.0154264, Final residual = 9.69778e-07, No Iterations 169
linear solve p 525365
time step continuity errors : sum local = 2.07001e-07, global = -2.3342e-20, cumulative = 6.90492e-20
ExecutionTime = 22.24 s  ClockTime = 22 s

End

