/*---------------------------------------------------------------------------*\
  =========                 |
  \\      /  F ield         | OpenFOAM: The Open Source CFD Toolbox
   \\    /   O peration     | Website:  https://openfoam.org
    \\  /    A nd           | Version:  8
     \\/     M anipulation  |
\*---------------------------------------------------------------------------*/
Build  : 8-ef60d22ea792
Exec   : icoFoam
Date   : Sep 15 2021
Time   : 13:25:54
Host   : "uc2n438.localdomain"
PID    : 3541621
I/O    : uncollated
Case   : /pfs/data5/home/kit/scc/nq7776/data/code/OBR/lidDrivenCavity3D/Variation_init/100/Variation_mesh/75/Variation_matrix_solver/CG_NoPrecond_Serial/1631705135
nProcs : 1
sigFpe : Enabling floating point exception trapping (FOAM_SIGFPE).
fileModificationChecking : Monitoring run-time modified files using timeStampMaster (fileModificationSkew 10)
allowSystemOperations : Allowing user-supplied system call operations

// * * * * * * * * * * * * * * * * * * * * * * * * * * * * * * * * * * * * * //
Create time

Create mesh for time = 0

Reading transportProperties

Reading field p

Reading field U

Reading/calculating face flux field phi


Starting time loop

Time = 0.00133333

Courant Number mean: 0.170873 max: 0.955248
DILUPBiCGStab:  Solving for Ux, Initial residual = 0.150945, Final residual = 8.53015e-05, No Iterations 5
DILUPBiCGStab:  Solving for Uy, Initial residual = 0.292287, Final residual = 0.000196272, No Iterations 5
DILUPBiCGStab:  Solving for Uz, Initial residual = 0.443155, Final residual = 0.000590488, No Iterations 5
linear solve U 430941
nonePCG:  Solving for p, Initial residual = 0.621595, Final residual = 9.63335e-07, No Iterations 616
linear solve p 3259915
time step continuity errors : sum local = 1.17281e-09, global = 1.91353e-21, cumulative = 1.91353e-21
nonePCG:  Solving for p, Initial residual = 0.292224, Final residual = 9.47581e-07, No Iterations 619
linear solve p 3270946
time step continuity errors : sum local = 6.59227e-10, global = 2.57411e-20, cumulative = 2.76547e-20
ExecutionTime = 9.16 s  ClockTime = 10 s

Time = 0.00266667

Courant Number mean: 0.172833 max: 0.953296
DILUPBiCGStab:  Solving for Ux, Initial residual = 0.00633141, Final residual = 3.0255e-05, No Iterations 5
DILUPBiCGStab:  Solving for Uy, Initial residual = 0.015214, Final residual = 6.99149e-05, No Iterations 5
DILUPBiCGStab:  Solving for Uz, Initial residual = 0.076168, Final residual = 0.000480834, No Iterations 5
linear solve U 402501
nonePCG:  Solving for p, Initial residual = 0.3061, Final residual = 9.96072e-07, No Iterations 621
linear solve p 3293786
time step continuity errors : sum local = 6.30671e-10, global = 1.88154e-20, cumulative = 4.64701e-20
nonePCG:  Solving for p, Initial residual = 0.226024, Final residual = 9.88552e-07, No Iterations 619
linear solve p 3297325
time step continuity errors : sum local = 5.88756e-10, global = -3.88088e-20, cumulative = 7.66134e-21
ExecutionTime = 16.37 s  ClockTime = 17 s

Time = 0.004

Courant Number mean: 0.174523 max: 0.954278
DILUPBiCGStab:  Solving for Ux, Initial residual = 0.00265337, Final residual = 1.63434e-05, No Iterations 5
DILUPBiCGStab:  Solving for Uy, Initial residual = 0.00797265, Final residual = 4.00541e-05, No Iterations 5
DILUPBiCGStab:  Solving for Uz, Initial residual = 0.0352937, Final residual = 0.000275924, No Iterations 5
linear solve U 394233
nonePCG:  Solving for p, Initial residual = 0.192308, Final residual = 9.5433e-07, No Iterations 612
linear solve p 3260681
time step continuity errors : sum local = 5.53298e-10, global = 7.9496e-21, cumulative = 1.56109e-20
nonePCG:  Solving for p, Initial residual = 0.148951, Final residual = 9.68318e-07, No Iterations 609
linear solve p 3237780
time step continuity errors : sum local = 5.62664e-10, global = 5.63331e-21, cumulative = 2.12442e-20
ExecutionTime = 23.48 s  ClockTime = 24 s

Time = 0.00533333

Courant Number mean: 0.176005 max: 0.954647
DILUPBiCGStab:  Solving for Ux, Initial residual = 0.00207789, Final residual = 1.18166e-05, No Iterations 5
DILUPBiCGStab:  Solving for Uy, Initial residual = 0.00644362, Final residual = 2.452e-05, No Iterations 5
DILUPBiCGStab:  Solving for Uz, Initial residual = 0.0233944, Final residual = 0.000159839, No Iterations 5
linear solve U 398413
nonePCG:  Solving for p, Initial residual = 0.142974, Final residual = 9.45814e-07, No Iterations 607
linear solve p 3228281
time step continuity errors : sum local = 5.1297e-10, global = 3.77974e-22, cumulative = 2.16222e-20
nonePCG:  Solving for p, Initial residual = 0.114365, Final residual = 9.68495e-07, No Iterations 605
linear solve p 3204801
time step continuity errors : sum local = 5.20522e-10, global = -2.03527e-20, cumulative = 1.26954e-21
ExecutionTime = 30.52 s  ClockTime = 31 s

Time = 0.00666667

Courant Number mean: 0.177347 max: 0.955032
DILUPBiCGStab:  Solving for Ux, Initial residual = 0.00176722, Final residual = 9.59525e-06, No Iterations 5
DILUPBiCGStab:  Solving for Uy, Initial residual = 0.00540515, Final residual = 1.95381e-05, No Iterations 5
DILUPBiCGStab:  Solving for Uz, Initial residual = 0.0162633, Final residual = 0.000102884, No Iterations 5
linear solve U 392953
nonePCG:  Solving for p, Initial residual = 0.108083, Final residual = 9.59245e-07, No Iterations 600
linear solve p 3218402
time step continuity errors : sum local = 5.15688e-10, global = -1.70368e-20, cumulative = -1.57672e-20
nonePCG:  Solving for p, Initial residual = 0.0863167, Final residual = 9.80095e-07, No Iterations 597
linear solve p 3164507
time step continuity errors : sum local = 5.28231e-10, global = 1.61209e-20, cumulative = 3.53703e-22
ExecutionTime = 37.52 s  ClockTime = 38 s

Time = 0.008

Courant Number mean: 0.178568 max: 0.955457
DILUPBiCGStab:  Solving for Ux, Initial residual = 0.00153484, Final residual = 7.80211e-06, No Iterations 5
DILUPBiCGStab:  Solving for Uy, Initial residual = 0.00468747, Final residual = 1.38532e-05, No Iterations 5
DILUPBiCGStab:  Solving for Uz, Initial residual = 0.0134867, Final residual = 6.7024e-05, No Iterations 5
linear solve U 391790
nonePCG:  Solving for p, Initial residual = 0.0849214, Final residual = 9.58764e-07, No Iterations 597
linear solve p 3155222
time step continuity errors : sum local = 5.01337e-10, global = -8.79218e-21, cumulative = -8.43848e-21
nonePCG:  Solving for p, Initial residual = 0.0685479, Final residual = 9.59067e-07, No Iterations 595
linear solve p 3144303
time step continuity errors : sum local = 4.99863e-10, global = -2.23747e-20, cumulative = -3.08132e-20
ExecutionTime = 44.42 s  ClockTime = 45 s

Time = 0.00933333

Courant Number mean: 0.17967 max: 0.955718
DILUPBiCGStab:  Solving for Ux, Initial residual = 0.00135004, Final residual = 6.53985e-06, No Iterations 5
DILUPBiCGStab:  Solving for Uy, Initial residual = 0.00411449, Final residual = 1.15716e-05, No Iterations 5
DILUPBiCGStab:  Solving for Uz, Initial residual = 0.0103842, Final residual = 4.52391e-05, No Iterations 5
linear solve U 396197
nonePCG:  Solving for p, Initial residual = 0.0672337, Final residual = 9.63957e-07, No Iterations 592
linear solve p 3130245
time step continuity errors : sum local = 5.02065e-10, global = -1.0675e-20, cumulative = -4.14883e-20
nonePCG:  Solving for p, Initial residual = 0.0542785, Final residual = 9.55069e-07, No Iterations 591
linear solve p 3120761
time step continuity errors : sum local = 4.97912e-10, global = 4.63433e-20, cumulative = 4.85505e-21
ExecutionTime = 51.28 s  ClockTime = 52 s

Time = 0.0106667

Courant Number mean: 0.180675 max: 0.956053
DILUPBiCGStab:  Solving for Ux, Initial residual = 0.00120422, Final residual = 5.42714e-06, No Iterations 5
DILUPBiCGStab:  Solving for Uy, Initial residual = 0.00364524, Final residual = 8.93369e-06, No Iterations 5
DILUPBiCGStab:  Solving for Uz, Initial residual = 0.00897996, Final residual = 3.39996e-05, No Iterations 5
linear solve U 396646
nonePCG:  Solving for p, Initial residual = 0.0535946, Final residual = 9.71253e-07, No Iterations 350
linear solve p 1867142
time step continuity errors : sum local = 5.35515e-10, global = -2.73687e-20, cumulative = -2.25137e-20
nonePCG:  Solving for p, Initial residual = 0.043463, Final residual = 9.47661e-07, No Iterations 350
linear solve p 1860353
time step continuity errors : sum local = 5.40381e-10, global = 5.22549e-21, cumulative = -1.72882e-20
ExecutionTime = 55.63 s  ClockTime = 56 s

Time = 0.012

Courant Number mean: 0.181586 max: 0.956269
DILUPBiCGStab:  Solving for Ux, Initial residual = 0.00107259, Final residual = 4.24254e-06, No Iterations 5
DILUPBiCGStab:  Solving for Uy, Initial residual = 0.00324672, Final residual = 7.89712e-06, No Iterations 5
DILUPBiCGStab:  Solving for Uz, Initial residual = 0.00732465, Final residual = 2.66034e-05, No Iterations 5
linear solve U 396606
nonePCG:  Solving for p, Initial residual = 0.043283, Final residual = 9.38987e-07, No Iterations 584
linear solve p 3083344
time step continuity errors : sum local = 4.80962e-10, global = -7.15887e-21, cumulative = -2.4447e-20
nonePCG:  Solving for p, Initial residual = 0.0351262, Final residual = 9.53592e-07, No Iterations 582
linear solve p 3081020
time step continuity errors : sum local = 4.88643e-10, global = 1.59013e-20, cumulative = -8.54574e-21
ExecutionTime = 62.41 s  ClockTime = 63 s

Time = 0.0133333

Courant Number mean: 0.182419 max: 0.956526
DILUPBiCGStab:  Solving for Ux, Initial residual = 0.000967503, Final residual = 3.81039e-06, No Iterations 5
DILUPBiCGStab:  Solving for Uy, Initial residual = 0.00291393, Final residual = 6.3144e-06, No Iterations 5
DILUPBiCGStab:  Solving for Uz, Initial residual = 0.00649815, Final residual = 2.03919e-05, No Iterations 5
linear solve U 394947
nonePCG:  Solving for p, Initial residual = 0.0346818, Final residual = 9.61354e-07, No Iterations 582
linear solve p 3076950
time step continuity errors : sum local = 4.88717e-10, global = -3.72922e-21, cumulative = -1.2275e-20
nonePCG:  Solving for p, Initial residual = 0.028222, Final residual = 9.54794e-07, No Iterations 580
linear solve p 3065528
time step continuity errors : sum local = 4.85135e-10, global = -1.86691e-20, cumulative = -3.09441e-20
ExecutionTime = 69.16 s  ClockTime = 70 s

End

