/*---------------------------------------------------------------------------*\
  =========                 |
  \\      /  F ield         | OpenFOAM: The Open Source CFD Toolbox
   \\    /   O peration     | Website:  https://openfoam.org
    \\  /    A nd           | Version:  8
     \\/     M anipulation  |
\*---------------------------------------------------------------------------*/
Build  : 8-ef60d22ea792
Exec   : icoFoam
Date   : Sep 15 2021
Time   : 13:07:18
Host   : "uc2n482.localdomain"
PID    : 3625613
I/O    : uncollated
Case   : /pfs/data5/home/kit/scc/nq7776/data/code/OBR/lidDrivenCavity3D/Variation_init/100/Variation_mesh/5/Variation_matrix_solver/CG_BJ_CUDA/Variation_maxBlockSize/2/1631704036
nProcs : 1
sigFpe : Enabling floating point exception trapping (FOAM_SIGFPE).
fileModificationChecking : Monitoring run-time modified files using timeStampMaster (fileModificationSkew 10)
allowSystemOperations : Allowing user-supplied system call operations

// * * * * * * * * * * * * * * * * * * * * * * * * * * * * * * * * * * * * * //
Create time

Create mesh for time = 0

Reading transportProperties

Reading field p

Reading field U

Reading/calculating face flux field phi


Starting time loop

Time = 0.02

Courant Number mean: 0.144178 max: 0.344046
DILUPBiCGStab:  Solving for Ux, Initial residual = 0.270102, Final residual = 1.39043e-14, No Iterations 5
DILUPBiCGStab:  Solving for Uy, Initial residual = 0.217087, Final residual = 1.19184e-13, No Iterations 5
DILUPBiCGStab:  Solving for Uz, Initial residual = 0.216079, Final residual = 2.72531e-14, No Iterations 5
linear solve U 213
[OGL LOG] init_host_sparsity_pattern : 0 ms
[OGL LOG] matrix not stored update host matrix
[OGL LOG] update_host_mtx : 0 ms
[OGL LOG] matrix is not yet sorted, compute sorting idxs
[OGL LOG] compute_sort : 0 ms
[OGL LOG] matrix is not yet sorted, sorting host matrix
[OGL LOG] sort_host_mtx_sparsity_pattern : 0 ms
[OGL LOG] sort_host_mtx : 0 ms
[OGL LOG] init_preconditioner : 0 ms
[OGL LOG] solve : 6 ms
BJcudaGKOCG:  Solving for p, Initial residual = 0.599316, Final residual = 5.55191e-07, No Iterations 35
linear solve p 741518
time step continuity errors : sum local = 4.63441e-08, global = -3.98503e-19, cumulative = -3.98503e-19
[OGL LOG] init_preconditioner : 0 ms
[OGL LOG] solve : 4 ms
BJcudaGKOCG:  Solving for p, Initial residual = 0.288319, Final residual = 9.51581e-07, No Iterations 33
linear solve p 5158
time step continuity errors : sum local = 4.15648e-08, global = -6.9814e-20, cumulative = -4.68317e-19
ExecutionTime = 0.78 s  ClockTime = 1 s

Time = 0.04

Courant Number mean: 0.143461 max: 0.370002
DILUPBiCGStab:  Solving for Ux, Initial residual = 0.0735166, Final residual = 6.10753e-14, No Iterations 5
DILUPBiCGStab:  Solving for Uy, Initial residual = 0.0725789, Final residual = 1.60076e-13, No Iterations 5
DILUPBiCGStab:  Solving for Uz, Initial residual = 0.17473, Final residual = 2.48385e-13, No Iterations 5
linear solve U 107
[OGL LOG] init_preconditioner : 0 ms
[OGL LOG] solve : 5 ms
BJcudaGKOCG:  Solving for p, Initial residual = 0.212157, Final residual = 8.89464e-07, No Iterations 33
linear solve p 5241
time step continuity errors : sum local = 0.000264121, global = -3.13402e-19, cumulative = -7.81719e-19
[OGL LOG] init_preconditioner : 0 ms
[OGL LOG] solve : 4 ms
BJcudaGKOCG:  Solving for p, Initial residual = 0.074623, Final residual = 8.98484e-07, No Iterations 31
linear solve p 4730
time step continuity errors : sum local = 0.000237015, global = 3.62107e-19, cumulative = -4.19612e-19
ExecutionTime = 0.8 s  ClockTime = 1 s

Time = 0.06

Courant Number mean: 0.145501 max: 0.37555
DILUPBiCGStab:  Solving for Ux, Initial residual = 0.0154115, Final residual = 1.49222e-15, No Iterations 5
DILUPBiCGStab:  Solving for Uy, Initial residual = 0.0201049, Final residual = 2.28394e-14, No Iterations 5
DILUPBiCGStab:  Solving for Uz, Initial residual = 0.0978138, Final residual = 1.16481e-13, No Iterations 5
linear solve U 124
[OGL LOG] init_preconditioner : 0 ms
[OGL LOG] solve : 4 ms
BJcudaGKOCG:  Solving for p, Initial residual = 0.0170457, Final residual = 9.30942e-07, No Iterations 28
linear solve p 4456
time step continuity errors : sum local = 0.000237521, global = 7.60212e-19, cumulative = 3.406e-19
[OGL LOG] init_preconditioner : 0 ms
[OGL LOG] solve : 4 ms
BJcudaGKOCG:  Solving for p, Initial residual = 0.00365026, Final residual = 9.49187e-07, No Iterations 26
linear solve p 4156
time step continuity errors : sum local = 0.000237433, global = 8.53386e-19, cumulative = 1.19399e-18
ExecutionTime = 0.8 s  ClockTime = 1 s

Time = 0.08

Courant Number mean: 0.147029 max: 0.378253
DILUPBiCGStab:  Solving for Ux, Initial residual = 0.004788, Final residual = 3.38655e-15, No Iterations 5
DILUPBiCGStab:  Solving for Uy, Initial residual = 0.00642992, Final residual = 1.20407e-14, No Iterations 5
DILUPBiCGStab:  Solving for Uz, Initial residual = 0.0284267, Final residual = 4.43634e-14, No Iterations 5
linear solve U 99
[OGL LOG] init_preconditioner : 0 ms
[OGL LOG] solve : 3 ms
BJcudaGKOCG:  Solving for p, Initial residual = 0.00482328, Final residual = 4.96286e-07, No Iterations 26
linear solve p 4127
time step continuity errors : sum local = 0.000237953, global = -2.64698e-19, cumulative = 9.29288e-19
[OGL LOG] init_preconditioner : 0 ms
[OGL LOG] solve : 4 ms
BJcudaGKOCG:  Solving for p, Initial residual = 0.00114467, Final residual = 5.52148e-07, No Iterations 24
linear solve p 4802
time step continuity errors : sum local = 0.000237677, global = 7.61271e-19, cumulative = 1.69056e-18
ExecutionTime = 0.81 s  ClockTime = 1 s

Time = 0.1

Courant Number mean: 0.14778 max: 0.379477
DILUPBiCGStab:  Solving for Ux, Initial residual = 0.00171224, Final residual = 8.3053e-16, No Iterations 5
DILUPBiCGStab:  Solving for Uy, Initial residual = 0.00257352, Final residual = 2.28533e-15, No Iterations 5
DILUPBiCGStab:  Solving for Uz, Initial residual = 0.0107969, Final residual = 1.44832e-14, No Iterations 5
linear solve U 107
[OGL LOG] init_preconditioner : 0 ms
[OGL LOG] solve : 4 ms
BJcudaGKOCG:  Solving for p, Initial residual = 0.00160381, Final residual = 7.20817e-07, No Iterations 24
linear solve p 4302
time step continuity errors : sum local = 0.000237728, global = 1.18796e-18, cumulative = 2.87852e-18
[OGL LOG] init_preconditioner : 0 ms
[OGL LOG] solve : 3 ms
BJcudaGKOCG:  Solving for p, Initial residual = 0.000367343, Final residual = 9.3891e-07, No Iterations 22
linear solve p 3974
time step continuity errors : sum local = 0.000237676, global = 1.88465e-19, cumulative = 3.06699e-18
ExecutionTime = 0.82 s  ClockTime = 1 s

Time = 0.12

Courant Number mean: 0.148155 max: 0.380093
DILUPBiCGStab:  Solving for Ux, Initial residual = 0.000689984, Final residual = 3.07092e-16, No Iterations 5
DILUPBiCGStab:  Solving for Uy, Initial residual = 0.00109055, Final residual = 3.92475e-16, No Iterations 5
DILUPBiCGStab:  Solving for Uz, Initial residual = 0.00414611, Final residual = 4.9756e-15, No Iterations 5
linear solve U 107
[OGL LOG] init_preconditioner : 0 ms
[OGL LOG] solve : 3 ms
BJcudaGKOCG:  Solving for p, Initial residual = 0.000679502, Final residual = 8.22235e-07, No Iterations 22
linear solve p 3986
time step continuity errors : sum local = 0.000237668, global = 4.07635e-19, cumulative = 3.47462e-18
[OGL LOG] init_preconditioner : 0 ms
[OGL LOG] solve : 3 ms
BJcudaGKOCG:  Solving for p, Initial residual = 0.000161311, Final residual = 9.65183e-07, No Iterations 20
linear solve p 3668
time step continuity errors : sum local = 0.000237662, global = -1.29596e-18, cumulative = 2.17866e-18
ExecutionTime = 0.83 s  ClockTime = 1 s

Time = 0.14

Courant Number mean: 0.148339 max: 0.380409
DILUPBiCGStab:  Solving for Ux, Initial residual = 0.000300349, Final residual = 1.45258e-16, No Iterations 5
DILUPBiCGStab:  Solving for Uy, Initial residual = 0.000488836, Final residual = 2.06264e-16, No Iterations 5
DILUPBiCGStab:  Solving for Uz, Initial residual = 0.00167209, Final residual = 1.76004e-15, No Iterations 5
linear solve U 106
[OGL LOG] init_preconditioner : 0 ms
[OGL LOG] solve : 3 ms
BJcudaGKOCG:  Solving for p, Initial residual = 0.00031578, Final residual = 6.55109e-07, No Iterations 21
linear solve p 3816
time step continuity errors : sum local = 0.000237648, global = -6.58568e-19, cumulative = 1.52009e-18
[OGL LOG] init_preconditioner : 0 ms
[OGL LOG] solve : 1 ms
BJcudaGKOCG:  Solving for p, Initial residual = 7.19517e-05, Final residual = 8.85612e-07, No Iterations 9
linear solve p 1958
time step continuity errors : sum local = 0.000237666, global = 9.97381e-19, cumulative = 2.51747e-18
ExecutionTime = 0.84 s  ClockTime = 1 s

Time = 0.16

Courant Number mean: 0.148428 max: 0.380568
DILUPBiCGStab:  Solving for Ux, Initial residual = 0.000135347, Final residual = 6.7625e-17, No Iterations 5
DILUPBiCGStab:  Solving for Uy, Initial residual = 0.000229113, Final residual = 1.48188e-16, No Iterations 5
DILUPBiCGStab:  Solving for Uz, Initial residual = 0.00070888, Final residual = 6.57065e-16, No Iterations 5
linear solve U 99
[OGL LOG] init_preconditioner : 0 ms
[OGL LOG] solve : 1 ms
BJcudaGKOCG:  Solving for p, Initial residual = 0.000149191, Final residual = 5.42434e-07, No Iterations 10
linear solve p 2005
time step continuity errors : sum local = 0.000237649, global = 7.6233e-20, cumulative = 2.59371e-18
[OGL LOG] init_preconditioner : 0 ms
[OGL LOG] solve : 1 ms
BJcudaGKOCG:  Solving for p, Initial residual = 3.36052e-05, Final residual = 7.9051e-07, No Iterations 8
linear solve p 1699
time step continuity errors : sum local = 0.000237647, global = 2.49557e-18, cumulative = 5.08928e-18
ExecutionTime = 0.84 s  ClockTime = 1 s

Time = 0.18

Courant Number mean: 0.148472 max: 0.380648
DILUPBiCGStab:  Solving for Ux, Initial residual = 6.20272e-05, Final residual = 2.96209e-17, No Iterations 5
DILUPBiCGStab:  Solving for Uy, Initial residual = 0.00010862, Final residual = 7.69949e-17, No Iterations 5
DILUPBiCGStab:  Solving for Uz, Initial residual = 0.000314132, Final residual = 1.9182e-16, No Iterations 5
linear solve U 105
[OGL LOG] init_preconditioner : 0 ms
[OGL LOG] solve : 1 ms
BJcudaGKOCG:  Solving for p, Initial residual = 7.10193e-05, Final residual = 8.33211e-07, No Iterations 8
linear solve p 1676
time step continuity errors : sum local = 0.000237635, global = -3.79047e-19, cumulative = 4.71023e-18
[OGL LOG] init_preconditioner : 0 ms
[OGL LOG] solve : 1 ms
BJcudaGKOCG:  Solving for p, Initial residual = 1.57452e-05, Final residual = 7.41097e-07, No Iterations 6
linear solve p 1461
time step continuity errors : sum local = 0.000237638, global = -3.13402e-19, cumulative = 4.39683e-18
ExecutionTime = 0.84 s  ClockTime = 1 s

Time = 0.2

Courant Number mean: 0.148493 max: 0.380688
DILUPBiCGStab:  Solving for Ux, Initial residual = 2.86706e-05, Final residual = 1.14537e-17, No Iterations 5
DILUPBiCGStab:  Solving for Uy, Initial residual = 5.14883e-05, Final residual = 3.68678e-17, No Iterations 5
DILUPBiCGStab:  Solving for Uz, Initial residual = 0.000144449, Final residual = 5.48415e-17, No Iterations 5
linear solve U 95
[OGL LOG] init_preconditioner : 0 ms
[OGL LOG] solve : 1 ms
BJcudaGKOCG:  Solving for p, Initial residual = 3.34321e-05, Final residual = 6.96472e-07, No Iterations 5
linear solve p 1297
time step continuity errors : sum local = 0.000237641, global = 6.77626e-20, cumulative = 4.46459e-18
[OGL LOG] init_preconditioner : 0 ms
[OGL LOG] solve : 0 ms
BJcudaGKOCG:  Solving for p, Initial residual = 7.45228e-06, Final residual = 7.06135e-07, No Iterations 3
linear solve p 1093
time step continuity errors : sum local = 0.000237631, global = 5.60101e-19, cumulative = 5.02469e-18
ExecutionTime = 0.85 s  ClockTime = 1 s

End

