/*---------------------------------------------------------------------------*\
  =========                 |
  \\      /  F ield         | OpenFOAM: The Open Source CFD Toolbox
   \\    /   O peration     | Website:  https://openfoam.org
    \\  /    A nd           | Version:  8
     \\/     M anipulation  |
\*---------------------------------------------------------------------------*/
Build  : 8-ef60d22ea792
Exec   : icoFoam
Date   : Sep 15 2021
Time   : 13:34:50
Host   : "uc2n482.localdomain"
PID    : 3632787
I/O    : uncollated
Case   : /pfs/data5/home/kit/scc/nq7776/data/code/OBR/lidDrivenCavity3D/Variation_init/100/Variation_mesh/40/Variation_matrix_solver/BiCGStab_NoPrecond_CUDA/1631705685
nProcs : 1
sigFpe : Enabling floating point exception trapping (FOAM_SIGFPE).
fileModificationChecking : Monitoring run-time modified files using timeStampMaster (fileModificationSkew 10)
allowSystemOperations : Allowing user-supplied system call operations

// * * * * * * * * * * * * * * * * * * * * * * * * * * * * * * * * * * * * * //
Create time

Create mesh for time = 0

Reading transportProperties

Reading field p

Reading field U

Reading/calculating face flux field phi


Starting time loop

Time = 0.0025

Courant Number mean: 0.170274 max: 0.898977
DILUPBiCGStab:  Solving for Ux, Initial residual = 0.0777941, Final residual = 5.00153e-06, No Iterations 5
DILUPBiCGStab:  Solving for Uy, Initial residual = 0.123446, Final residual = 1.39078e-05, No Iterations 5
DILUPBiCGStab:  Solving for Uz, Initial residual = 0.127456, Final residual = 2.53141e-05, No Iterations 5
linear solve U 54915
[OGL LOG] init_host_sparsity_pattern : 16 ms
[OGL LOG] matrix not stored update host matrix
[OGL LOG] update_host_mtx : 9 ms
[OGL LOG] matrix is not yet sorted, compute sorting idxs
[OGL LOG] compute_sort : 503 ms
[OGL LOG] matrix is not yet sorted, sorting host matrix
[OGL LOG] sort_host_mtx_sparsity_pattern : 11 ms
[OGL LOG] sort_host_mtx : 6 ms
[OGL LOG] init_preconditioner : 0 ms
[OGL LOG] solve : 70 ms
nonecudaGKOBiCGStab:  Solving for p, Initial residual = 0.406972, Final residual = 4.33703e-07, No Iterations 259
linear solve p 1384991
time step continuity errors : sum local = 1.33295e-09, global = -4.86675e-22, cumulative = -4.86675e-22
[OGL LOG] init_preconditioner : 0 ms
[OGL LOG] solve : 68 ms
nonecudaGKOBiCGStab:  Solving for p, Initial residual = 0.212572, Final residual = 8.63867e-07, No Iterations 256
linear solve p 70599
time step continuity errors : sum local = 3.32095e-09, global = -1.38474e-20, cumulative = -1.43341e-20
ExecutionTime = 1.84 s  ClockTime = 1 s

Time = 0.005

Courant Number mean: 0.173472 max: 0.913614
DILUPBiCGStab:  Solving for Ux, Initial residual = 0.00786521, Final residual = 6.97724e-06, No Iterations 5
DILUPBiCGStab:  Solving for Uy, Initial residual = 0.0156879, Final residual = 1.02433e-05, No Iterations 5
DILUPBiCGStab:  Solving for Uz, Initial residual = 0.0331154, Final residual = 1.79946e-05, No Iterations 5
linear solve U 47180
[OGL LOG] init_preconditioner : 0 ms
[OGL LOG] solve : 67 ms
nonecudaGKOBiCGStab:  Solving for p, Initial residual = 0.146666, Final residual = 7.40672e-07, No Iterations 256
linear solve p 69614
time step continuity errors : sum local = 6.67647e-07, global = -7.08537e-20, cumulative = -8.51878e-20
[OGL LOG] init_preconditioner : 0 ms
[OGL LOG] solve : 67 ms
nonecudaGKOBiCGStab:  Solving for p, Initial residual = 0.104787, Final residual = 9.63888e-07, No Iterations 253
linear solve p 69410
time step continuity errors : sum local = 6.29982e-07, global = 6.82941e-21, cumulative = -7.83584e-20
ExecutionTime = 2.06 s  ClockTime = 2 s

Time = 0.0075

Courant Number mean: 0.17602 max: 0.915376
DILUPBiCGStab:  Solving for Ux, Initial residual = 0.00346558, Final residual = 3.30876e-06, No Iterations 5
DILUPBiCGStab:  Solving for Uy, Initial residual = 0.00930157, Final residual = 5.92e-06, No Iterations 5
DILUPBiCGStab:  Solving for Uz, Initial residual = 0.017951, Final residual = 9.6319e-06, No Iterations 5
linear solve U 52262
[OGL LOG] init_preconditioner : 0 ms
[OGL LOG] solve : 66 ms
nonecudaGKOBiCGStab:  Solving for p, Initial residual = 0.0595813, Final residual = 8.4056e-07, No Iterations 246
linear solve p 67700
time step continuity errors : sum local = 6.1821e-07, global = 1.26356e-19, cumulative = 4.79976e-20
[OGL LOG] init_preconditioner : 0 ms
[OGL LOG] solve : 65 ms
nonecudaGKOBiCGStab:  Solving for p, Initial residual = 0.0435713, Final residual = 9.34755e-07, No Iterations 245
linear solve p 67639
time step continuity errors : sum local = 6.26928e-07, global = 8.8378e-20, cumulative = 1.36376e-19
ExecutionTime = 2.27 s  ClockTime = 2 s

Time = 0.01

Courant Number mean: 0.178224 max: 0.9168
DILUPBiCGStab:  Solving for Ux, Initial residual = 0.00264535, Final residual = 1.0759e-06, No Iterations 5
DILUPBiCGStab:  Solving for Uy, Initial residual = 0.0068855, Final residual = 2.61395e-06, No Iterations 5
DILUPBiCGStab:  Solving for Uz, Initial residual = 0.01308, Final residual = 5.2045e-06, No Iterations 5
linear solve U 47570
[OGL LOG] init_preconditioner : 0 ms
[OGL LOG] solve : 32 ms
nonecudaGKOBiCGStab:  Solving for p, Initial residual = 0.0322486, Final residual = 8.93714e-07, No Iterations 117
linear solve p 33764
time step continuity errors : sum local = 6.29135e-07, global = -2.19637e-20, cumulative = 1.14412e-19
[OGL LOG] init_preconditioner : 0 ms
[OGL LOG] solve : 63 ms
nonecudaGKOBiCGStab:  Solving for p, Initial residual = 0.0246311, Final residual = 8.74759e-07, No Iterations 240
linear solve p 65597
time step continuity errors : sum local = 6.27353e-07, global = -7.13598e-21, cumulative = 1.07276e-19
ExecutionTime = 2.45 s  ClockTime = 2 s

Time = 0.0125

Courant Number mean: 0.180054 max: 0.917665
DILUPBiCGStab:  Solving for Ux, Initial residual = 0.00210902, Final residual = 6.87122e-07, No Iterations 5
DILUPBiCGStab:  Solving for Uy, Initial residual = 0.00541036, Final residual = 9.63586e-07, No Iterations 5
DILUPBiCGStab:  Solving for Uz, Initial residual = 0.010001, Final residual = 2.78933e-06, No Iterations 5
linear solve U 50790
[OGL LOG] init_preconditioner : 0 ms
[OGL LOG] solve : 67 ms
nonecudaGKOBiCGStab:  Solving for p, Initial residual = 0.0202266, Final residual = 9.36923e-07, No Iterations 244
linear solve p 68910
time step continuity errors : sum local = 6.25738e-07, global = -2.17683e-20, cumulative = 8.55076e-20
[OGL LOG] init_preconditioner : 0 ms
[OGL LOG] solve : 61 ms
nonecudaGKOBiCGStab:  Solving for p, Initial residual = 0.0155684, Final residual = 9.86842e-07, No Iterations 227
linear solve p 62892
time step continuity errors : sum local = 6.27612e-07, global = -2.85553e-20, cumulative = 5.69523e-20
ExecutionTime = 2.67 s  ClockTime = 2 s

Time = 0.015

Courant Number mean: 0.181609 max: 0.918509
DILUPBiCGStab:  Solving for Ux, Initial residual = 0.00174116, Final residual = 3.58826e-07, No Iterations 5
DILUPBiCGStab:  Solving for Uy, Initial residual = 0.00457854, Final residual = 8.59139e-07, No Iterations 5
DILUPBiCGStab:  Solving for Uz, Initial residual = 0.00838069, Final residual = 2.30169e-06, No Iterations 5
linear solve U 47875
[OGL LOG] init_preconditioner : 0 ms
[OGL LOG] solve : 34 ms
nonecudaGKOBiCGStab:  Solving for p, Initial residual = 0.0124544, Final residual = 9.94422e-07, No Iterations 120
linear solve p 35691
time step continuity errors : sum local = 6.28285e-07, global = 2.97702e-20, cumulative = 8.67226e-20
[OGL LOG] init_preconditioner : 0 ms
[OGL LOG] solve : 32 ms
nonecudaGKOBiCGStab:  Solving for p, Initial residual = 0.00999053, Final residual = 9.98852e-07, No Iterations 117
linear solve p 34707
time step continuity errors : sum local = 6.27373e-07, global = 9.00159e-20, cumulative = 1.76738e-19
ExecutionTime = 2.83 s  ClockTime = 2 s

Time = 0.0175

Courant Number mean: 0.182919 max: 0.919116
DILUPBiCGStab:  Solving for Ux, Initial residual = 0.00145775, Final residual = 2.8371e-07, No Iterations 5
DILUPBiCGStab:  Solving for Uy, Initial residual = 0.00377752, Final residual = 5.3887e-07, No Iterations 5
DILUPBiCGStab:  Solving for Uz, Initial residual = 0.00674078, Final residual = 1.37246e-06, No Iterations 5
linear solve U 49288
[OGL LOG] init_preconditioner : 0 ms
[OGL LOG] solve : 61 ms
nonecudaGKOBiCGStab:  Solving for p, Initial residual = 0.00874309, Final residual = 9.96144e-07, No Iterations 215
linear solve p 63159
time step continuity errors : sum local = 6.2773e-07, global = 8.92362e-20, cumulative = 2.65975e-19
[OGL LOG] init_preconditioner : 0 ms
[OGL LOG] solve : 32 ms
nonecudaGKOBiCGStab:  Solving for p, Initial residual = 0.00702034, Final residual = 9.05244e-07, No Iterations 115
linear solve p 33952
time step continuity errors : sum local = 6.2712e-07, global = 3.78683e-20, cumulative = 3.03843e-19
ExecutionTime = 3.01 s  ClockTime = 3 s

Time = 0.02

Courant Number mean: 0.184033 max: 0.919668
DILUPBiCGStab:  Solving for Ux, Initial residual = 0.00122716, Final residual = 1.57284e-07, No Iterations 5
DILUPBiCGStab:  Solving for Uy, Initial residual = 0.00323432, Final residual = 5.25629e-07, No Iterations 5
DILUPBiCGStab:  Solving for Uz, Initial residual = 0.00574635, Final residual = 1.23229e-06, No Iterations 5
linear solve U 49760
[OGL LOG] init_preconditioner : 0 ms
[OGL LOG] solve : 30 ms
nonecudaGKOBiCGStab:  Solving for p, Initial residual = 0.005864, Final residual = 9.46072e-07, No Iterations 108
linear solve p 32154
time step continuity errors : sum local = 6.27244e-07, global = -8.19188e-20, cumulative = 2.21924e-19
[OGL LOG] init_preconditioner : 0 ms
[OGL LOG] solve : 30 ms
nonecudaGKOBiCGStab:  Solving for p, Initial residual = 0.00492315, Final residual = 9.26391e-07, No Iterations 109
linear solve p 32525
time step continuity errors : sum local = 6.26921e-07, global = 3.7492e-20, cumulative = 2.59416e-19
ExecutionTime = 3.15 s  ClockTime = 3 s

Time = 0.0225

Courant Number mean: 0.184978 max: 0.920092
DILUPBiCGStab:  Solving for Ux, Initial residual = 0.00103999, Final residual = 1.36331e-07, No Iterations 5
DILUPBiCGStab:  Solving for Uy, Initial residual = 0.00272654, Final residual = 3.7746e-07, No Iterations 5
DILUPBiCGStab:  Solving for Uz, Initial residual = 0.00474219, Final residual = 9.02755e-07, No Iterations 5
linear solve U 48461
[OGL LOG] init_preconditioner : 0 ms
[OGL LOG] solve : 32 ms
nonecudaGKOBiCGStab:  Solving for p, Initial residual = 0.00445969, Final residual = 9.77059e-07, No Iterations 114
linear solve p 33775
time step continuity errors : sum local = 6.27707e-07, global = 3.92807e-20, cumulative = 2.98697e-19
[OGL LOG] init_preconditioner : 0 ms
[OGL LOG] solve : 26 ms
nonecudaGKOBiCGStab:  Solving for p, Initial residual = 0.00379599, Final residual = 9.37703e-07, No Iterations 95
linear solve p 28695
time step continuity errors : sum local = 6.26654e-07, global = 5.57354e-20, cumulative = 3.54432e-19
ExecutionTime = 3.3 s  ClockTime = 3 s

Time = 0.025

Courant Number mean: 0.185785 max: 0.920464
DILUPBiCGStab:  Solving for Ux, Initial residual = 0.000883668, Final residual = 9.16288e-08, No Iterations 5
DILUPBiCGStab:  Solving for Uy, Initial residual = 0.00234195, Final residual = 4.82271e-07, No Iterations 5
DILUPBiCGStab:  Solving for Uz, Initial residual = 0.00402626, Final residual = 7.94763e-07, No Iterations 5
linear solve U 49797
[OGL LOG] init_preconditioner : 0 ms
[OGL LOG] solve : 29 ms
nonecudaGKOBiCGStab:  Solving for p, Initial residual = 0.00328674, Final residual = 5.41631e-07, No Iterations 105
linear solve p 31042
time step continuity errors : sum local = 6.26559e-07, global = 3.35897e-20, cumulative = 3.88022e-19
[OGL LOG] init_preconditioner : 0 ms
[OGL LOG] solve : 29 ms
nonecudaGKOBiCGStab:  Solving for p, Initial residual = 0.00289209, Final residual = 9.37162e-07, No Iterations 108
linear solve p 31576
time step continuity errors : sum local = 6.26464e-07, global = -3.99197e-20, cumulative = 3.48102e-19
ExecutionTime = 3.45 s  ClockTime = 3 s

End

