/*---------------------------------------------------------------------------*\
  =========                 |
  \\      /  F ield         | OpenFOAM: The Open Source CFD Toolbox
   \\    /   O peration     | Website:  https://openfoam.org
    \\  /    A nd           | Version:  8
     \\/     M anipulation  |
\*---------------------------------------------------------------------------*/
Build  : 8-ef60d22ea792
Exec   : icoFoam
Date   : Sep 15 2021
Time   : 13:08:10
Host   : "uc2n482.localdomain"
PID    : 3626987
I/O    : uncollated
Case   : /pfs/data5/home/kit/scc/nq7776/data/code/OBR/lidDrivenCavity3D/Variation_init/100/Variation_mesh/15/Variation_matrix_solver/BiCGStab_ILU_CUDA/1631704088
nProcs : 1
sigFpe : Enabling floating point exception trapping (FOAM_SIGFPE).
fileModificationChecking : Monitoring run-time modified files using timeStampMaster (fileModificationSkew 10)
allowSystemOperations : Allowing user-supplied system call operations

// * * * * * * * * * * * * * * * * * * * * * * * * * * * * * * * * * * * * * //
Create time

Create mesh for time = 0

Reading transportProperties

Reading field p

Reading field U

Reading/calculating face flux field phi


Starting time loop

Time = 0.00666667

Courant Number mean: 0.166422 max: 0.762393
DILUPBiCGStab:  Solving for Ux, Initial residual = 0.0879544, Final residual = 2.84443e-08, No Iterations 5
DILUPBiCGStab:  Solving for Uy, Initial residual = 0.126984, Final residual = 8.95339e-08, No Iterations 5
DILUPBiCGStab:  Solving for Uz, Initial residual = 0.181802, Final residual = 6.74481e-08, No Iterations 5
linear solve U 2494
[OGL LOG] init_host_sparsity_pattern : 0 ms
[OGL LOG] matrix not stored update host matrix
[OGL LOG] update_host_mtx : 0 ms
[OGL LOG] matrix is not yet sorted, compute sorting idxs
[OGL LOG] compute_sort : 20 ms
[OGL LOG] matrix is not yet sorted, sorting host matrix
[OGL LOG] sort_host_mtx_sparsity_pattern : 0 ms
[OGL LOG] sort_host_mtx : 0 ms
[OGL LOG] init_preconditioner : 3 ms
[OGL LOG] solve : 17 ms
ILUcudaGKOBiCGStab:  Solving for p, Initial residual = 0.516107, Final residual = 3.95722e-07, No Iterations 28
linear solve p 782025
time step continuity errors : sum local = 5.75464e-09, global = -8.62615e-20, cumulative = -8.62615e-20
[OGL LOG] init_preconditioner : 0 ms
[OGL LOG] solve : 16 ms
ILUcudaGKOBiCGStab:  Solving for p, Initial residual = 0.271044, Final residual = 9.24137e-07, No Iterations 27
linear solve p 16309
time step continuity errors : sum local = 1.17211e-08, global = 1.39456e-19, cumulative = 5.3195e-20
ExecutionTime = 0.86 s  ClockTime = 1 s

Time = 0.0133333

Courant Number mean: 0.171844 max: 0.7773
DILUPBiCGStab:  Solving for Ux, Initial residual = 0.021091, Final residual = 3.34926e-08, No Iterations 5
DILUPBiCGStab:  Solving for Uy, Initial residual = 0.0294974, Final residual = 2.90785e-08, No Iterations 5
DILUPBiCGStab:  Solving for Uz, Initial residual = 0.0732097, Final residual = 9.49203e-08, No Iterations 5
linear solve U 1824
[OGL LOG] init_preconditioner : 0 ms
[OGL LOG] solve : 16 ms
ILUcudaGKOBiCGStab:  Solving for p, Initial residual = 0.145574, Final residual = 9.54106e-07, No Iterations 28
linear solve p 16792
time step continuity errors : sum local = 1.32896e-05, global = -1.51054e-19, cumulative = -9.78593e-20
[OGL LOG] init_preconditioner : 0 ms
[OGL LOG] solve : 16 ms
ILUcudaGKOBiCGStab:  Solving for p, Initial residual = 0.0851811, Final residual = 2.22766e-07, No Iterations 29
linear solve p 17175
time step continuity errors : sum local = 1.20394e-05, global = -1.11041e-19, cumulative = -2.089e-19
ExecutionTime = 0.89 s  ClockTime = 1 s

Time = 0.02

Courant Number mean: 0.175686 max: 0.781333
DILUPBiCGStab:  Solving for Ux, Initial residual = 0.00574942, Final residual = 1.22875e-08, No Iterations 5
DILUPBiCGStab:  Solving for Uy, Initial residual = 0.0110708, Final residual = 1.81376e-08, No Iterations 5
DILUPBiCGStab:  Solving for Uz, Initial residual = 0.0200854, Final residual = 1.31402e-08, No Iterations 5
linear solve U 1925
[OGL LOG] init_preconditioner : 0 ms
[OGL LOG] solve : 14 ms
ILUcudaGKOBiCGStab:  Solving for p, Initial residual = 0.0224871, Final residual = 7.76018e-07, No Iterations 24
linear solve p 14590
time step continuity errors : sum local = 1.1881e-05, global = -1.1821e-19, cumulative = -3.2711e-19
[OGL LOG] init_preconditioner : 0 ms
[OGL LOG] solve : 16 ms
ILUcudaGKOBiCGStab:  Solving for p, Initial residual = 0.0139053, Final residual = 7.17487e-07, No Iterations 28
linear solve p 16762
time step continuity errors : sum local = 1.19815e-05, global = 1.26349e-19, cumulative = -2.00761e-19
ExecutionTime = 0.92 s  ClockTime = 1 s

Time = 0.0266667

Courant Number mean: 0.178552 max: 0.784986
DILUPBiCGStab:  Solving for Ux, Initial residual = 0.00342816, Final residual = 5.12906e-09, No Iterations 5
DILUPBiCGStab:  Solving for Uy, Initial residual = 0.00658199, Final residual = 1.15594e-08, No Iterations 5
DILUPBiCGStab:  Solving for Uz, Initial residual = 0.00950312, Final residual = 9.48551e-09, No Iterations 5
linear solve U 1825
[OGL LOG] init_preconditioner : 0 ms
[OGL LOG] solve : 13 ms
ILUcudaGKOBiCGStab:  Solving for p, Initial residual = 0.0101106, Final residual = 8.00671e-07, No Iterations 23
linear solve p 13939
time step continuity errors : sum local = 1.19906e-05, global = 6.80935e-20, cumulative = -1.32667e-19
[OGL LOG] init_preconditioner : 0 ms
[OGL LOG] solve : 13 ms
ILUcudaGKOBiCGStab:  Solving for p, Initial residual = 0.00719672, Final residual = 7.98054e-07, No Iterations 23
linear solve p 13946
time step continuity errors : sum local = 1.19804e-05, global = -2.7619e-19, cumulative = -4.08857e-19
ExecutionTime = 0.96 s  ClockTime = 1 s

Time = 0.0333333

Courant Number mean: 0.180502 max: 0.787346
DILUPBiCGStab:  Solving for Ux, Initial residual = 0.00221528, Final residual = 1.91379e-09, No Iterations 5
DILUPBiCGStab:  Solving for Uy, Initial residual = 0.00448439, Final residual = 2.88972e-09, No Iterations 5
DILUPBiCGStab:  Solving for Uz, Initial residual = 0.00628493, Final residual = 3.57361e-09, No Iterations 5
linear solve U 1821
[OGL LOG] init_preconditioner : 0 ms
[OGL LOG] solve : 14 ms
ILUcudaGKOBiCGStab:  Solving for p, Initial residual = 0.00453551, Final residual = 4.54011e-07, No Iterations 24
linear solve p 14495
time step continuity errors : sum local = 1.19763e-05, global = 4.3481e-19, cumulative = 2.59531e-20
[OGL LOG] init_preconditioner : 0 ms
[OGL LOG] solve : 13 ms
ILUcudaGKOBiCGStab:  Solving for p, Initial residual = 0.00321663, Final residual = 9.44787e-07, No Iterations 23
linear solve p 14020
time step continuity errors : sum local = 1.19803e-05, global = -1.50723e-19, cumulative = -1.2477e-19
ExecutionTime = 0.99 s  ClockTime = 1 s

Time = 0.04

Courant Number mean: 0.181846 max: 0.788821
DILUPBiCGStab:  Solving for Ux, Initial residual = 0.00152165, Final residual = 8.48058e-10, No Iterations 5
DILUPBiCGStab:  Solving for Uy, Initial residual = 0.00314054, Final residual = 2.02345e-09, No Iterations 5
DILUPBiCGStab:  Solving for Uz, Initial residual = 0.00421585, Final residual = 2.26689e-09, No Iterations 5
linear solve U 1894
[OGL LOG] init_preconditioner : 0 ms
[OGL LOG] solve : 13 ms
ILUcudaGKOBiCGStab:  Solving for p, Initial residual = 0.00332391, Final residual = 7.72742e-07, No Iterations 23
linear solve p 14109
time step continuity errors : sum local = 1.19778e-05, global = 8.82326e-22, cumulative = -1.23888e-19
[OGL LOG] init_preconditioner : 0 ms
[OGL LOG] solve : 12 ms
ILUcudaGKOBiCGStab:  Solving for p, Initial residual = 0.00243692, Final residual = 4.34906e-07, No Iterations 22
linear solve p 12756
time step continuity errors : sum local = 1.19789e-05, global = 2.42198e-20, cumulative = -9.9668e-20
ExecutionTime = 1.02 s  ClockTime = 1 s

Time = 0.0466667

Courant Number mean: 0.182778 max: 0.78982
DILUPBiCGStab:  Solving for Ux, Initial residual = 0.00104888, Final residual = 5.72083e-10, No Iterations 5
DILUPBiCGStab:  Solving for Uy, Initial residual = 0.00219916, Final residual = 1.09392e-09, No Iterations 5
DILUPBiCGStab:  Solving for Uz, Initial residual = 0.00292381, Final residual = 1.50159e-09, No Iterations 5
linear solve U 1909
[OGL LOG] init_preconditioner : 0 ms
[OGL LOG] solve : 13 ms
ILUcudaGKOBiCGStab:  Solving for p, Initial residual = 0.00216684, Final residual = 6.81011e-07, No Iterations 23
linear solve p 13472
time step continuity errors : sum local = 1.19779e-05, global = -4.76191e-19, cumulative = -5.75859e-19
[OGL LOG] init_preconditioner : 0 ms
[OGL LOG] solve : 12 ms
ILUcudaGKOBiCGStab:  Solving for p, Initial residual = 0.00157886, Final residual = 4.89192e-07, No Iterations 22
linear solve p 12752
time step continuity errors : sum local = 1.19788e-05, global = 2.56558e-19, cumulative = -3.19301e-19
ExecutionTime = 1.05 s  ClockTime = 1 s

Time = 0.0533333

Courant Number mean: 0.183428 max: 0.790487
DILUPBiCGStab:  Solving for Ux, Initial residual = 0.00073083, Final residual = 3.53879e-10, No Iterations 5
DILUPBiCGStab:  Solving for Uy, Initial residual = 0.00154855, Final residual = 6.38478e-10, No Iterations 5
DILUPBiCGStab:  Solving for Uz, Initial residual = 0.00201425, Final residual = 1.1106e-09, No Iterations 5
linear solve U 1834
[OGL LOG] init_preconditioner : 0 ms
[OGL LOG] solve : 13 ms
ILUcudaGKOBiCGStab:  Solving for p, Initial residual = 0.00152802, Final residual = 4.61302e-07, No Iterations 23
linear solve p 13230
time step continuity errors : sum local = 1.19777e-05, global = -3.98458e-19, cumulative = -7.17759e-19
[OGL LOG] init_preconditioner : 0 ms
[OGL LOG] solve : 11 ms
ILUcudaGKOBiCGStab:  Solving for p, Initial residual = 0.00111743, Final residual = 9.35469e-07, No Iterations 21
linear solve p 11867
time step continuity errors : sum local = 1.19804e-05, global = 4.7028e-20, cumulative = -6.70731e-19
ExecutionTime = 1.08 s  ClockTime = 1 s

Time = 0.06

Courant Number mean: 0.183882 max: 0.790942
DILUPBiCGStab:  Solving for Ux, Initial residual = 0.000512637, Final residual = 2.40445e-10, No Iterations 5
DILUPBiCGStab:  Solving for Uy, Initial residual = 0.00109146, Final residual = 3.82036e-10, No Iterations 5
DILUPBiCGStab:  Solving for Uz, Initial residual = 0.00139066, Final residual = 9.04061e-10, No Iterations 5
linear solve U 1878
[OGL LOG] init_preconditioner : 0 ms
[OGL LOG] solve : 12 ms
ILUcudaGKOBiCGStab:  Solving for p, Initial residual = 0.00105787, Final residual = 9.45944e-07, No Iterations 23
linear solve p 12960
time step continuity errors : sum local = 1.19787e-05, global = -3.22931e-19, cumulative = -9.93663e-19
[OGL LOG] init_preconditioner : 0 ms
[OGL LOG] solve : 11 ms
ILUcudaGKOBiCGStab:  Solving for p, Initial residual = 0.000773772, Final residual = 8.41489e-07, No Iterations 20
linear solve p 11743
time step continuity errors : sum local = 1.19797e-05, global = -1.29217e-19, cumulative = -1.12288e-18
ExecutionTime = 1.1 s  ClockTime = 1 s

Time = 0.0666667

Courant Number mean: 0.184199 max: 0.791252
DILUPBiCGStab:  Solving for Ux, Initial residual = 0.000360481, Final residual = 1.62596e-10, No Iterations 5
DILUPBiCGStab:  Solving for Uy, Initial residual = 0.000770513, Final residual = 2.42522e-10, No Iterations 5
DILUPBiCGStab:  Solving for Uz, Initial residual = 0.000962298, Final residual = 7.26606e-10, No Iterations 5
linear solve U 1919
[OGL LOG] init_preconditioner : 0 ms
[OGL LOG] solve : 12 ms
ILUcudaGKOBiCGStab:  Solving for p, Initial residual = 0.000740918, Final residual = 7.12472e-07, No Iterations 22
linear solve p 13151
time step continuity errors : sum local = 1.19784e-05, global = -4.0984e-20, cumulative = -1.16386e-18
[OGL LOG] init_preconditioner : 0 ms
[OGL LOG] solve : 4 ms
ILUcudaGKOBiCGStab:  Solving for p, Initial residual = 0.000541406, Final residual = 9.86741e-07, No Iterations 8
linear solve p 5146
time step continuity errors : sum local = 1.19887e-05, global = 1.70377e-19, cumulative = -9.93486e-19
ExecutionTime = 1.12 s  ClockTime = 1 s

End

