/*---------------------------------------------------------------------------*\
  =========                 |
  \\      /  F ield         | OpenFOAM: The Open Source CFD Toolbox
   \\    /   O peration     | Website:  https://openfoam.org
    \\  /    A nd           | Version:  8
     \\/     M anipulation  |
\*---------------------------------------------------------------------------*/
Build  : 8-ef60d22ea792
Exec   : icoFoam
Date   : Sep 15 2021
Time   : 13:41:32
Host   : "uc2n482.localdomain"
PID    : 3635864
I/O    : uncollated
Case   : /pfs/data5/home/kit/scc/nq7776/data/code/OBR/lidDrivenCavity3D/Variation_init/100/Variation_mesh/65/Variation_matrix_solver/IR_NoPrecond_CUDA/Variation_innerReductionFactor/0.05/1631706078
nProcs : 1
sigFpe : Enabling floating point exception trapping (FOAM_SIGFPE).
fileModificationChecking : Monitoring run-time modified files using timeStampMaster (fileModificationSkew 10)
allowSystemOperations : Allowing user-supplied system call operations

// * * * * * * * * * * * * * * * * * * * * * * * * * * * * * * * * * * * * * //
Create time

Create mesh for time = 0

Reading transportProperties

Reading field p

Reading field U

Reading/calculating face flux field phi


Starting time loop

Time = 0.00153846

Courant Number mean: 0.17093 max: 0.953778
DILUPBiCGStab:  Solving for Ux, Initial residual = 0.112594, Final residual = 8.25037e-05, No Iterations 5
DILUPBiCGStab:  Solving for Uy, Initial residual = 0.214167, Final residual = 0.00019351, No Iterations 5
DILUPBiCGStab:  Solving for Uz, Initial residual = 0.265767, Final residual = 0.000360103, No Iterations 5
linear solve U 284441
[OGL LOG] init_host_sparsity_pattern : 82 ms
[OGL LOG] matrix not stored update host matrix
[OGL LOG] update_host_mtx : 45 ms
[OGL LOG] matrix is not yet sorted, compute sorting idxs
[OGL LOG] compute_sort : 2706 ms
[OGL LOG] matrix is not yet sorted, sorting host matrix
[OGL LOG] sort_host_mtx_sparsity_pattern : 60 ms
[OGL LOG] sort_host_mtx : 35 ms
[OGL LOG] init_preconditioner : 0 ms
[OGL LOG] solve : 156 ms
nonecudaGKOIR:  Solving for p, Initial residual = 0.554571, Final residual = 4.71003e-08, No Iterations 6
linear solve p 3885237
time step continuity errors : sum local = 6.31175e-11, global = -2.76956e-20, cumulative = -2.76956e-20
[OGL LOG] init_preconditioner : 0 ms
[OGL LOG] solve : 140 ms
nonecudaGKOIR:  Solving for p, Initial residual = 0.328964, Final residual = 4.2556e-07, No Iterations 5
linear solve p 149275
time step continuity errors : sum local = 3.4332e-10, global = 1.51033e-20, cumulative = -1.25923e-20
ExecutionTime = 5.89 s  ClockTime = 5 s

Time = 0.00307692

Courant Number mean: 0.173153 max: 0.946981
DILUPBiCGStab:  Solving for Ux, Initial residual = 0.00646103, Final residual = 2.91067e-05, No Iterations 5
DILUPBiCGStab:  Solving for Uy, Initial residual = 0.0152954, Final residual = 6.58728e-05, No Iterations 5
DILUPBiCGStab:  Solving for Uz, Initial residual = 0.0410356, Final residual = 0.000215681, No Iterations 5
linear solve U 259786
[OGL LOG] init_preconditioner : 0 ms
[OGL LOG] solve : 152 ms
nonecudaGKOIR:  Solving for p, Initial residual = 0.25902, Final residual = 1.68812e-07, No Iterations 5
linear solve p 161407
time step continuity errors : sum local = 2.57818e-07, global = 8.28119e-21, cumulative = -4.31115e-21
[OGL LOG] init_preconditioner : 0 ms
[OGL LOG] solve : 155 ms
nonecudaGKOIR:  Solving for p, Initial residual = 0.210446, Final residual = 1.19491e-07, No Iterations 5
linear solve p 164325
time step continuity errors : sum local = 2.47197e-07, global = -1.02473e-20, cumulative = -1.45584e-20
ExecutionTime = 6.64 s  ClockTime = 6 s

Time = 0.00461538

Courant Number mean: 0.174968 max: 0.947843
DILUPBiCGStab:  Solving for Ux, Initial residual = 0.00331102, Final residual = 1.28475e-05, No Iterations 5
DILUPBiCGStab:  Solving for Uy, Initial residual = 0.00810304, Final residual = 2.89738e-05, No Iterations 5
DILUPBiCGStab:  Solving for Uz, Initial residual = 0.0238033, Final residual = 0.000136601, No Iterations 5
linear solve U 261328
[OGL LOG] init_preconditioner : 0 ms
[OGL LOG] solve : 147 ms
nonecudaGKOIR:  Solving for p, Initial residual = 0.16804, Final residual = 7.81957e-08, No Iterations 5
linear solve p 156239
time step continuity errors : sum local = 2.46805e-07, global = -1.95112e-20, cumulative = -3.40697e-20
[OGL LOG] init_preconditioner : 0 ms
[OGL LOG] solve : 150 ms
nonecudaGKOIR:  Solving for p, Initial residual = 0.135522, Final residual = 6.28522e-08, No Iterations 5
linear solve p 158906
time step continuity errors : sum local = 2.46095e-07, global = 4.18689e-20, cumulative = 7.79917e-21
ExecutionTime = 7.39 s  ClockTime = 7 s

Time = 0.00615385

Courant Number mean: 0.176518 max: 0.947985
DILUPBiCGStab:  Solving for Ux, Initial residual = 0.00229887, Final residual = 8.48571e-06, No Iterations 5
DILUPBiCGStab:  Solving for Uy, Initial residual = 0.00670339, Final residual = 1.83235e-05, No Iterations 5
DILUPBiCGStab:  Solving for Uz, Initial residual = 0.0192835, Final residual = 8.40694e-05, No Iterations 5
linear solve U 258054
[OGL LOG] init_preconditioner : 0 ms
[OGL LOG] solve : 155 ms
nonecudaGKOIR:  Solving for p, Initial residual = 0.117474, Final residual = 5.25708e-08, No Iterations 5
linear solve p 163769
time step continuity errors : sum local = 2.4644e-07, global = 1.22407e-22, cumulative = 7.92158e-21
[OGL LOG] init_preconditioner : 0 ms
[OGL LOG] solve : 129 ms
nonecudaGKOIR:  Solving for p, Initial residual = 0.0952295, Final residual = 8.86856e-07, No Iterations 4
linear solve p 138586
time step continuity errors : sum local = 2.46679e-07, global = -2.24521e-20, cumulative = -1.45305e-20
ExecutionTime = 8.11 s  ClockTime = 8 s

Time = 0.00769231

Courant Number mean: 0.17797 max: 0.948443
DILUPBiCGStab:  Solving for Ux, Initial residual = 0.00194859, Final residual = 6.60078e-06, No Iterations 5
DILUPBiCGStab:  Solving for Uy, Initial residual = 0.00523608, Final residual = 1.35818e-05, No Iterations 5
DILUPBiCGStab:  Solving for Uz, Initial residual = 0.0137232, Final residual = 5.09412e-05, No Iterations 5
linear solve U 260210
[OGL LOG] init_preconditioner : 0 ms
[OGL LOG] solve : 117 ms
nonecudaGKOIR:  Solving for p, Initial residual = 0.0839278, Final residual = 6.32265e-07, No Iterations 4
linear solve p 125971
time step continuity errors : sum local = 2.46758e-07, global = -2.68928e-20, cumulative = -4.14233e-20
[OGL LOG] init_preconditioner : 0 ms
[OGL LOG] solve : 114 ms
nonecudaGKOIR:  Solving for p, Initial residual = 0.0673239, Final residual = 5.47725e-07, No Iterations 4
linear solve p 123269
time step continuity errors : sum local = 2.46451e-07, global = -1.17495e-20, cumulative = -5.31728e-20
ExecutionTime = 8.79 s  ClockTime = 8 s

Time = 0.00923077

Courant Number mean: 0.179261 max: 0.948913
DILUPBiCGStab:  Solving for Ux, Initial residual = 0.00160217, Final residual = 5.24918e-06, No Iterations 5
DILUPBiCGStab:  Solving for Uy, Initial residual = 0.00455725, Final residual = 9.17092e-06, No Iterations 5
DILUPBiCGStab:  Solving for Uz, Initial residual = 0.0115542, Final residual = 3.57793e-05, No Iterations 5
linear solve U 271162
[OGL LOG] init_preconditioner : 0 ms
[OGL LOG] solve : 139 ms
nonecudaGKOIR:  Solving for p, Initial residual = 0.0613605, Final residual = 4.90078e-07, No Iterations 4
linear solve p 150293
time step continuity errors : sum local = 2.46425e-07, global = -2.71671e-20, cumulative = -8.03399e-20
[OGL LOG] init_preconditioner : 0 ms
[OGL LOG] solve : 132 ms
nonecudaGKOIR:  Solving for p, Initial residual = 0.04949, Final residual = 3.78051e-07, No Iterations 4
linear solve p 141974
time step continuity errors : sum local = 2.46388e-07, global = -1.20313e-20, cumulative = -9.23712e-20
ExecutionTime = 9.54 s  ClockTime = 9 s

Time = 0.0107692

Courant Number mean: 0.180428 max: 0.949219
DILUPBiCGStab:  Solving for Ux, Initial residual = 0.00140692, Final residual = 4.23215e-06, No Iterations 5
DILUPBiCGStab:  Solving for Uy, Initial residual = 0.00391281, Final residual = 6.18756e-06, No Iterations 5
DILUPBiCGStab:  Solving for Uz, Initial residual = 0.00900993, Final residual = 2.4963e-05, No Iterations 5
linear solve U 263704
[OGL LOG] init_preconditioner : 0 ms
[OGL LOG] solve : 117 ms
nonecudaGKOIR:  Solving for p, Initial residual = 0.0453743, Final residual = 3.58206e-07, No Iterations 4
linear solve p 126391
time step continuity errors : sum local = 2.4642e-07, global = -1.83365e-20, cumulative = -1.10708e-19
[OGL LOG] init_preconditioner : 0 ms
[OGL LOG] solve : 124 ms
nonecudaGKOIR:  Solving for p, Initial residual = 0.0363229, Final residual = 2.69994e-07, No Iterations 4
linear solve p 133224
time step continuity errors : sum local = 2.46337e-07, global = 1.79314e-20, cumulative = -9.27764e-20
ExecutionTime = 10.22 s  ClockTime = 10 s

Time = 0.0123077

Courant Number mean: 0.181475 max: 0.949601
DILUPBiCGStab:  Solving for Ux, Initial residual = 0.00121896, Final residual = 3.14192e-06, No Iterations 5
DILUPBiCGStab:  Solving for Uy, Initial residual = 0.00347008, Final residual = 4.46703e-06, No Iterations 5
DILUPBiCGStab:  Solving for Uz, Initial residual = 0.00774265, Final residual = 1.96908e-05, No Iterations 5
linear solve U 277079
[OGL LOG] init_preconditioner : 0 ms
[OGL LOG] solve : 131 ms
nonecudaGKOIR:  Solving for p, Initial residual = 0.0338727, Final residual = 2.45682e-07, No Iterations 4
linear solve p 139771
time step continuity errors : sum local = 2.46334e-07, global = 2.31675e-20, cumulative = -6.96089e-20
[OGL LOG] init_preconditioner : 0 ms
[OGL LOG] solve : 131 ms
nonecudaGKOIR:  Solving for p, Initial residual = 0.0272782, Final residual = 1.93119e-07, No Iterations 4
linear solve p 140369
time step continuity errors : sum local = 2.4631e-07, global = -4.48407e-21, cumulative = -7.40929e-20
ExecutionTime = 10.94 s  ClockTime = 11 s

Time = 0.0138462

Courant Number mean: 0.182418 max: 0.949852
DILUPBiCGStab:  Solving for Ux, Initial residual = 0.00108409, Final residual = 2.39053e-06, No Iterations 5
DILUPBiCGStab:  Solving for Uy, Initial residual = 0.00306008, Final residual = 3.28884e-06, No Iterations 5
DILUPBiCGStab:  Solving for Uz, Initial residual = 0.00643076, Final residual = 1.61835e-05, No Iterations 5
linear solve U 262022
[OGL LOG] init_preconditioner : 0 ms
[OGL LOG] solve : 123 ms
nonecudaGKOIR:  Solving for p, Initial residual = 0.0254841, Final residual = 1.64947e-07, No Iterations 4
linear solve p 132508
time step continuity errors : sum local = 2.463e-07, global = 2.61456e-20, cumulative = -4.79473e-20
[OGL LOG] init_preconditioner : 0 ms
[OGL LOG] solve : 133 ms
nonecudaGKOIR:  Solving for p, Initial residual = 0.0203997, Final residual = 1.25494e-07, No Iterations 4
linear solve p 142251
time step continuity errors : sum local = 2.46286e-07, global = -5.4635e-20, cumulative = -1.02582e-19
ExecutionTime = 11.64 s  ClockTime = 11 s

Time = 0.0153846

Courant Number mean: 0.183267 max: 0.95014
DILUPBiCGStab:  Solving for Ux, Initial residual = 0.000958928, Final residual = 1.6404e-06, No Iterations 5
DILUPBiCGStab:  Solving for Uy, Initial residual = 0.00274784, Final residual = 2.32661e-06, No Iterations 5
DILUPBiCGStab:  Solving for Uz, Initial residual = 0.00562527, Final residual = 1.26008e-05, No Iterations 5
linear solve U 269564
[OGL LOG] init_preconditioner : 0 ms
[OGL LOG] solve : 133 ms
nonecudaGKOIR:  Solving for p, Initial residual = 0.0193263, Final residual = 1.26997e-07, No Iterations 4
linear solve p 141944
time step continuity errors : sum local = 2.46289e-07, global = 1.89985e-20, cumulative = -8.35839e-20
[OGL LOG] init_preconditioner : 0 ms
[OGL LOG] solve : 129 ms
nonecudaGKOIR:  Solving for p, Initial residual = 0.015622, Final residual = 1.03344e-07, No Iterations 4
linear solve p 138402
time step continuity errors : sum local = 2.46278e-07, global = 1.50815e-20, cumulative = -6.85024e-20
ExecutionTime = 12.38 s  ClockTime = 12 s

End

