/*---------------------------------------------------------------------------*\
  =========                 |
  \\      /  F ield         | OpenFOAM: The Open Source CFD Toolbox
   \\    /   O peration     | Website:  https://openfoam.org
    \\  /    A nd           | Version:  8
     \\/     M anipulation  |
\*---------------------------------------------------------------------------*/
Build  : 8-ef60d22ea792
Exec   : icoFoam
Date   : Sep 15 2021
Time   : 14:52:37
Host   : "uc2n482.localdomain"
PID    : 3655304
I/O    : uncollated
Case   : /pfs/data5/home/kit/scc/nq7776/data/code/OBR/lidDrivenCavity3D/Variation_init/100/Variation_mesh/85/Variation_matrix_solver/CG_NoPrecond_CUDA/1631710332
nProcs : 1
sigFpe : Enabling floating point exception trapping (FOAM_SIGFPE).
fileModificationChecking : Monitoring run-time modified files using timeStampMaster (fileModificationSkew 10)
allowSystemOperations : Allowing user-supplied system call operations

// * * * * * * * * * * * * * * * * * * * * * * * * * * * * * * * * * * * * * //
Create time

Create mesh for time = 0

Reading transportProperties

Reading field p

Reading field U

Reading/calculating face flux field phi


Starting time loop

Time = 0.00117647

Courant Number mean: 0.17078 max: 0.958539
DILUPBiCGStab:  Solving for Ux, Initial residual = 0.08035, Final residual = 0.000200532, No Iterations 5
DILUPBiCGStab:  Solving for Uy, Initial residual = 0.159613, Final residual = 0.00056519, No Iterations 5
DILUPBiCGStab:  Solving for Uz, Initial residual = 0.222246, Final residual = 0.000790216, No Iterations 5
linear solve U 672118
[OGL LOG] init_host_sparsity_pattern : 179 ms
[OGL LOG] matrix not stored update host matrix
[OGL LOG] update_host_mtx : 97 ms
[OGL LOG] matrix is not yet sorted, compute sorting idxs
[OGL LOG] compute_sort : 5747 ms
[OGL LOG] matrix is not yet sorted, sorting host matrix
[OGL LOG] sort_host_mtx_sparsity_pattern : 127 ms
[OGL LOG] sort_host_mtx : 76 ms
[OGL LOG] init_preconditioner : 0 ms
[OGL LOG] solve : 584 ms
nonecudaGKOCG:  Solving for p, Initial residual = 0.643964, Final residual = 9.8061e-07, No Iterations 706
linear solve p 7621410
time step continuity errors : sum local = 7.87008e-10, global = 2.17952e-20, cumulative = 2.17952e-20
[OGL LOG] init_preconditioner : 0 ms
[OGL LOG] solve : 585 ms
nonecudaGKOCG:  Solving for p, Initial residual = 0.369996, Final residual = 9.37684e-07, No Iterations 705
linear solve p 605544
time step continuity errors : sum local = 6.68941e-10, global = 4.94867e-21, cumulative = 2.67439e-20
ExecutionTime = 12.13 s  ClockTime = 12 s

Time = 0.00235294

Courant Number mean: 0.17242 max: 0.959521
DILUPBiCGStab:  Solving for Ux, Initial residual = 0.00668669, Final residual = 4.22369e-05, No Iterations 5
DILUPBiCGStab:  Solving for Uy, Initial residual = 0.0171906, Final residual = 0.000144526, No Iterations 5
DILUPBiCGStab:  Solving for Uz, Initial residual = 0.0433657, Final residual = 0.000582341, No Iterations 5
linear solve U 620088
[OGL LOG] init_preconditioner : 0 ms
[OGL LOG] solve : 594 ms
nonecudaGKOCG:  Solving for p, Initial residual = 0.435511, Final residual = 9.58894e-07, No Iterations 716
linear solve p 613642
time step continuity errors : sum local = 8.12452e-08, global = -1.37007e-20, cumulative = 1.30431e-20
[OGL LOG] init_preconditioner : 0 ms
[OGL LOG] solve : 595 ms
nonecudaGKOCG:  Solving for p, Initial residual = 0.303854, Final residual = 9.90566e-07, No Iterations 713
linear solve p 614992
time step continuity errors : sum local = 7.0224e-08, global = 4.14861e-21, cumulative = 1.71917e-20
ExecutionTime = 14.34 s  ClockTime = 14 s

Time = 0.00352941

Courant Number mean: 0.173894 max: 0.959456
DILUPBiCGStab:  Solving for Ux, Initial residual = 0.00333713, Final residual = 3.14697e-05, No Iterations 5
DILUPBiCGStab:  Solving for Uy, Initial residual = 0.00945612, Final residual = 8.96576e-05, No Iterations 5
DILUPBiCGStab:  Solving for Uz, Initial residual = 0.0306847, Final residual = 0.000410277, No Iterations 5
linear solve U 619792
[OGL LOG] init_preconditioner : 0 ms
[OGL LOG] solve : 588 ms
nonecudaGKOCG:  Solving for p, Initial residual = 0.299931, Final residual = 9.75143e-07, No Iterations 712
linear solve p 608703
time step continuity errors : sum local = 6.82894e-08, global = -2.14978e-20, cumulative = -4.30607e-21
[OGL LOG] init_preconditioner : 0 ms
[OGL LOG] solve : 591 ms
nonecudaGKOCG:  Solving for p, Initial residual = 0.215688, Final residual = 9.80722e-07, No Iterations 710
linear solve p 610634
time step continuity errors : sum local = 6.84649e-08, global = 9.65472e-21, cumulative = 5.34865e-21
ExecutionTime = 16.55 s  ClockTime = 16 s

Time = 0.00470588

Courant Number mean: 0.175264 max: 0.959792
DILUPBiCGStab:  Solving for Ux, Initial residual = 0.00248731, Final residual = 2.07235e-05, No Iterations 5
DILUPBiCGStab:  Solving for Uy, Initial residual = 0.00741671, Final residual = 5.77347e-05, No Iterations 5
DILUPBiCGStab:  Solving for Uz, Initial residual = 0.0248518, Final residual = 0.000346989, No Iterations 5
linear solve U 601085
[OGL LOG] init_preconditioner : 0 ms
[OGL LOG] solve : 583 ms
nonecudaGKOCG:  Solving for p, Initial residual = 0.231305, Final residual = 9.95187e-07, No Iterations 701
linear solve p 605656
time step continuity errors : sum local = 6.99329e-08, global = -2.06022e-20, cumulative = -1.52536e-20
[OGL LOG] init_preconditioner : 0 ms
[OGL LOG] solve : 579 ms
nonecudaGKOCG:  Solving for p, Initial residual = 0.174242, Final residual = 9.964e-07, No Iterations 698
linear solve p 598802
time step continuity errors : sum local = 6.91855e-08, global = 1.22791e-20, cumulative = -2.97447e-21
ExecutionTime = 18.74 s  ClockTime = 18 s

Time = 0.00588235

Courant Number mean: 0.176537 max: 0.960088
DILUPBiCGStab:  Solving for Ux, Initial residual = 0.00205611, Final residual = 1.50289e-05, No Iterations 5
DILUPBiCGStab:  Solving for Uy, Initial residual = 0.00597112, Final residual = 3.61316e-05, No Iterations 5
DILUPBiCGStab:  Solving for Uz, Initial residual = 0.0198535, Final residual = 0.000272437, No Iterations 5
linear solve U 606200
[OGL LOG] init_preconditioner : 0 ms
[OGL LOG] solve : 579 ms
nonecudaGKOCG:  Solving for p, Initial residual = 0.174287, Final residual = 9.96727e-07, No Iterations 695
linear solve p 598411
time step continuity errors : sum local = 6.92355e-08, global = 2.60077e-20, cumulative = 2.30333e-20
[OGL LOG] init_preconditioner : 0 ms
[OGL LOG] solve : 573 ms
nonecudaGKOCG:  Solving for p, Initial residual = 0.135155, Final residual = 9.94613e-07, No Iterations 692
linear solve p 592963
time step continuity errors : sum local = 6.88043e-08, global = 1.1663e-20, cumulative = 3.46963e-20
ExecutionTime = 20.91 s  ClockTime = 21 s

Time = 0.00705882

Courant Number mean: 0.177704 max: 0.960428
DILUPBiCGStab:  Solving for Ux, Initial residual = 0.00174907, Final residual = 1.21877e-05, No Iterations 5
DILUPBiCGStab:  Solving for Uy, Initial residual = 0.00512412, Final residual = 2.67729e-05, No Iterations 5
DILUPBiCGStab:  Solving for Uz, Initial residual = 0.016579, Final residual = 0.000216575, No Iterations 5
linear solve U 614862
[OGL LOG] init_preconditioner : 0 ms
[OGL LOG] solve : 569 ms
nonecudaGKOCG:  Solving for p, Initial residual = 0.141168, Final residual = 9.89071e-07, No Iterations 686
linear solve p 588496
time step continuity errors : sum local = 6.89694e-08, global = 4.89052e-21, cumulative = 3.95868e-20
[OGL LOG] init_preconditioner : 0 ms
[OGL LOG] solve : 572 ms
nonecudaGKOCG:  Solving for p, Initial residual = 0.112335, Final residual = 9.74881e-07, No Iterations 685
linear solve p 594665
time step continuity errors : sum local = 6.89813e-08, global = 1.16583e-20, cumulative = 5.12451e-20
ExecutionTime = 23.08 s  ClockTime = 23 s

Time = 0.00823529

Courant Number mean: 0.178771 max: 0.960686
DILUPBiCGStab:  Solving for Ux, Initial residual = 0.00151464, Final residual = 9.78459e-06, No Iterations 5
DILUPBiCGStab:  Solving for Uy, Initial residual = 0.00444476, Final residual = 2.00473e-05, No Iterations 5
DILUPBiCGStab:  Solving for Uz, Initial residual = 0.0136218, Final residual = 0.000161975, No Iterations 5
linear solve U 612817
[OGL LOG] init_preconditioner : 0 ms
[OGL LOG] solve : 569 ms
nonecudaGKOCG:  Solving for p, Initial residual = 0.11392, Final residual = 9.77714e-07, No Iterations 684
linear solve p 588635
time step continuity errors : sum local = 6.91573e-08, global = 2.0336e-20, cumulative = 7.15811e-20
[OGL LOG] init_preconditioner : 0 ms
[OGL LOG] solve : 567 ms
nonecudaGKOCG:  Solving for p, Initial residual = 0.0918217, Final residual = 9.57416e-07, No Iterations 682
linear solve p 586378
time step continuity errors : sum local = 6.8865e-08, global = -1.37159e-20, cumulative = 5.78652e-20
ExecutionTime = 25.24 s  ClockTime = 25 s

Time = 0.00941176

Courant Number mean: 0.179753 max: 0.960953
DILUPBiCGStab:  Solving for Ux, Initial residual = 0.00134501, Final residual = 8.39648e-06, No Iterations 5
DILUPBiCGStab:  Solving for Uy, Initial residual = 0.00391833, Final residual = 1.64924e-05, No Iterations 5
DILUPBiCGStab:  Solving for Uz, Initial residual = 0.0115652, Final residual = 0.000123218, No Iterations 5
linear solve U 604265
[OGL LOG] init_preconditioner : 0 ms
[OGL LOG] solve : 560 ms
nonecudaGKOCG:  Solving for p, Initial residual = 0.0945184, Final residual = 9.64653e-07, No Iterations 678
linear solve p 579759
time step continuity errors : sum local = 6.88678e-08, global = 1.95803e-20, cumulative = 7.74455e-20
[OGL LOG] init_preconditioner : 0 ms
[OGL LOG] solve : 567 ms
nonecudaGKOCG:  Solving for p, Initial residual = 0.077101, Final residual = 9.42381e-07, No Iterations 677
linear solve p 588237
time step continuity errors : sum local = 6.89161e-08, global = 7.76493e-21, cumulative = 8.52104e-20
ExecutionTime = 27.37 s  ClockTime = 27 s

Time = 0.0105882

Courant Number mean: 0.180649 max: 0.961168
DILUPBiCGStab:  Solving for Ux, Initial residual = 0.00118528, Final residual = 6.93794e-06, No Iterations 5
DILUPBiCGStab:  Solving for Uy, Initial residual = 0.00349481, Final residual = 1.38699e-05, No Iterations 5
DILUPBiCGStab:  Solving for Uz, Initial residual = 0.00963612, Final residual = 8.71408e-05, No Iterations 5
linear solve U 610200
[OGL LOG] init_preconditioner : 0 ms
[OGL LOG] solve : 555 ms
nonecudaGKOCG:  Solving for p, Initial residual = 0.0787014, Final residual = 9.72321e-07, No Iterations 674
linear solve p 574133
time step continuity errors : sum local = 6.90568e-08, global = -1.44597e-20, cumulative = 7.07507e-20
[OGL LOG] init_preconditioner : 0 ms
[OGL LOG] solve : 556 ms
nonecudaGKOCG:  Solving for p, Initial residual = 0.0645002, Final residual = 9.84406e-07, No Iterations 672
linear solve p 575323
time step continuity errors : sum local = 6.88884e-08, global = -1.40058e-20, cumulative = 5.6745e-20
ExecutionTime = 29.51 s  ClockTime = 29 s

Time = 0.0117647

Courant Number mean: 0.181477 max: 0.961382
DILUPBiCGStab:  Solving for Ux, Initial residual = 0.00107352, Final residual = 6.1224e-06, No Iterations 5
DILUPBiCGStab:  Solving for Uy, Initial residual = 0.0031257, Final residual = 1.24596e-05, No Iterations 5
DILUPBiCGStab:  Solving for Uz, Initial residual = 0.00836332, Final residual = 6.59336e-05, No Iterations 5
linear solve U 613388
[OGL LOG] init_preconditioner : 0 ms
[OGL LOG] solve : 552 ms
nonecudaGKOCG:  Solving for p, Initial residual = 0.0658935, Final residual = 9.79584e-07, No Iterations 670
linear solve p 571860
time step continuity errors : sum local = 6.88692e-08, global = -1.56243e-21, cumulative = 5.51825e-20
[OGL LOG] init_preconditioner : 0 ms
[OGL LOG] solve : 544 ms
nonecudaGKOCG:  Solving for p, Initial residual = 0.0542656, Final residual = 9.87402e-07, No Iterations 668
linear solve p 563712
time step continuity errors : sum local = 6.8905e-08, global = 1.4661e-20, cumulative = 6.98436e-20
ExecutionTime = 31.62 s  ClockTime = 31 s

End

