/*---------------------------------------------------------------------------*\
  =========                 |
  \\      /  F ield         | OpenFOAM: The Open Source CFD Toolbox
   \\    /   O peration     | Website:  https://openfoam.org
    \\  /    A nd           | Version:  8
     \\/     M anipulation  |
\*---------------------------------------------------------------------------*/
Build  : 8-ef60d22ea792
Exec   : icoFoam
Date   : Sep 15 2021
Time   : 13:27:26
Host   : "uc2n438.localdomain"
PID    : 3542030
I/O    : uncollated
Case   : /pfs/data5/home/kit/scc/nq7776/data/code/OBR/lidDrivenCavity3D/Variation_init/100/Variation_mesh/40/Variation_matrix_solver/CG_NoPrecond_Serial/1631705244
nProcs : 1
sigFpe : Enabling floating point exception trapping (FOAM_SIGFPE).
fileModificationChecking : Monitoring run-time modified files using timeStampMaster (fileModificationSkew 10)
allowSystemOperations : Allowing user-supplied system call operations

// * * * * * * * * * * * * * * * * * * * * * * * * * * * * * * * * * * * * * //
Create time

Create mesh for time = 0

Reading transportProperties

Reading field p

Reading field U

Reading/calculating face flux field phi


Starting time loop

Time = 0.0025

Courant Number mean: 0.170274 max: 0.898977
DILUPBiCGStab:  Solving for Ux, Initial residual = 0.0777941, Final residual = 5.00153e-06, No Iterations 5
DILUPBiCGStab:  Solving for Uy, Initial residual = 0.123446, Final residual = 1.39078e-05, No Iterations 5
DILUPBiCGStab:  Solving for Uz, Initial residual = 0.127456, Final residual = 2.53141e-05, No Iterations 5
linear solve U 55418
nonePCG:  Solving for p, Initial residual = 0.406972, Final residual = 9.48413e-07, No Iterations 327
linear solve p 241272
time step continuity errors : sum local = 2.26674e-09, global = -4.63262e-20, cumulative = -4.63262e-20
nonePCG:  Solving for p, Initial residual = 0.212572, Final residual = 8.76466e-07, No Iterations 326
linear solve p 238334
time step continuity errors : sum local = 1.68471e-09, global = 5.25021e-20, cumulative = 6.17587e-21
ExecutionTime = 0.89 s  ClockTime = 1 s

Time = 0.005

Courant Number mean: 0.173472 max: 0.913614
DILUPBiCGStab:  Solving for Ux, Initial residual = 0.00786556, Final residual = 6.97739e-06, No Iterations 5
DILUPBiCGStab:  Solving for Uy, Initial residual = 0.0156864, Final residual = 1.02458e-05, No Iterations 5
DILUPBiCGStab:  Solving for Uz, Initial residual = 0.0331145, Final residual = 1.79201e-05, No Iterations 5
linear solve U 49532
nonePCG:  Solving for p, Initial residual = 0.146666, Final residual = 9.95364e-07, No Iterations 322
linear solve p 238608
time step continuity errors : sum local = 1.72151e-09, global = 5.72743e-20, cumulative = 6.34501e-20
nonePCG:  Solving for p, Initial residual = 0.104782, Final residual = 9.86692e-07, No Iterations 320
linear solve p 209905
time step continuity errors : sum local = 1.68065e-09, global = 1.17283e-20, cumulative = 7.51784e-20
ExecutionTime = 1.42 s  ClockTime = 2 s

Time = 0.0075

Courant Number mean: 0.17602 max: 0.915376
DILUPBiCGStab:  Solving for Ux, Initial residual = 0.00346384, Final residual = 3.30871e-06, No Iterations 5
DILUPBiCGStab:  Solving for Uy, Initial residual = 0.00930351, Final residual = 5.91558e-06, No Iterations 5
DILUPBiCGStab:  Solving for Uz, Initial residual = 0.0178886, Final residual = 9.63419e-06, No Iterations 5
linear solve U 49149
nonePCG:  Solving for p, Initial residual = 0.0595682, Final residual = 9.72071e-07, No Iterations 315
linear solve p 207607
time step continuity errors : sum local = 1.67499e-09, global = -2.71113e-21, cumulative = 7.24673e-20
nonePCG:  Solving for p, Initial residual = 0.0435587, Final residual = 9.87142e-07, No Iterations 310
linear solve p 205471
time step continuity errors : sum local = 1.71669e-09, global = -1.49342e-20, cumulative = 5.7533e-20
ExecutionTime = 1.91 s  ClockTime = 2 s

Time = 0.01

Courant Number mean: 0.178224 max: 0.9168
DILUPBiCGStab:  Solving for Ux, Initial residual = 0.00264595, Final residual = 1.07548e-06, No Iterations 5
DILUPBiCGStab:  Solving for Uy, Initial residual = 0.00688017, Final residual = 2.61776e-06, No Iterations 5
DILUPBiCGStab:  Solving for Uz, Initial residual = 0.0130774, Final residual = 5.09687e-06, No Iterations 5
linear solve U 47258
nonePCG:  Solving for p, Initial residual = 0.0322274, Final residual = 9.42346e-07, No Iterations 309
linear solve p 203030
time step continuity errors : sum local = 1.59418e-09, global = 5.46367e-22, cumulative = 5.80794e-20
nonePCG:  Solving for p, Initial residual = 0.0246126, Final residual = 9.70299e-07, No Iterations 306
linear solve p 201242
time step continuity errors : sum local = 1.63425e-09, global = -4.82697e-20, cumulative = 9.80968e-21
ExecutionTime = 2.39 s  ClockTime = 3 s

Time = 0.0125

Courant Number mean: 0.180054 max: 0.917664
DILUPBiCGStab:  Solving for Ux, Initial residual = 0.0021091, Final residual = 6.87274e-07, No Iterations 5
DILUPBiCGStab:  Solving for Uy, Initial residual = 0.00541048, Final residual = 9.63345e-07, No Iterations 5
DILUPBiCGStab:  Solving for Uz, Initial residual = 0.00995403, Final residual = 2.78774e-06, No Iterations 5
linear solve U 47407
nonePCG:  Solving for p, Initial residual = 0.0202266, Final residual = 9.80088e-07, No Iterations 295
linear solve p 194069
time step continuity errors : sum local = 1.65941e-09, global = 3.59003e-20, cumulative = 4.571e-20
nonePCG:  Solving for p, Initial residual = 0.0155682, Final residual = 9.88647e-07, No Iterations 293
linear solve p 192528
time step continuity errors : sum local = 1.67804e-09, global = 2.76277e-20, cumulative = 7.33377e-20
ExecutionTime = 2.86 s  ClockTime = 3 s

Time = 0.015

Courant Number mean: 0.181609 max: 0.918509
DILUPBiCGStab:  Solving for Ux, Initial residual = 0.0017419, Final residual = 3.58552e-07, No Iterations 5
DILUPBiCGStab:  Solving for Uy, Initial residual = 0.00457546, Final residual = 8.59508e-07, No Iterations 5
DILUPBiCGStab:  Solving for Uz, Initial residual = 0.00838472, Final residual = 2.26842e-06, No Iterations 5
linear solve U 48070
nonePCG:  Solving for p, Initial residual = 0.0124372, Final residual = 9.05338e-07, No Iterations 290
linear solve p 191155
time step continuity errors : sum local = 1.52828e-09, global = -3.05465e-20, cumulative = 4.27912e-20
nonePCG:  Solving for p, Initial residual = 0.00997377, Final residual = 8.86602e-07, No Iterations 289
linear solve p 190773
time step continuity errors : sum local = 1.49542e-09, global = -8.17242e-20, cumulative = -3.8933e-20
ExecutionTime = 3.32 s  ClockTime = 4 s

Time = 0.0175

Courant Number mean: 0.182919 max: 0.919116
DILUPBiCGStab:  Solving for Ux, Initial residual = 0.00145911, Final residual = 2.82632e-07, No Iterations 5
DILUPBiCGStab:  Solving for Uy, Initial residual = 0.00377366, Final residual = 5.35143e-07, No Iterations 5
DILUPBiCGStab:  Solving for Uz, Initial residual = 0.00672679, Final residual = 1.32768e-06, No Iterations 5
linear solve U 47525
nonePCG:  Solving for p, Initial residual = 0.00873866, Final residual = 9.15207e-07, No Iterations 288
linear solve p 189358
time step continuity errors : sum local = 1.54529e-09, global = 3.50757e-20, cumulative = -3.85721e-21
nonePCG:  Solving for p, Initial residual = 0.00701572, Final residual = 9.76651e-07, No Iterations 286
linear solve p 187895
time step continuity errors : sum local = 1.65021e-09, global = -8.80532e-20, cumulative = -9.19105e-20
ExecutionTime = 3.77 s  ClockTime = 4 s

Time = 0.02

Courant Number mean: 0.184033 max: 0.919668
DILUPBiCGStab:  Solving for Ux, Initial residual = 0.00122818, Final residual = 1.57073e-07, No Iterations 5
DILUPBiCGStab:  Solving for Uy, Initial residual = 0.00323102, Final residual = 5.2202e-07, No Iterations 5
DILUPBiCGStab:  Solving for Uz, Initial residual = 0.00573446, Final residual = 1.18332e-06, No Iterations 5
linear solve U 48031
nonePCG:  Solving for p, Initial residual = 0.00585682, Final residual = 8.93055e-07, No Iterations 296
linear solve p 194768
time step continuity errors : sum local = 1.50726e-09, global = -4.45909e-20, cumulative = -1.36501e-19
nonePCG:  Solving for p, Initial residual = 0.00491703, Final residual = 8.99864e-07, No Iterations 295
linear solve p 194371
time step continuity errors : sum local = 1.51856e-09, global = 6.98854e-20, cumulative = -6.6616e-20
ExecutionTime = 4.24 s  ClockTime = 5 s

Time = 0.0225

Courant Number mean: 0.184978 max: 0.920092
DILUPBiCGStab:  Solving for Ux, Initial residual = 0.00104121, Final residual = 1.36363e-07, No Iterations 5
DILUPBiCGStab:  Solving for Uy, Initial residual = 0.00272319, Final residual = 3.7826e-07, No Iterations 5
DILUPBiCGStab:  Solving for Uz, Initial residual = 0.00472888, Final residual = 8.70498e-07, No Iterations 5
linear solve U 47292
nonePCG:  Solving for p, Initial residual = 0.00445787, Final residual = 9.74284e-07, No Iterations 287
linear solve p 188855
time step continuity errors : sum local = 1.64508e-09, global = 7.80351e-21, cumulative = -5.88124e-20
nonePCG:  Solving for p, Initial residual = 0.0037935, Final residual = 9.45214e-07, No Iterations 286
linear solve p 188605
time step continuity errors : sum local = 1.59655e-09, global = 6.98249e-20, cumulative = 1.10124e-20
ExecutionTime = 4.7 s  ClockTime = 5 s

Time = 0.025

Courant Number mean: 0.185785 max: 0.920464
DILUPBiCGStab:  Solving for Ux, Initial residual = 0.000884701, Final residual = 9.18e-08, No Iterations 5
DILUPBiCGStab:  Solving for Uy, Initial residual = 0.00233885, Final residual = 4.80422e-07, No Iterations 5
DILUPBiCGStab:  Solving for Uz, Initial residual = 0.00401991, Final residual = 7.58815e-07, No Iterations 5
linear solve U 47413
nonePCG:  Solving for p, Initial residual = 0.00328352, Final residual = 9.90118e-07, No Iterations 286
linear solve p 187921
time step continuity errors : sum local = 1.67243e-09, global = -2.06092e-20, cumulative = -9.59682e-21
nonePCG:  Solving for p, Initial residual = 0.00288912, Final residual = 9.94066e-07, No Iterations 284
linear solve p 187411
time step continuity errors : sum local = 1.67913e-09, global = -2.10206e-20, cumulative = -3.06175e-20
ExecutionTime = 5.15 s  ClockTime = 5 s

End

