/*---------------------------------------------------------------------------*\
  =========                 |
  \\      /  F ield         | OpenFOAM: The Open Source CFD Toolbox
   \\    /   O peration     | Website:  https://openfoam.org
    \\  /    A nd           | Version:  8
     \\/     M anipulation  |
\*---------------------------------------------------------------------------*/
Build  : 8-ef60d22ea792
Exec   : icoFoam
Date   : Sep 15 2021
Time   : 14:03:33
Host   : "uc2n482.localdomain"
PID    : 3640214
I/O    : uncollated
Case   : /pfs/data5/home/kit/scc/nq7776/data/code/OBR/lidDrivenCavity3D/Variation_init/100/Variation_mesh/30/Variation_matrix_solver/CG_ILU_CUDA/1631707410
nProcs : 1
sigFpe : Enabling floating point exception trapping (FOAM_SIGFPE).
fileModificationChecking : Monitoring run-time modified files using timeStampMaster (fileModificationSkew 10)
allowSystemOperations : Allowing user-supplied system call operations

// * * * * * * * * * * * * * * * * * * * * * * * * * * * * * * * * * * * * * //
Create time

Create mesh for time = 0

Reading transportProperties

Reading field p

Reading field U

Reading/calculating face flux field phi


Starting time loop

Time = 0.00333333

Courant Number mean: 0.169907 max: 0.893517
DILUPBiCGStab:  Solving for Ux, Initial residual = 0.0911511, Final residual = 3.95829e-06, No Iterations 5
DILUPBiCGStab:  Solving for Uy, Initial residual = 0.158672, Final residual = 5.65407e-06, No Iterations 5
DILUPBiCGStab:  Solving for Uz, Initial residual = 0.266117, Final residual = 9.88141e-06, No Iterations 5
linear solve U 19875
[OGL LOG] init_host_sparsity_pattern : 7 ms
[OGL LOG] matrix not stored update host matrix
[OGL LOG] update_host_mtx : 3 ms
[OGL LOG] matrix is not yet sorted, compute sorting idxs
[OGL LOG] compute_sort : 196 ms
[OGL LOG] matrix is not yet sorted, sorting host matrix
[OGL LOG] sort_host_mtx_sparsity_pattern : 4 ms
[OGL LOG] sort_host_mtx : 2 ms
[OGL LOG] init_preconditioner : 12 ms
[OGL LOG] solve : 39 ms
ILUcudaGKOCG:  Solving for p, Initial residual = 0.542954, Final residual = 9.00985e-07, No Iterations 78
linear solve p 1011331
time step continuity errors : sum local = 4.21132e-09, global = 3.28179e-20, cumulative = 3.28179e-20
[OGL LOG] init_preconditioner : 0 ms
[OGL LOG] solve : 39 ms
ILUcudaGKOCG:  Solving for p, Initial residual = 0.318921, Final residual = 9.24411e-07, No Iterations 78
linear solve p 39871
time step continuity errors : sum local = 2.83844e-09, global = -5.58065e-20, cumulative = -2.29886e-20
ExecutionTime = 1.23 s  ClockTime = 1 s

Time = 0.00666667

Courant Number mean: 0.173776 max: 0.888266
DILUPBiCGStab:  Solving for Ux, Initial residual = 0.0119482, Final residual = 2.97168e-06, No Iterations 5
DILUPBiCGStab:  Solving for Uy, Initial residual = 0.0223252, Final residual = 3.40216e-06, No Iterations 5
DILUPBiCGStab:  Solving for Uz, Initial residual = 0.0596879, Final residual = 5.25461e-06, No Iterations 5
linear solve U 18481
[OGL LOG] init_preconditioner : 0 ms
[OGL LOG] solve : 38 ms
ILUcudaGKOCG:  Solving for p, Initial residual = 0.156723, Final residual = 7.19684e-07, No Iterations 77
linear solve p 39606
time step continuity errors : sum local = 9.9256e-07, global = 3.2776e-20, cumulative = 9.78743e-21
[OGL LOG] init_preconditioner : 0 ms
[OGL LOG] solve : 42 ms
ILUcudaGKOCG:  Solving for p, Initial residual = 0.0960165, Final residual = 4.67661e-07, No Iterations 77
linear solve p 43211
time step continuity errors : sum local = 8.86287e-07, global = -1.82947e-19, cumulative = -1.7316e-19
ExecutionTime = 1.34 s  ClockTime = 2 s

Time = 0.01

Courant Number mean: 0.176716 max: 0.888542
DILUPBiCGStab:  Solving for Ux, Initial residual = 0.00409283, Final residual = 6.70343e-07, No Iterations 5
DILUPBiCGStab:  Solving for Uy, Initial residual = 0.00964202, Final residual = 1.18557e-06, No Iterations 5
DILUPBiCGStab:  Solving for Uz, Initial residual = 0.0232391, Final residual = 3.07815e-06, No Iterations 5
linear solve U 17877
[OGL LOG] init_preconditioner : 0 ms
[OGL LOG] solve : 37 ms
ILUcudaGKOCG:  Solving for p, Initial residual = 0.0542667, Final residual = 9.3585e-07, No Iterations 74
linear solve p 38013
time step continuity errors : sum local = 8.68207e-07, global = 7.69747e-20, cumulative = -9.61851e-20
[OGL LOG] init_preconditioner : 0 ms
[OGL LOG] solve : 36 ms
ILUcudaGKOCG:  Solving for p, Initial residual = 0.0362382, Final residual = 9.57639e-07, No Iterations 73
linear solve p 37350
time step continuity errors : sum local = 8.81054e-07, global = 3.66799e-20, cumulative = -5.95051e-20
ExecutionTime = 1.45 s  ClockTime = 2 s

Time = 0.0133333

Courant Number mean: 0.179156 max: 0.890256
DILUPBiCGStab:  Solving for Ux, Initial residual = 0.00297517, Final residual = 3.25966e-07, No Iterations 5
DILUPBiCGStab:  Solving for Uy, Initial residual = 0.00703807, Final residual = 6.19406e-07, No Iterations 5
DILUPBiCGStab:  Solving for Uz, Initial residual = 0.0128691, Final residual = 1.19799e-06, No Iterations 5
linear solve U 18154
[OGL LOG] init_preconditioner : 0 ms
[OGL LOG] solve : 36 ms
ILUcudaGKOCG:  Solving for p, Initial residual = 0.0253461, Final residual = 8.71875e-07, No Iterations 72
linear solve p 36929
time step continuity errors : sum local = 8.83866e-07, global = 6.06234e-20, cumulative = 1.11823e-21
[OGL LOG] init_preconditioner : 0 ms
[OGL LOG] solve : 34 ms
ILUcudaGKOCG:  Solving for p, Initial residual = 0.0181716, Final residual = 9.41922e-07, No Iterations 69
linear solve p 35551
time step continuity errors : sum local = 8.81921e-07, global = -6.91349e-20, cumulative = -6.80167e-20
ExecutionTime = 1.54 s  ClockTime = 2 s

Time = 0.0166667

Courant Number mean: 0.181129 max: 0.891457
DILUPBiCGStab:  Solving for Ux, Initial residual = 0.00228107, Final residual = 2.37426e-07, No Iterations 5
DILUPBiCGStab:  Solving for Uy, Initial residual = 0.00534312, Final residual = 4.69098e-07, No Iterations 5
DILUPBiCGStab:  Solving for Uz, Initial residual = 0.00928407, Final residual = 5.65264e-07, No Iterations 5
linear solve U 18198
[OGL LOG] init_preconditioner : 0 ms
[OGL LOG] solve : 35 ms
ILUcudaGKOCG:  Solving for p, Initial residual = 0.014293, Final residual = 8.90372e-07, No Iterations 71
linear solve p 36542
time step continuity errors : sum local = 8.80721e-07, global = 2.6628e-20, cumulative = -4.13887e-20
[OGL LOG] init_preconditioner : 0 ms
[OGL LOG] solve : 35 ms
ILUcudaGKOCG:  Solving for p, Initial residual = 0.0104795, Final residual = 9.95568e-07, No Iterations 70
linear solve p 36027
time step continuity errors : sum local = 8.82011e-07, global = 3.90415e-20, cumulative = -2.34714e-21
ExecutionTime = 1.65 s  ClockTime = 2 s

Time = 0.02

Courant Number mean: 0.182723 max: 0.892519
DILUPBiCGStab:  Solving for Ux, Initial residual = 0.00179243, Final residual = 1.43062e-07, No Iterations 5
DILUPBiCGStab:  Solving for Uy, Initial residual = 0.00435019, Final residual = 3.47687e-07, No Iterations 5
DILUPBiCGStab:  Solving for Uz, Initial residual = 0.00736277, Final residual = 4.39703e-07, No Iterations 5
linear solve U 18225
[OGL LOG] init_preconditioner : 0 ms
[OGL LOG] solve : 35 ms
ILUcudaGKOCG:  Solving for p, Initial residual = 0.00820924, Final residual = 8.18397e-07, No Iterations 70
linear solve p 36153
time step continuity errors : sum local = 8.81397e-07, global = -7.35901e-20, cumulative = -7.59373e-20
[OGL LOG] init_preconditioner : 0 ms
[OGL LOG] solve : 37 ms
ILUcudaGKOCG:  Solving for p, Initial residual = 0.00653746, Final residual = 8.70183e-07, No Iterations 69
linear solve p 38631
time step continuity errors : sum local = 8.81859e-07, global = -1.72533e-19, cumulative = -2.48471e-19
ExecutionTime = 1.76 s  ClockTime = 2 s

Time = 0.0233333

Courant Number mean: 0.184011 max: 0.893289
DILUPBiCGStab:  Solving for Ux, Initial residual = 0.00143715, Final residual = 1.09348e-07, No Iterations 5
DILUPBiCGStab:  Solving for Uy, Initial residual = 0.003479, Final residual = 2.43285e-07, No Iterations 5
DILUPBiCGStab:  Solving for Uz, Initial residual = 0.00575739, Final residual = 2.5728e-07, No Iterations 5
linear solve U 18209
[OGL LOG] init_preconditioner : 0 ms
[OGL LOG] solve : 33 ms
ILUcudaGKOCG:  Solving for p, Initial residual = 0.00545573, Final residual = 7.56536e-07, No Iterations 67
linear solve p 34591
time step continuity errors : sum local = 8.81469e-07, global = -8.50531e-21, cumulative = -2.56976e-19
[OGL LOG] init_preconditioner : 0 ms
[OGL LOG] solve : 33 ms
ILUcudaGKOCG:  Solving for p, Initial residual = 0.00442781, Final residual = 7.01751e-07, No Iterations 67
linear solve p 34304
time step continuity errors : sum local = 8.81776e-07, global = -4.62697e-20, cumulative = -3.03246e-19
ExecutionTime = 1.85 s  ClockTime = 2 s

Time = 0.0266667

Courant Number mean: 0.185057 max: 0.893926
DILUPBiCGStab:  Solving for Ux, Initial residual = 0.00115894, Final residual = 5.4303e-08, No Iterations 5
DILUPBiCGStab:  Solving for Uy, Initial residual = 0.0028549, Final residual = 1.87691e-07, No Iterations 5
DILUPBiCGStab:  Solving for Uz, Initial residual = 0.00465468, Final residual = 2.32303e-07, No Iterations 5
linear solve U 18212
[OGL LOG] init_preconditioner : 0 ms
[OGL LOG] solve : 33 ms
ILUcudaGKOCG:  Solving for p, Initial residual = 0.00385813, Final residual = 8.53374e-07, No Iterations 67
linear solve p 34500
time step continuity errors : sum local = 8.81637e-07, global = -3.25937e-20, cumulative = -3.35839e-19
[OGL LOG] init_preconditioner : 0 ms
[OGL LOG] solve : 33 ms
ILUcudaGKOCG:  Solving for p, Initial residual = 0.00327647, Final residual = 9.51691e-07, No Iterations 66
linear solve p 33979
time step continuity errors : sum local = 8.82016e-07, global = -1.00308e-19, cumulative = -4.36148e-19
ExecutionTime = 1.95 s  ClockTime = 2 s

Time = 0.03

Courant Number mean: 0.185908 max: 0.894414
DILUPBiCGStab:  Solving for Ux, Initial residual = 0.000942623, Final residual = 5.14426e-08, No Iterations 5
DILUPBiCGStab:  Solving for Uy, Initial residual = 0.0023245, Final residual = 1.37816e-07, No Iterations 5
DILUPBiCGStab:  Solving for Uz, Initial residual = 0.00370845, Final residual = 1.70399e-07, No Iterations 5
linear solve U 18234
[OGL LOG] init_preconditioner : 0 ms
[OGL LOG] solve : 33 ms
ILUcudaGKOCG:  Solving for p, Initial residual = 0.00291738, Final residual = 7.83982e-07, No Iterations 66
linear solve p 33924
time step continuity errors : sum local = 8.81695e-07, global = 9.95353e-20, cumulative = -3.36612e-19
[OGL LOG] init_preconditioner : 0 ms
[OGL LOG] solve : 32 ms
ILUcudaGKOCG:  Solving for p, Initial residual = 0.0025161, Final residual = 9.12273e-07, No Iterations 65
linear solve p 33519
time step continuity errors : sum local = 8.82032e-07, global = 4.73394e-20, cumulative = -2.89273e-19
ExecutionTime = 2.05 s  ClockTime = 2 s

Time = 0.0333333

Courant Number mean: 0.186602 max: 0.894809
DILUPBiCGStab:  Solving for Ux, Initial residual = 0.000767537, Final residual = 2.95644e-08, No Iterations 5
DILUPBiCGStab:  Solving for Uy, Initial residual = 0.00191399, Final residual = 1.26367e-07, No Iterations 5
DILUPBiCGStab:  Solving for Uz, Initial residual = 0.00299425, Final residual = 1.45507e-07, No Iterations 5
linear solve U 17940
[OGL LOG] init_preconditioner : 0 ms
[OGL LOG] solve : 32 ms
ILUcudaGKOCG:  Solving for p, Initial residual = 0.00225669, Final residual = 9.29569e-07, No Iterations 64
linear solve p 33075
time step continuity errors : sum local = 8.81946e-07, global = 7.49529e-21, cumulative = -2.81778e-19
[OGL LOG] init_preconditioner : 0 ms
[OGL LOG] solve : 31 ms
ILUcudaGKOCG:  Solving for p, Initial residual = 0.00198026, Final residual = 9.14636e-07, No Iterations 63
linear solve p 32733
time step continuity errors : sum local = 8.82042e-07, global = -7.50253e-20, cumulative = -3.56803e-19
ExecutionTime = 2.15 s  ClockTime = 2 s

End

