/*---------------------------------------------------------------------------*\
  =========                 |
  \\      /  F ield         | OpenFOAM: The Open Source CFD Toolbox
   \\    /   O peration     | Website:  https://openfoam.org
    \\  /    A nd           | Version:  8
     \\/     M anipulation  |
\*---------------------------------------------------------------------------*/
Build  : 8-ef60d22ea792
Exec   : icoFoam
Date   : Sep 15 2021
Time   : 14:35:01
Host   : "uc2n438.localdomain"
PID    : 3552235
I/O    : uncollated
Case   : /pfs/data5/home/kit/scc/nq7776/data/code/OBR/lidDrivenCavity3D/Variation_init/100/Variation_mesh/60/Variation_matrix_solver/CG_DIC_Serial/1631709294
nProcs : 1
sigFpe : Enabling floating point exception trapping (FOAM_SIGFPE).
fileModificationChecking : Monitoring run-time modified files using timeStampMaster (fileModificationSkew 10)
allowSystemOperations : Allowing user-supplied system call operations

// * * * * * * * * * * * * * * * * * * * * * * * * * * * * * * * * * * * * * //
Create time

Create mesh for time = 0

Reading transportProperties

Reading field p

Reading field U

Reading/calculating face flux field phi


Starting time loop

Time = 0.00166667

Courant Number mean: 0.170807 max: 0.952211
DILUPBiCGStab:  Solving for Ux, Initial residual = 0.0792055, Final residual = 5.33372e-05, No Iterations 5
DILUPBiCGStab:  Solving for Uy, Initial residual = 0.156482, Final residual = 0.000119358, No Iterations 5
DILUPBiCGStab:  Solving for Uz, Initial residual = 0.184257, Final residual = 0.000287594, No Iterations 5
linear solve U 210559
DICPCG:  Solving for p, Initial residual = 0.585485, Final residual = 8.14587e-07, No Iterations 157
linear solve p 760681
time step continuity errors : sum local = 1.06709e-09, global = -1.30444e-20, cumulative = -1.30444e-20
DICPCG:  Solving for p, Initial residual = 0.3301, Final residual = 9.6317e-07, No Iterations 157
linear solve p 757044
time step continuity errors : sum local = 8.0303e-10, global = 3.47442e-20, cumulative = 2.16997e-20
ExecutionTime = 2.86 s  ClockTime = 3 s

Time = 0.00333333

Courant Number mean: 0.172961 max: 0.94273
DILUPBiCGStab:  Solving for Ux, Initial residual = 0.00658966, Final residual = 1.48975e-05, No Iterations 5
DILUPBiCGStab:  Solving for Uy, Initial residual = 0.0148855, Final residual = 2.89964e-05, No Iterations 5
DILUPBiCGStab:  Solving for Uz, Initial residual = 0.0322405, Final residual = 0.00013708, No Iterations 5
linear solve U 192041
DICPCG:  Solving for p, Initial residual = 0.177966, Final residual = 9.02523e-07, No Iterations 154
linear solve p 733245
time step continuity errors : sum local = 7.41933e-10, global = -3.20487e-20, cumulative = -1.03489e-20
DICPCG:  Solving for p, Initial residual = 0.109629, Final residual = 9.40272e-07, No Iterations 153
linear solve p 744179
time step continuity errors : sum local = 7.64375e-10, global = -3.16269e-20, cumulative = -4.19758e-20
ExecutionTime = 4.64 s  ClockTime = 4 s

Time = 0.005

Courant Number mean: 0.174942 max: 0.942976
DILUPBiCGStab:  Solving for Ux, Initial residual = 0.00280058, Final residual = 1.07552e-05, No Iterations 5
DILUPBiCGStab:  Solving for Uy, Initial residual = 0.00743704, Final residual = 1.83052e-05, No Iterations 5
DILUPBiCGStab:  Solving for Uz, Initial residual = 0.0191583, Final residual = 5.76297e-05, No Iterations 5
linear solve U 192291
DICPCG:  Solving for p, Initial residual = 0.0894939, Final residual = 8.30845e-07, No Iterations 153
linear solve p 738632
time step continuity errors : sum local = 6.69023e-10, global = -2.84229e-20, cumulative = -7.03987e-20
DICPCG:  Solving for p, Initial residual = 0.064975, Final residual = 9.79002e-07, No Iterations 152
linear solve p 736706
time step continuity errors : sum local = 7.90169e-10, global = -2.08213e-20, cumulative = -9.122e-20
ExecutionTime = 6.42 s  ClockTime = 6 s

Time = 0.00666667

Courant Number mean: 0.176691 max: 0.943696
DILUPBiCGStab:  Solving for Ux, Initial residual = 0.00221804, Final residual = 6.67386e-06, No Iterations 5
DILUPBiCGStab:  Solving for Uy, Initial residual = 0.00622966, Final residual = 1.2369e-05, No Iterations 5
DILUPBiCGStab:  Solving for Uz, Initial residual = 0.0153502, Final residual = 4.00242e-05, No Iterations 5
linear solve U 191559
DICPCG:  Solving for p, Initial residual = 0.0605721, Final residual = 8.47967e-07, No Iterations 151
linear solve p 726837
time step continuity errors : sum local = 6.66532e-10, global = 3.57366e-21, cumulative = -8.76464e-20
DICPCG:  Solving for p, Initial residual = 0.0455406, Final residual = 9.51817e-07, No Iterations 150
linear solve p 704626
time step continuity errors : sum local = 7.44715e-10, global = -2.21758e-20, cumulative = -1.09822e-19
ExecutionTime = 8.16 s  ClockTime = 8 s

Time = 0.00833333

Courant Number mean: 0.178237 max: 0.944213
DILUPBiCGStab:  Solving for Ux, Initial residual = 0.00187958, Final residual = 3.86791e-06, No Iterations 5
DILUPBiCGStab:  Solving for Uy, Initial residual = 0.0051582, Final residual = 8.51106e-06, No Iterations 5
DILUPBiCGStab:  Solving for Uz, Initial residual = 0.011452, Final residual = 2.71502e-05, No Iterations 5
linear solve U 195939
DICPCG:  Solving for p, Initial residual = 0.0439881, Final residual = 9.14744e-07, No Iterations 149
linear solve p 721819
time step continuity errors : sum local = 7.1825e-10, global = 1.88717e-21, cumulative = -1.07935e-19
DICPCG:  Solving for p, Initial residual = 0.0332893, Final residual = 9.65744e-07, No Iterations 148
linear solve p 715432
time step continuity errors : sum local = 7.6027e-10, global = -2.86077e-21, cumulative = -1.10796e-19
ExecutionTime = 9.9 s  ClockTime = 10 s

Time = 0.01

Courant Number mean: 0.179608 max: 0.944762
DILUPBiCGStab:  Solving for Ux, Initial residual = 0.001613, Final residual = 2.23555e-06, No Iterations 5
DILUPBiCGStab:  Solving for Uy, Initial residual = 0.00452841, Final residual = 5.72748e-06, No Iterations 5
DILUPBiCGStab:  Solving for Uz, Initial residual = 0.00987683, Final residual = 2.15217e-05, No Iterations 5
linear solve U 189634
DICPCG:  Solving for p, Initial residual = 0.0318462, Final residual = 9.72862e-07, No Iterations 147
linear solve p 711526
time step continuity errors : sum local = 7.57641e-10, global = -2.73743e-20, cumulative = -1.3817e-19
DICPCG:  Solving for p, Initial residual = 0.0245606, Final residual = 8.91501e-07, No Iterations 147
linear solve p 713170
time step continuity errors : sum local = 6.93036e-10, global = 2.3159e-20, cumulative = -1.15011e-19
ExecutionTime = 11.63 s  ClockTime = 11 s

Time = 0.0116667

Courant Number mean: 0.180821 max: 0.94515
DILUPBiCGStab:  Solving for Ux, Initial residual = 0.00140486, Final residual = 1.24968e-06, No Iterations 5
DILUPBiCGStab:  Solving for Uy, Initial residual = 0.0038843, Final residual = 3.60919e-06, No Iterations 5
DILUPBiCGStab:  Solving for Uz, Initial residual = 0.00793982, Final residual = 1.60403e-05, No Iterations 5
linear solve U 192019
DICPCG:  Solving for p, Initial residual = 0.0241279, Final residual = 9.12787e-07, No Iterations 146
linear solve p 703188
time step continuity errors : sum local = 7.1068e-10, global = 3.12213e-20, cumulative = -8.37897e-20
DICPCG:  Solving for p, Initial residual = 0.0187398, Final residual = 8.0093e-07, No Iterations 146
linear solve p 696028
time step continuity errors : sum local = 6.24278e-10, global = 2.32386e-21, cumulative = -8.14659e-20
ExecutionTime = 13.34 s  ClockTime = 13 s

Time = 0.0133333

Courant Number mean: 0.181902 max: 0.945551
DILUPBiCGStab:  Solving for Ux, Initial residual = 0.00122985, Final residual = 1.0608e-06, No Iterations 5
DILUPBiCGStab:  Solving for Uy, Initial residual = 0.0034671, Final residual = 2.81477e-06, No Iterations 5
DILUPBiCGStab:  Solving for Uz, Initial residual = 0.00701646, Final residual = 1.26941e-05, No Iterations 5
linear solve U 192095
DICPCG:  Solving for p, Initial residual = 0.0177601, Final residual = 9.12139e-07, No Iterations 145
linear solve p 697901
time step continuity errors : sum local = 7.07358e-10, global = 2.09481e-20, cumulative = -6.05177e-20
DICPCG:  Solving for p, Initial residual = 0.0140079, Final residual = 9.91556e-07, No Iterations 144
linear solve p 694154
time step continuity errors : sum local = 7.68448e-10, global = 2.06952e-20, cumulative = -3.98225e-20
ExecutionTime = 15.04 s  ClockTime = 15 s

Time = 0.015

Courant Number mean: 0.182863 max: 0.945851
DILUPBiCGStab:  Solving for Ux, Initial residual = 0.0010861, Final residual = 7.1178e-07, No Iterations 5
DILUPBiCGStab:  Solving for Uy, Initial residual = 0.00302157, Final residual = 1.60713e-06, No Iterations 5
DILUPBiCGStab:  Solving for Uz, Initial residual = 0.00589328, Final residual = 9.23417e-06, No Iterations 5
linear solve U 191372
DICPCG:  Solving for p, Initial residual = 0.0137823, Final residual = 8.92132e-07, No Iterations 140
linear solve p 675973
time step continuity errors : sum local = 6.92067e-10, global = 4.46403e-20, cumulative = 4.8178e-21
DICPCG:  Solving for p, Initial residual = 0.0109284, Final residual = 8.24214e-07, No Iterations 140
linear solve p 673110
time step continuity errors : sum local = 6.39738e-10, global = -1.87941e-20, cumulative = -1.39763e-20
ExecutionTime = 16.69 s  ClockTime = 16 s

Time = 0.0166667

Courant Number mean: 0.183724 max: 0.946149
DILUPBiCGStab:  Solving for Ux, Initial residual = 0.000958749, Final residual = 7.62304e-07, No Iterations 5
DILUPBiCGStab:  Solving for Uy, Initial residual = 0.00271923, Final residual = 1.46088e-06, No Iterations 5
DILUPBiCGStab:  Solving for Uz, Initial residual = 0.00525506, Final residual = 7.76779e-06, No Iterations 5
linear solve U 185490
DICPCG:  Solving for p, Initial residual = 0.0102851, Final residual = 9.32402e-07, No Iterations 141
linear solve p 678143
time step continuity errors : sum local = 7.2199e-10, global = -1.93313e-20, cumulative = -3.33075e-20
DICPCG:  Solving for p, Initial residual = 0.0082905, Final residual = 9.43534e-07, No Iterations 140
linear solve p 665441
time step continuity errors : sum local = 7.30481e-10, global = 4.29763e-21, cumulative = -2.90099e-20
ExecutionTime = 18.33 s  ClockTime = 18 s

End

