/*---------------------------------------------------------------------------*\
  =========                 |
  \\      /  F ield         | OpenFOAM: The Open Source CFD Toolbox
   \\    /   O peration     | Website:  https://openfoam.org
    \\  /    A nd           | Version:  8
     \\/     M anipulation  |
\*---------------------------------------------------------------------------*/
Build  : 8-ef60d22ea792
Exec   : icoFoam
Date   : Sep 15 2021
Time   : 14:32:36
Host   : "uc2n438.localdomain"
PID    : 3551152
I/O    : uncollated
Case   : /pfs/data5/home/kit/scc/nq7776/data/code/OBR/lidDrivenCavity3D/Variation_init/100/Variation_mesh/50/Variation_matrix_solver/CG_NoPrecond_Serial/1631709152
nProcs : 1
sigFpe : Enabling floating point exception trapping (FOAM_SIGFPE).
fileModificationChecking : Monitoring run-time modified files using timeStampMaster (fileModificationSkew 10)
allowSystemOperations : Allowing user-supplied system call operations

// * * * * * * * * * * * * * * * * * * * * * * * * * * * * * * * * * * * * * //
Create time

Create mesh for time = 0

Reading transportProperties

Reading field p

Reading field U

Reading/calculating face flux field phi


Starting time loop

Time = 0.002

Courant Number mean: 0.171832 max: 0.950949
DILUPBiCGStab:  Solving for Ux, Initial residual = 0.170437, Final residual = 6.82397e-05, No Iterations 5
DILUPBiCGStab:  Solving for Uy, Initial residual = 0.34992, Final residual = 0.000142663, No Iterations 5
DILUPBiCGStab:  Solving for Uz, Initial residual = 0.557699, Final residual = 0.000189983, No Iterations 5
linear solve U 117669
nonePCG:  Solving for p, Initial residual = 0.678275, Final residual = 8.93919e-07, No Iterations 413
linear solve p 581304
time step continuity errors : sum local = 2.68516e-09, global = -3.81576e-20, cumulative = -3.81576e-20
nonePCG:  Solving for p, Initial residual = 0.413581, Final residual = 9.06088e-07, No Iterations 416
linear solve p 585361
time step continuity errors : sum local = 1.39335e-09, global = -4.07601e-20, cumulative = -7.89177e-20
ExecutionTime = 1.92 s  ClockTime = 2 s

Time = 0.004

Courant Number mean: 0.174856 max: 0.932415
DILUPBiCGStab:  Solving for Ux, Initial residual = 0.0115943, Final residual = 2.67525e-05, No Iterations 5
DILUPBiCGStab:  Solving for Uy, Initial residual = 0.0268869, Final residual = 4.92438e-05, No Iterations 5
DILUPBiCGStab:  Solving for Uz, Initial residual = 0.112848, Final residual = 0.000158134, No Iterations 5
linear solve U 108195
nonePCG:  Solving for p, Initial residual = 0.327333, Final residual = 9.44253e-07, No Iterations 425
linear solve p 603376
time step continuity errors : sum local = 1.34881e-09, global = 6.05282e-20, cumulative = -1.83894e-20
nonePCG:  Solving for p, Initial residual = 0.243052, Final residual = 9.54937e-07, No Iterations 422
linear solve p 596171
time step continuity errors : sum local = 1.30023e-09, global = -3.99146e-20, cumulative = -5.8304e-20
ExecutionTime = 3.29 s  ClockTime = 3 s

Time = 0.006

Courant Number mean: 0.176823 max: 0.934846
DILUPBiCGStab:  Solving for Ux, Initial residual = 0.00529475, Final residual = 9.85096e-06, No Iterations 5
DILUPBiCGStab:  Solving for Uy, Initial residual = 0.0102201, Final residual = 2.29784e-05, No Iterations 5
DILUPBiCGStab:  Solving for Uz, Initial residual = 0.0485258, Final residual = 7.74003e-05, No Iterations 5
linear solve U 106495
nonePCG:  Solving for p, Initial residual = 0.174447, Final residual = 9.68333e-07, No Iterations 416
linear solve p 587734
time step continuity errors : sum local = 1.19534e-09, global = 1.015e-19, cumulative = 4.31961e-20
nonePCG:  Solving for p, Initial residual = 0.133088, Final residual = 9.59663e-07, No Iterations 413
linear solve p 583222
time step continuity errors : sum local = 1.1836e-09, global = -5.73751e-21, cumulative = 3.74586e-20
ExecutionTime = 4.63 s  ClockTime = 4 s

Time = 0.008

Courant Number mean: 0.178238 max: 0.933359
DILUPBiCGStab:  Solving for Ux, Initial residual = 0.00289616, Final residual = 5.56967e-06, No Iterations 5
DILUPBiCGStab:  Solving for Uy, Initial residual = 0.00786369, Final residual = 1.00813e-05, No Iterations 5
DILUPBiCGStab:  Solving for Uz, Initial residual = 0.0260328, Final residual = 3.95447e-05, No Iterations 5
linear solve U 106744
nonePCG:  Solving for p, Initial residual = 0.105335, Final residual = 9.98236e-07, No Iterations 403
linear solve p 568914
time step continuity errors : sum local = 1.15361e-09, global = 1.77799e-20, cumulative = 5.52384e-20
nonePCG:  Solving for p, Initial residual = 0.0812478, Final residual = 9.64195e-07, No Iterations 401
linear solve p 565624
time step continuity errors : sum local = 1.10692e-09, global = 9.20843e-21, cumulative = 6.44469e-20
ExecutionTime = 5.94 s  ClockTime = 6 s

Time = 0.01

Courant Number mean: 0.179753 max: 0.9341
DILUPBiCGStab:  Solving for Ux, Initial residual = 0.0022718, Final residual = 4.01319e-06, No Iterations 5
DILUPBiCGStab:  Solving for Uy, Initial residual = 0.00526726, Final residual = 5.88609e-06, No Iterations 5
DILUPBiCGStab:  Solving for Uz, Initial residual = 0.0148988, Final residual = 2.07676e-05, No Iterations 5
linear solve U 107481
nonePCG:  Solving for p, Initial residual = 0.0676317, Final residual = 9.27458e-07, No Iterations 396
linear solve p 558626
time step continuity errors : sum local = 1.05375e-09, global = 1.22053e-20, cumulative = 7.66522e-20
nonePCG:  Solving for p, Initial residual = 0.0517258, Final residual = 9.07649e-07, No Iterations 394
linear solve p 557415
time step continuity errors : sum local = 1.03323e-09, global = -3.09483e-20, cumulative = 4.57039e-20
ExecutionTime = 7.23 s  ClockTime = 7 s

Time = 0.012

Courant Number mean: 0.181051 max: 0.934596
DILUPBiCGStab:  Solving for Ux, Initial residual = 0.00175528, Final residual = 1.90542e-06, No Iterations 5
DILUPBiCGStab:  Solving for Uy, Initial residual = 0.00453421, Final residual = 4.02057e-06, No Iterations 5
DILUPBiCGStab:  Solving for Uz, Initial residual = 0.0114994, Final residual = 1.25759e-05, No Iterations 5
linear solve U 105642
nonePCG:  Solving for p, Initial residual = 0.0446852, Final residual = 9.31856e-07, No Iterations 391
linear solve p 550253
time step continuity errors : sum local = 1.04043e-09, global = 5.59261e-21, cumulative = 5.12965e-20
nonePCG:  Solving for p, Initial residual = 0.0343802, Final residual = 9.51069e-07, No Iterations 389
linear solve p 550734
time step continuity errors : sum local = 1.06e-09, global = 1.27097e-20, cumulative = 6.40062e-20
ExecutionTime = 8.49 s  ClockTime = 8 s

Time = 0.014

Courant Number mean: 0.182225 max: 0.93496
DILUPBiCGStab:  Solving for Ux, Initial residual = 0.00149064, Final residual = 9.88082e-07, No Iterations 5
DILUPBiCGStab:  Solving for Uy, Initial residual = 0.00373605, Final residual = 1.79903e-06, No Iterations 5
DILUPBiCGStab:  Solving for Uz, Initial residual = 0.00819267, Final residual = 8.40524e-06, No Iterations 5
linear solve U 105803
nonePCG:  Solving for p, Initial residual = 0.030353, Final residual = 9.8796e-07, No Iterations 384
linear solve p 543925
time step continuity errors : sum local = 1.09798e-09, global = 7.18024e-21, cumulative = 7.11865e-20
nonePCG:  Solving for p, Initial residual = 0.0232713, Final residual = 8.87156e-07, No Iterations 383
linear solve p 540314
time step continuity errors : sum local = 9.86786e-10, global = -1.26993e-20, cumulative = 5.84872e-20
ExecutionTime = 9.75 s  ClockTime = 10 s

Time = 0.016

Courant Number mean: 0.183255 max: 0.935382
DILUPBiCGStab:  Solving for Ux, Initial residual = 0.00125116, Final residual = 4.13917e-07, No Iterations 5
DILUPBiCGStab:  Solving for Uy, Initial residual = 0.00326806, Final residual = 1.01044e-06, No Iterations 5
DILUPBiCGStab:  Solving for Uz, Initial residual = 0.00685144, Final residual = 6.24872e-06, No Iterations 5
linear solve U 105571
nonePCG:  Solving for p, Initial residual = 0.020705, Final residual = 9.8449e-07, No Iterations 380
linear solve p 536810
time step continuity errors : sum local = 1.08807e-09, global = -3.20507e-20, cumulative = 2.64365e-20
nonePCG:  Solving for p, Initial residual = 0.0160365, Final residual = 9.23122e-07, No Iterations 379
linear solve p 534874
time step continuity errors : sum local = 1.01975e-09, global = -5.07304e-20, cumulative = -2.4294e-20
ExecutionTime = 10.99 s  ClockTime = 11 s

Time = 0.018

Courant Number mean: 0.184168 max: 0.935681
DILUPBiCGStab:  Solving for Ux, Initial residual = 0.00108072, Final residual = 3.28487e-07, No Iterations 5
DILUPBiCGStab:  Solving for Uy, Initial residual = 0.00281181, Final residual = 1.01181e-06, No Iterations 5
DILUPBiCGStab:  Solving for Uz, Initial residual = 0.00553654, Final residual = 4.59406e-06, No Iterations 5
linear solve U 107316
nonePCG:  Solving for p, Initial residual = 0.0144646, Final residual = 9.66073e-07, No Iterations 354
linear solve p 499891
time step continuity errors : sum local = 1.06618e-09, global = -4.9524e-20, cumulative = -7.38179e-20
nonePCG:  Solving for p, Initial residual = 0.0112138, Final residual = 9.78359e-07, No Iterations 352
linear solve p 499018
time step continuity errors : sum local = 1.08016e-09, global = 8.08297e-20, cumulative = 7.01182e-21
ExecutionTime = 12.15 s  ClockTime = 12 s

Time = 0.02

Courant Number mean: 0.184973 max: 0.935987
DILUPBiCGStab:  Solving for Ux, Initial residual = 0.000928431, Final residual = 1.85288e-07, No Iterations 5
DILUPBiCGStab:  Solving for Uy, Initial residual = 0.00248406, Final residual = 5.6227e-07, No Iterations 5
DILUPBiCGStab:  Solving for Uz, Initial residual = 0.00473748, Final residual = 3.34429e-06, No Iterations 5
linear solve U 106082
nonePCG:  Solving for p, Initial residual = 0.0101795, Final residual = 9.938e-07, No Iterations 363
linear solve p 564769
time step continuity errors : sum local = 1.09557e-09, global = 2.80694e-20, cumulative = 3.50812e-20
nonePCG:  Solving for p, Initial residual = 0.00803565, Final residual = 9.79272e-07, No Iterations 361
linear solve p 510092
time step continuity errors : sum local = 1.07946e-09, global = -3.48761e-20, cumulative = 2.05142e-22
ExecutionTime = 13.4 s  ClockTime = 13 s

End

