/*---------------------------------------------------------------------------*\
  =========                 |
  \\      /  F ield         | OpenFOAM: The Open Source CFD Toolbox
   \\    /   O peration     | Website:  https://openfoam.org
    \\  /    A nd           | Version:  8
     \\/     M anipulation  |
\*---------------------------------------------------------------------------*/
Build  : 8-ef60d22ea792
Exec   : icoFoam
Date   : Sep 15 2021
Time   : 15:04:34
Host   : "uc2n482.localdomain"
PID    : 3660140
I/O    : uncollated
Case   : /pfs/data5/home/kit/scc/nq7776/data/code/OBR/lidDrivenCavity3D/Variation_init/100/Variation_mesh/55/Variation_matrix_solver/CG_NoPrecond_CUDA/1631711066
nProcs : 1
sigFpe : Enabling floating point exception trapping (FOAM_SIGFPE).
fileModificationChecking : Monitoring run-time modified files using timeStampMaster (fileModificationSkew 10)
allowSystemOperations : Allowing user-supplied system call operations

// * * * * * * * * * * * * * * * * * * * * * * * * * * * * * * * * * * * * * //
Create time

Create mesh for time = 0

Reading transportProperties

Reading field p

Reading field U

Reading/calculating face flux field phi


Starting time loop

Time = 0.00181818

Courant Number mean: 0.170885 max: 0.951813
DILUPBiCGStab:  Solving for Ux, Initial residual = 0.0617772, Final residual = 8.17367e-05, No Iterations 5
DILUPBiCGStab:  Solving for Uy, Initial residual = 0.127918, Final residual = 0.000176819, No Iterations 5
DILUPBiCGStab:  Solving for Uz, Initial residual = 0.177193, Final residual = 0.000215685, No Iterations 5
linear solve U 162967
[OGL LOG] init_host_sparsity_pattern : 48 ms
[OGL LOG] matrix not stored update host matrix
[OGL LOG] update_host_mtx : 27 ms
[OGL LOG] matrix is not yet sorted, compute sorting idxs
[OGL LOG] compute_sort : 1448 ms
[OGL LOG] matrix is not yet sorted, sorting host matrix
[OGL LOG] sort_host_mtx_sparsity_pattern : 32 ms
[OGL LOG] sort_host_mtx : 18 ms
[OGL LOG] init_preconditioner : 0 ms
[OGL LOG] solve : 138 ms
nonecudaGKOCG:  Solving for p, Initial residual = 0.614449, Final residual = 9.65511e-07, No Iterations 452
linear solve p 2476644
time step continuity errors : sum local = 1.58933e-09, global = -1.38793e-20, cumulative = -1.38793e-20
[OGL LOG] init_preconditioner : 0 ms
[OGL LOG] solve : 138 ms
nonecudaGKOCG:  Solving for p, Initial residual = 0.429359, Final residual = 9.38088e-07, No Iterations 453
linear solve p 142998
time step continuity errors : sum local = 1.08094e-09, global = -4.89746e-21, cumulative = -1.87768e-20
ExecutionTime = 3.65 s  ClockTime = 4 s

Time = 0.00363636

Courant Number mean: 0.173201 max: 0.938447
DILUPBiCGStab:  Solving for Ux, Initial residual = 0.00803601, Final residual = 1.32171e-05, No Iterations 5
DILUPBiCGStab:  Solving for Uy, Initial residual = 0.0187993, Final residual = 2.49188e-05, No Iterations 5
DILUPBiCGStab:  Solving for Uz, Initial residual = 0.0434188, Final residual = 0.000133398, No Iterations 5
linear solve U 148841
[OGL LOG] init_preconditioner : 0 ms
[OGL LOG] solve : 138 ms
nonecudaGKOCG:  Solving for p, Initial residual = 0.309262, Final residual = 9.63366e-07, No Iterations 448
linear solve p 143252
time step continuity errors : sum local = 3.77569e-07, global = -3.20949e-20, cumulative = -5.08717e-20
[OGL LOG] init_preconditioner : 0 ms
[OGL LOG] solve : 140 ms
nonecudaGKOCG:  Solving for p, Initial residual = 0.196347, Final residual = 9.12152e-07, No Iterations 446
linear solve p 145213
time step continuity errors : sum local = 3.64838e-07, global = -1.35995e-20, cumulative = -6.44712e-20
ExecutionTime = 4.15 s  ClockTime = 5 s

Time = 0.00545455

Courant Number mean: 0.175253 max: 0.938256
DILUPBiCGStab:  Solving for Ux, Initial residual = 0.00374961, Final residual = 1.01144e-05, No Iterations 5
DILUPBiCGStab:  Solving for Uy, Initial residual = 0.00920292, Final residual = 1.43024e-05, No Iterations 5
DILUPBiCGStab:  Solving for Uz, Initial residual = 0.0232229, Final residual = 5.76162e-05, No Iterations 5
linear solve U 151011
[OGL LOG] init_preconditioner : 0 ms
[OGL LOG] solve : 137 ms
nonecudaGKOCG:  Solving for p, Initial residual = 0.17123, Final residual = 9.89526e-07, No Iterations 444
linear solve p 142146
time step continuity errors : sum local = 3.66619e-07, global = 6.25129e-20, cumulative = -1.95832e-21
[OGL LOG] init_preconditioner : 0 ms
[OGL LOG] solve : 136 ms
nonecudaGKOCG:  Solving for p, Initial residual = 0.116657, Final residual = 9.65774e-07, No Iterations 442
linear solve p 141596
time step continuity errors : sum local = 3.63501e-07, global = -2.47402e-20, cumulative = -2.66985e-20
ExecutionTime = 4.65 s  ClockTime = 5 s

Time = 0.00727273

Courant Number mean: 0.177048 max: 0.938779
DILUPBiCGStab:  Solving for Ux, Initial residual = 0.00266586, Final residual = 6.46367e-06, No Iterations 5
DILUPBiCGStab:  Solving for Uy, Initial residual = 0.00703996, Final residual = 1.01547e-05, No Iterations 5
DILUPBiCGStab:  Solving for Uz, Initial residual = 0.0168317, Final residual = 3.42165e-05, No Iterations 5
linear solve U 149803
[OGL LOG] init_preconditioner : 0 ms
[OGL LOG] solve : 134 ms
nonecudaGKOCG:  Solving for p, Initial residual = 0.103548, Final residual = 9.52103e-07, No Iterations 437
linear solve p 139433
time step continuity errors : sum local = 3.61554e-07, global = -1.18418e-21, cumulative = -2.78827e-20
[OGL LOG] init_preconditioner : 0 ms
[OGL LOG] solve : 133 ms
nonecudaGKOCG:  Solving for p, Initial residual = 0.0729167, Final residual = 9.93625e-07, No Iterations 435
linear solve p 138930
time step continuity errors : sum local = 3.63431e-07, global = -1.26323e-20, cumulative = -4.0515e-20
ExecutionTime = 5.15 s  ClockTime = 6 s

Time = 0.00909091

Courant Number mean: 0.178659 max: 0.939358
DILUPBiCGStab:  Solving for Ux, Initial residual = 0.00214454, Final residual = 4.47711e-06, No Iterations 5
DILUPBiCGStab:  Solving for Uy, Initial residual = 0.00554024, Final residual = 7.69192e-06, No Iterations 5
DILUPBiCGStab:  Solving for Uz, Initial residual = 0.0120066, Final residual = 2.15318e-05, No Iterations 5
linear solve U 150182
[OGL LOG] init_preconditioner : 0 ms
[OGL LOG] solve : 132 ms
nonecudaGKOCG:  Solving for p, Initial residual = 0.0676795, Final residual = 9.50219e-07, No Iterations 434
linear solve p 137575
time step continuity errors : sum local = 3.64715e-07, global = 2.68071e-20, cumulative = -1.37079e-20
[OGL LOG] init_preconditioner : 0 ms
[OGL LOG] solve : 131 ms
nonecudaGKOCG:  Solving for p, Initial residual = 0.0494707, Final residual = 9.7372e-07, No Iterations 432
linear solve p 136625
time step continuity errors : sum local = 3.63551e-07, global = -5.2713e-21, cumulative = -1.89792e-20
ExecutionTime = 5.64 s  ClockTime = 6 s

Time = 0.0109091

Courant Number mean: 0.180069 max: 0.939963
DILUPBiCGStab:  Solving for Ux, Initial residual = 0.00177179, Final residual = 2.99532e-06, No Iterations 5
DILUPBiCGStab:  Solving for Uy, Initial residual = 0.00472595, Final residual = 5.80082e-06, No Iterations 5
DILUPBiCGStab:  Solving for Uz, Initial residual = 0.0101113, Final residual = 1.58981e-05, No Iterations 5
linear solve U 148520
[OGL LOG] init_preconditioner : 0 ms
[OGL LOG] solve : 130 ms
nonecudaGKOCG:  Solving for p, Initial residual = 0.0441858, Final residual = 9.56196e-07, No Iterations 425
linear solve p 135239
time step continuity errors : sum local = 3.62783e-07, global = 4.18036e-20, cumulative = 2.28245e-20
[OGL LOG] init_preconditioner : 0 ms
[OGL LOG] solve : 129 ms
nonecudaGKOCG:  Solving for p, Initial residual = 0.0330917, Final residual = 9.72641e-07, No Iterations 423
linear solve p 134493
time step continuity errors : sum local = 3.63432e-07, global = 7.84064e-21, cumulative = 3.06651e-20
ExecutionTime = 6.13 s  ClockTime = 7 s

Time = 0.0127273

Courant Number mean: 0.181311 max: 0.940375
DILUPBiCGStab:  Solving for Ux, Initial residual = 0.00150046, Final residual = 1.86629e-06, No Iterations 5
DILUPBiCGStab:  Solving for Uy, Initial residual = 0.00397844, Final residual = 3.93452e-06, No Iterations 5
DILUPBiCGStab:  Solving for Uz, Initial residual = 0.0079717, Final residual = 1.14649e-05, No Iterations 5
linear solve U 150857
[OGL LOG] init_preconditioner : 0 ms
[OGL LOG] solve : 130 ms
nonecudaGKOCG:  Solving for p, Initial residual = 0.0312977, Final residual = 9.8556e-07, No Iterations 423
linear solve p 135180
time step continuity errors : sum local = 3.63827e-07, global = -3.37518e-21, cumulative = 2.72899e-20
[OGL LOG] init_preconditioner : 0 ms
[OGL LOG] solve : 132 ms
nonecudaGKOCG:  Solving for p, Initial residual = 0.0239648, Final residual = 9.95197e-07, No Iterations 421
linear solve p 138412
time step continuity errors : sum local = 3.63498e-07, global = -1.72569e-20, cumulative = 1.00331e-20
ExecutionTime = 6.62 s  ClockTime = 7 s

Time = 0.0145455

Courant Number mean: 0.182406 max: 0.940818
DILUPBiCGStab:  Solving for Ux, Initial residual = 0.0012852, Final residual = 1.1275e-06, No Iterations 5
DILUPBiCGStab:  Solving for Uy, Initial residual = 0.00349039, Final residual = 2.55932e-06, No Iterations 5
DILUPBiCGStab:  Solving for Uz, Initial residual = 0.00694098, Final residual = 8.68713e-06, No Iterations 5
linear solve U 151403
[OGL LOG] init_preconditioner : 0 ms
[OGL LOG] solve : 128 ms
nonecudaGKOCG:  Solving for p, Initial residual = 0.0214656, Final residual = 9.3829e-07, No Iterations 417
linear solve p 133531
time step continuity errors : sum local = 3.63239e-07, global = -7.26643e-20, cumulative = -6.26313e-20
[OGL LOG] init_preconditioner : 0 ms
[OGL LOG] solve : 126 ms
nonecudaGKOCG:  Solving for p, Initial residual = 0.0167067, Final residual = 8.86957e-07, No Iterations 416
linear solve p 131791
time step continuity errors : sum local = 3.63407e-07, global = 6.53576e-21, cumulative = -5.60955e-20
ExecutionTime = 7.11 s  ClockTime = 8 s

Time = 0.0163636

Courant Number mean: 0.183372 max: 0.941134
DILUPBiCGStab:  Solving for Ux, Initial residual = 0.00111634, Final residual = 7.08802e-07, No Iterations 5
DILUPBiCGStab:  Solving for Uy, Initial residual = 0.00301004, Final residual = 1.58173e-06, No Iterations 5
DILUPBiCGStab:  Solving for Uz, Initial residual = 0.00577405, Final residual = 6.12435e-06, No Iterations 5
linear solve U 147814
[OGL LOG] init_preconditioner : 0 ms
[OGL LOG] solve : 126 ms
nonecudaGKOCG:  Solving for p, Initial residual = 0.0158735, Final residual = 9.35704e-07, No Iterations 417
linear solve p 131779
time step continuity errors : sum local = 3.63546e-07, global = -4.8727e-20, cumulative = -1.04822e-19
[OGL LOG] init_preconditioner : 0 ms
[OGL LOG] solve : 126 ms
nonecudaGKOCG:  Solving for p, Initial residual = 0.012552, Final residual = 9.94468e-07, No Iterations 415
linear solve p 131877
time step continuity errors : sum local = 3.63476e-07, global = -3.29261e-20, cumulative = -1.37749e-19
ExecutionTime = 7.59 s  ClockTime = 8 s

Time = 0.0181818

Courant Number mean: 0.18423 max: 0.941454
DILUPBiCGStab:  Solving for Ux, Initial residual = 0.00096924, Final residual = 5.33193e-07, No Iterations 5
DILUPBiCGStab:  Solving for Uy, Initial residual = 0.00267675, Final residual = 1.09385e-06, No Iterations 5
DILUPBiCGStab:  Solving for Uz, Initial residual = 0.00508082, Final residual = 5.08858e-06, No Iterations 5
linear solve U 147434
[OGL LOG] init_preconditioner : 0 ms
[OGL LOG] solve : 122 ms
nonecudaGKOCG:  Solving for p, Initial residual = 0.011264, Final residual = 9.45888e-07, No Iterations 402
linear solve p 128964
time step continuity errors : sum local = 3.63364e-07, global = -3.0029e-20, cumulative = -1.67778e-19
[OGL LOG] init_preconditioner : 0 ms
[OGL LOG] solve : 122 ms
nonecudaGKOCG:  Solving for p, Initial residual = 0.00902457, Final residual = 9.4753e-07, No Iterations 399
linear solve p 127560
time step continuity errors : sum local = 3.63425e-07, global = -2.26036e-20, cumulative = -1.90381e-19
ExecutionTime = 8.06 s  ClockTime = 9 s

End

