/*---------------------------------------------------------------------------*\
  =========                 |
  \\      /  F ield         | OpenFOAM: The Open Source CFD Toolbox
   \\    /   O peration     | Website:  https://openfoam.org
    \\  /    A nd           | Version:  8
     \\/     M anipulation  |
\*---------------------------------------------------------------------------*/
Build  : 8-ef60d22ea792
Exec   : icoFoam
Date   : Sep 15 2021
Time   : 13:28:21
Host   : "uc2n438.localdomain"
PID    : 3542591
I/O    : uncollated
Case   : /pfs/data5/home/kit/scc/nq7776/data/code/OBR/lidDrivenCavity3D/Variation_init/100/Variation_mesh/65/Variation_matrix_solver/BiCGStab_DIC_Serial/1631705291
nProcs : 1
sigFpe : Enabling floating point exception trapping (FOAM_SIGFPE).
fileModificationChecking : Monitoring run-time modified files using timeStampMaster (fileModificationSkew 10)
allowSystemOperations : Allowing user-supplied system call operations

// * * * * * * * * * * * * * * * * * * * * * * * * * * * * * * * * * * * * * //
Create time

Create mesh for time = 0

Reading transportProperties

Reading field p

Reading field U

Reading/calculating face flux field phi


Starting time loop

Time = 0.00153846

Courant Number mean: 0.17093 max: 0.953778
DILUPBiCGStab:  Solving for Ux, Initial residual = 0.112594, Final residual = 8.25037e-05, No Iterations 5
DILUPBiCGStab:  Solving for Uy, Initial residual = 0.214167, Final residual = 0.00019351, No Iterations 5
DILUPBiCGStab:  Solving for Uz, Initial residual = 0.265767, Final residual = 0.000360103, No Iterations 5
linear solve U 272899
DICPBiCGStab:  Solving for p, Initial residual = 0.554571, Final residual = 8.91933e-07, No Iterations 115
linear solve p 1496482
time step continuity errors : sum local = 1.33842e-09, global = 2.7531e-20, cumulative = 2.7531e-20
DICPBiCGStab:  Solving for p, Initial residual = 0.328963, Final residual = 6.23145e-07, No Iterations 136
linear solve p 1766116
time step continuity errors : sum local = 5.30476e-10, global = 1.5444e-20, cumulative = 4.2975e-20
ExecutionTime = 5.01 s  ClockTime = 5 s

Time = 0.00307692

Courant Number mean: 0.173153 max: 0.946981
DILUPBiCGStab:  Solving for Ux, Initial residual = 0.00646099, Final residual = 2.91058e-05, No Iterations 5
DILUPBiCGStab:  Solving for Uy, Initial residual = 0.015295, Final residual = 6.58739e-05, No Iterations 5
DILUPBiCGStab:  Solving for Uz, Initial residual = 0.041037, Final residual = 0.000215623, No Iterations 5
linear solve U 249633
DICPBiCGStab:  Solving for p, Initial residual = 0.259018, Final residual = 8.39566e-07, No Iterations 132
linear solve p 1711939
time step continuity errors : sum local = 8.09153e-10, global = 6.5561e-21, cumulative = 4.95311e-20
DICPBiCGStab:  Solving for p, Initial residual = 0.210446, Final residual = 9.42411e-07, No Iterations 129
linear solve p 1666929
time step continuity errors : sum local = 9.15047e-10, global = -1.54863e-21, cumulative = 4.79824e-20
ExecutionTime = 8.79 s  ClockTime = 9 s

Time = 0.00461538

Courant Number mean: 0.174968 max: 0.947843
DILUPBiCGStab:  Solving for Ux, Initial residual = 0.00331064, Final residual = 1.28461e-05, No Iterations 5
DILUPBiCGStab:  Solving for Uy, Initial residual = 0.00810373, Final residual = 2.89681e-05, No Iterations 5
DILUPBiCGStab:  Solving for Uz, Initial residual = 0.0237863, Final residual = 0.000136596, No Iterations 5
linear solve U 246976
DICPBiCGStab:  Solving for p, Initial residual = 0.168033, Final residual = 9.30511e-07, No Iterations 123
linear solve p 1599999
time step continuity errors : sum local = 1.13445e-09, global = -4.14405e-20, cumulative = 6.54193e-21
DICPBiCGStab:  Solving for p, Initial residual = 0.135515, Final residual = 7.35292e-07, No Iterations 121
linear solve p 1561510
time step continuity errors : sum local = 6.51144e-10, global = 9.39098e-21, cumulative = 1.59329e-20
ExecutionTime = 12.34 s  ClockTime = 12 s

Time = 0.00615385

Courant Number mean: 0.176518 max: 0.947985
DILUPBiCGStab:  Solving for Ux, Initial residual = 0.00229899, Final residual = 8.4854e-06, No Iterations 5
DILUPBiCGStab:  Solving for Uy, Initial residual = 0.00670134, Final residual = 1.83284e-05, No Iterations 5
DILUPBiCGStab:  Solving for Uz, Initial residual = 0.0192856, Final residual = 8.40416e-05, No Iterations 5
linear solve U 249282
DICPBiCGStab:  Solving for p, Initial residual = 0.117465, Final residual = 9.03239e-07, No Iterations 127
linear solve p 1649934
time step continuity errors : sum local = 6.9071e-10, global = 7.29282e-22, cumulative = 1.66622e-20
DICPBiCGStab:  Solving for p, Initial residual = 0.0952217, Final residual = 8.48974e-07, No Iterations 123
linear solve p 1599262
time step continuity errors : sum local = 7.58611e-10, global = 1.08925e-20, cumulative = 2.75547e-20
ExecutionTime = 15.99 s  ClockTime = 16 s

Time = 0.00769231

Courant Number mean: 0.17797 max: 0.948442
DILUPBiCGStab:  Solving for Ux, Initial residual = 0.00194822, Final residual = 6.60189e-06, No Iterations 5
DILUPBiCGStab:  Solving for Uy, Initial residual = 0.00523619, Final residual = 1.35701e-05, No Iterations 5
DILUPBiCGStab:  Solving for Uz, Initial residual = 0.0136914, Final residual = 5.09312e-05, No Iterations 5
linear solve U 248829
DICPBiCGStab:  Solving for p, Initial residual = 0.0839168, Final residual = 8.48997e-07, No Iterations 111
linear solve p 1441606
time step continuity errors : sum local = 7.04341e-10, global = 1.8176e-20, cumulative = 4.57307e-20
DICPBiCGStab:  Solving for p, Initial residual = 0.0673131, Final residual = 5.46412e-07, No Iterations 103
linear solve p 1347822
time step continuity errors : sum local = 6.11033e-10, global = 2.07996e-20, cumulative = 6.65302e-20
ExecutionTime = 19.18 s  ClockTime = 19 s

Time = 0.00923077

Courant Number mean: 0.179261 max: 0.948914
DILUPBiCGStab:  Solving for Ux, Initial residual = 0.00160224, Final residual = 5.24887e-06, No Iterations 5
DILUPBiCGStab:  Solving for Uy, Initial residual = 0.00455488, Final residual = 9.17451e-06, No Iterations 5
DILUPBiCGStab:  Solving for Uz, Initial residual = 0.0115617, Final residual = 3.57178e-05, No Iterations 5
linear solve U 246927
DICPBiCGStab:  Solving for p, Initial residual = 0.0613508, Final residual = 9.3251e-07, No Iterations 122
linear solve p 1589252
time step continuity errors : sum local = 6.86576e-10, global = -2.59396e-20, cumulative = 4.05907e-20
DICPBiCGStab:  Solving for p, Initial residual = 0.0494809, Final residual = 3.1787e-07, No Iterations 111
linear solve p 1443736
time step continuity errors : sum local = 3.54898e-10, global = -6.26643e-20, cumulative = -2.20736e-20
ExecutionTime = 22.61 s  ClockTime = 23 s

Time = 0.0107692

Courant Number mean: 0.180428 max: 0.949219
DILUPBiCGStab:  Solving for Ux, Initial residual = 0.00140689, Final residual = 4.23279e-06, No Iterations 5
DILUPBiCGStab:  Solving for Uy, Initial residual = 0.00391275, Final residual = 6.1841e-06, No Iterations 5
DILUPBiCGStab:  Solving for Uz, Initial residual = 0.00898606, Final residual = 2.49886e-05, No Iterations 5
linear solve U 247414
DICPBiCGStab:  Solving for p, Initial residual = 0.0453671, Final residual = 1.60364e-07, No Iterations 117
linear solve p 1529183
time step continuity errors : sum local = 1.37182e-10, global = 4.46494e-21, cumulative = -1.76087e-20
DICPBiCGStab:  Solving for p, Initial residual = 0.0363164, Final residual = 9.77891e-07, No Iterations 126
linear solve p 1639524
time step continuity errors : sum local = 6.65823e-10, global = -2.57455e-20, cumulative = -4.33542e-20
ExecutionTime = 26.18 s  ClockTime = 26 s

Time = 0.0123077

Courant Number mean: 0.181475 max: 0.949602
DILUPBiCGStab:  Solving for Ux, Initial residual = 0.00121896, Final residual = 3.14122e-06, No Iterations 5
DILUPBiCGStab:  Solving for Uy, Initial residual = 0.00346955, Final residual = 4.46741e-06, No Iterations 5
DILUPBiCGStab:  Solving for Uz, Initial residual = 0.00774574, Final residual = 1.96575e-05, No Iterations 5
linear solve U 247594
DICPBiCGStab:  Solving for p, Initial residual = 0.0338696, Final residual = 8.69809e-07, No Iterations 117
linear solve p 1510934
time step continuity errors : sum local = 6.1986e-10, global = -2.67701e-21, cumulative = -4.60312e-20
DICPBiCGStab:  Solving for p, Initial residual = 0.0272758, Final residual = 8.91222e-07, No Iterations 112
linear solve p 1456355
time step continuity errors : sum local = 6.45757e-10, global = 1.06106e-20, cumulative = -3.54206e-20
ExecutionTime = 29.55 s  ClockTime = 30 s

Time = 0.0138462

Courant Number mean: 0.182418 max: 0.949852
DILUPBiCGStab:  Solving for Ux, Initial residual = 0.00108406, Final residual = 2.3929e-06, No Iterations 5
DILUPBiCGStab:  Solving for Uy, Initial residual = 0.00306047, Final residual = 3.29122e-06, No Iterations 5
DILUPBiCGStab:  Solving for Uz, Initial residual = 0.00642386, Final residual = 1.62661e-05, No Iterations 5
linear solve U 252358
DICPBiCGStab:  Solving for p, Initial residual = 0.0254785, Final residual = 9.21625e-07, No Iterations 94
linear solve p 1220540
time step continuity errors : sum local = 1.1671e-09, global = 7.88967e-21, cumulative = -2.75309e-20
DICPBiCGStab:  Solving for p, Initial residual = 0.0203949, Final residual = 9.00723e-07, No Iterations 62
linear solve p 802304
time step continuity errors : sum local = 6.94815e-10, global = -1.94122e-20, cumulative = -4.69431e-20
ExecutionTime = 31.98 s  ClockTime = 32 s

Time = 0.0153846

Courant Number mean: 0.183267 max: 0.95014
DILUPBiCGStab:  Solving for Ux, Initial residual = 0.000958367, Final residual = 1.64002e-06, No Iterations 5
DILUPBiCGStab:  Solving for Uy, Initial residual = 0.00274995, Final residual = 2.32937e-06, No Iterations 5
DILUPBiCGStab:  Solving for Uz, Initial residual = 0.00563483, Final residual = 1.26323e-05, No Iterations 5
linear solve U 247098
DICPBiCGStab:  Solving for p, Initial residual = 0.0193344, Final residual = 9.57014e-07, No Iterations 55
linear solve p 725232
time step continuity errors : sum local = 9.83835e-10, global = -3.86167e-20, cumulative = -8.55598e-20
DICPBiCGStab:  Solving for p, Initial residual = 0.0156288, Final residual = 9.08149e-07, No Iterations 56
linear solve p 729599
time step continuity errors : sum local = 9.35118e-10, global = 2.61515e-20, cumulative = -5.94083e-20
ExecutionTime = 33.83 s  ClockTime = 34 s

End

