/*---------------------------------------------------------------------------*\
  =========                 |
  \\      /  F ield         | OpenFOAM: The Open Source CFD Toolbox
   \\    /   O peration     | Website:  https://openfoam.org
    \\  /    A nd           | Version:  8
     \\/     M anipulation  |
\*---------------------------------------------------------------------------*/
Build  : 8-ef60d22ea792
Exec   : icoFoam
Date   : Sep 15 2021
Time   : 14:19:52
Host   : "uc2n482.localdomain"
PID    : 3643339
I/O    : uncollated
Case   : /pfs/data5/home/kit/scc/nq7776/data/code/OBR/lidDrivenCavity3D/Variation_init/100/Variation_mesh/100/Variation_matrix_solver/BiCGStab_ILU_CUDA/1631708342
nProcs : 1
sigFpe : Enabling floating point exception trapping (FOAM_SIGFPE).
fileModificationChecking : Monitoring run-time modified files using timeStampMaster (fileModificationSkew 10)
allowSystemOperations : Allowing user-supplied system call operations

// * * * * * * * * * * * * * * * * * * * * * * * * * * * * * * * * * * * * * //
Create time

Create mesh for time = 0

Reading transportProperties

Reading field p

Reading field U

Reading/calculating face flux field phi


Starting time loop

Time = 0.001

Courant Number mean: 0.171005 max: 0.964718
DILUPBiCGStab:  Solving for Ux, Initial residual = 0.00221104, Final residual = 2.10455e-05, No Iterations 5
DILUPBiCGStab:  Solving for Uy, Initial residual = 0.00671465, Final residual = 5.53885e-05, No Iterations 5
DILUPBiCGStab:  Solving for Uz, Initial residual = 0.0303966, Final residual = 0.000635532, No Iterations 5
linear solve U 1099018
[OGL LOG] init_host_sparsity_pattern : 292 ms
[OGL LOG] matrix not stored update host matrix
[OGL LOG] update_host_mtx : 161 ms
[OGL LOG] matrix is not yet sorted, compute sorting idxs
[OGL LOG] compute_sort : 9555 ms
[OGL LOG] matrix is not yet sorted, sorting host matrix
[OGL LOG] sort_host_mtx_sparsity_pattern : 226 ms
[OGL LOG] sort_host_mtx : 123 ms
[OGL LOG] init_preconditioner : 421 ms
[OGL LOG] solve : 3360 ms
ILUcudaGKOBiCGStab:  Solving for p, Initial residual = 0.148074, Final residual = 9.29165e-07, No Iterations 209
linear solve p 14973818
time step continuity errors : sum local = 1.38834e-07, global = -3.26397e-22, cumulative = -3.26397e-22
[OGL LOG] init_preconditioner : 0 ms
[OGL LOG] solve : 3194 ms
ILUcudaGKOBiCGStab:  Solving for p, Initial residual = 0.126868, Final residual = 9.0266e-07, No Iterations 199
linear solve p 3226671
time step continuity errors : sum local = 3.07034e-10, global = 5.70137e-21, cumulative = 5.37497e-21
ExecutionTime = 24.27 s  ClockTime = 24 s

Time = 0.002

Courant Number mean: 0.172431 max: 0.965079
DILUPBiCGStab:  Solving for Ux, Initial residual = 0.00200111, Final residual = 1.87327e-05, No Iterations 5
DILUPBiCGStab:  Solving for Uy, Initial residual = 0.00604296, Final residual = 4.75901e-05, No Iterations 5
DILUPBiCGStab:  Solving for Uz, Initial residual = 0.0266113, Final residual = 0.000566786, No Iterations 5
linear solve U 1074273
[OGL LOG] init_preconditioner : 0 ms
[OGL LOG] solve : 3128 ms
ILUcudaGKOBiCGStab:  Solving for p, Initial residual = 0.133627, Final residual = 8.85047e-07, No Iterations 195
linear solve p 3162386
time step continuity errors : sum local = 4.05551e-08, global = -1.72233e-20, cumulative = -1.18483e-20
[OGL LOG] init_preconditioner : 0 ms
[OGL LOG] solve : 3144 ms
ILUcudaGKOBiCGStab:  Solving for p, Initial residual = 0.11441, Final residual = 9.98402e-07, No Iterations 196
linear solve p 3180753
time step continuity errors : sum local = 4.06241e-08, global = 1.54085e-20, cumulative = 3.56022e-21
ExecutionTime = 32.35 s  ClockTime = 32 s

Time = 0.003

Courant Number mean: 0.173747 max: 0.965402
DILUPBiCGStab:  Solving for Ux, Initial residual = 0.00178525, Final residual = 1.3689e-05, No Iterations 5
DILUPBiCGStab:  Solving for Uy, Initial residual = 0.00542635, Final residual = 3.58956e-05, No Iterations 5
DILUPBiCGStab:  Solving for Uz, Initial residual = 0.0227348, Final residual = 0.000472503, No Iterations 5
linear solve U 1067021
[OGL LOG] init_preconditioner : 0 ms
[OGL LOG] solve : 3296 ms
ILUcudaGKOBiCGStab:  Solving for p, Initial residual = 0.116158, Final residual = 8.04948e-07, No Iterations 205
linear solve p 3331195
time step continuity errors : sum local = 1.56107e-07, global = -4.15943e-21, cumulative = -5.99214e-22
[OGL LOG] init_preconditioner : 0 ms
[OGL LOG] solve : 2822 ms
ILUcudaGKOBiCGStab:  Solving for p, Initial residual = 0.100095, Final residual = 3.1384e-07, No Iterations 176
linear solve p 2853734
time step continuity errors : sum local = 4.04318e-08, global = 5.45625e-21, cumulative = 4.85704e-21
ExecutionTime = 40.24 s  ClockTime = 40 s

Time = 0.004

Courant Number mean: 0.174968 max: 0.9657
DILUPBiCGStab:  Solving for Ux, Initial residual = 0.00162088, Final residual = 1.17365e-05, No Iterations 5
DILUPBiCGStab:  Solving for Uy, Initial residual = 0.00491125, Final residual = 2.98198e-05, No Iterations 5
DILUPBiCGStab:  Solving for Uz, Initial residual = 0.0202147, Final residual = 0.000419306, No Iterations 5
linear solve U 1053614
[OGL LOG] init_preconditioner : 0 ms
[OGL LOG] solve : 3264 ms
ILUcudaGKOBiCGStab:  Solving for p, Initial residual = 0.104291, Final residual = 8.70342e-07, No Iterations 203
linear solve p 3295556
time step continuity errors : sum local = 8.86387e-08, global = -1.571e-20, cumulative = -1.0853e-20
[OGL LOG] init_preconditioner : 0 ms
[OGL LOG] solve : 3039 ms
ILUcudaGKOBiCGStab:  Solving for p, Initial residual = 0.0899792, Final residual = 9.25492e-07, No Iterations 189
linear solve p 3071061
time step continuity errors : sum local = 1.65784e-07, global = -1.48582e-20, cumulative = -2.57112e-20
ExecutionTime = 48.28 s  ClockTime = 48 s

Time = 0.005

Courant Number mean: 0.176093 max: 0.965959
DILUPBiCGStab:  Solving for Ux, Initial residual = 0.00147165, Final residual = 1.0146e-05, No Iterations 5
DILUPBiCGStab:  Solving for Uy, Initial residual = 0.00446563, Final residual = 2.56123e-05, No Iterations 5
DILUPBiCGStab:  Solving for Uz, Initial residual = 0.017901, Final residual = 0.000348419, No Iterations 5
linear solve U 1064400
[OGL LOG] init_preconditioner : 0 ms
[OGL LOG] solve : 3065 ms
ILUcudaGKOBiCGStab:  Solving for p, Initial residual = 0.0942494, Final residual = 9.91404e-07, No Iterations 191
linear solve p 3098103
time step continuity errors : sum local = 4.06493e-08, global = 1.14367e-20, cumulative = -1.42745e-20
[OGL LOG] init_preconditioner : 0 ms
[OGL LOG] solve : 2560 ms
ILUcudaGKOBiCGStab:  Solving for p, Initial residual = 0.0811009, Final residual = 9.18835e-07, No Iterations 159
linear solve p 2593010
time step continuity errors : sum local = 4.00084e-06, global = -6.36752e-21, cumulative = -2.0642e-20
ExecutionTime = 55.67 s  ClockTime = 55 s

Time = 0.006

Courant Number mean: 0.177138 max: 0.966209
DILUPBiCGStab:  Solving for Ux, Initial residual = 0.00134543, Final residual = 8.76911e-06, No Iterations 5
DILUPBiCGStab:  Solving for Uy, Initial residual = 0.00407506, Final residual = 2.19748e-05, No Iterations 5
DILUPBiCGStab:  Solving for Uz, Initial residual = 0.0300843, Final residual = 0.000819173, No Iterations 5
linear solve U 1047042
[OGL LOG] init_preconditioner : 0 ms
[OGL LOG] solve : 3219 ms
ILUcudaGKOBiCGStab:  Solving for p, Initial residual = 0.163114, Final residual = 8.70703e-07, No Iterations 200
linear solve p 3252287
time step continuity errors : sum local = 5.49841e-07, global = -3.47952e-21, cumulative = -2.41215e-20
[OGL LOG] init_preconditioner : 0 ms
[OGL LOG] solve : 3234 ms
ILUcudaGKOBiCGStab:  Solving for p, Initial residual = 0.136297, Final residual = 6.31315e-07, No Iterations 201
linear solve p 3266542
time step continuity errors : sum local = 1.47154e-06, global = -3.11223e-22, cumulative = -2.44327e-20
ExecutionTime = 63.85 s  ClockTime = 64 s

Time = 0.007

Courant Number mean: 0.178104 max: 0.966419
DILUPBiCGStab:  Solving for Ux, Initial residual = 0.00123931, Final residual = 7.86398e-06, No Iterations 5
DILUPBiCGStab:  Solving for Uy, Initial residual = 0.0037841, Final residual = 2.04821e-05, No Iterations 5
DILUPBiCGStab:  Solving for Uz, Initial residual = 0.0398923, Final residual = 0.00091015, No Iterations 5
linear solve U 1057808
[OGL LOG] init_preconditioner : 0 ms
[OGL LOG] solve : 3184 ms
ILUcudaGKOBiCGStab:  Solving for p, Initial residual = 0.162164, Final residual = 5.93644e-07, No Iterations 198
linear solve p 3217330
time step continuity errors : sum local = 1.99593e-06, global = -2.6277e-20, cumulative = -5.07098e-20
[OGL LOG] init_preconditioner : 0 ms
[OGL LOG] solve : 3267 ms
ILUcudaGKOBiCGStab:  Solving for p, Initial residual = 0.132649, Final residual = 7.35916e-07, No Iterations 203
linear solve p 3298774
time step continuity errors : sum local = 3.81318e-07, global = 1.44572e-20, cumulative = -3.62525e-20
ExecutionTime = 72.03 s  ClockTime = 72 s

Time = 0.008

Courant Number mean: 0.179 max: 0.966634
DILUPBiCGStab:  Solving for Ux, Initial residual = 0.00114353, Final residual = 7.01169e-06, No Iterations 5
DILUPBiCGStab:  Solving for Uy, Initial residual = 0.00348612, Final residual = 1.79969e-05, No Iterations 5
DILUPBiCGStab:  Solving for Uz, Initial residual = 0.0447384, Final residual = 0.000952983, No Iterations 5
linear solve U 1053582
[OGL LOG] init_preconditioner : 0 ms
[OGL LOG] solve : 3011 ms
ILUcudaGKOBiCGStab:  Solving for p, Initial residual = 0.169225, Final residual = 5.26507e-07, No Iterations 187
linear solve p 3044846
time step continuity errors : sum local = 4.74599e-06, global = -2.68855e-20, cumulative = -6.3138e-20
[OGL LOG] init_preconditioner : 0 ms
[OGL LOG] solve : 3234 ms
ILUcudaGKOBiCGStab:  Solving for p, Initial residual = 0.141676, Final residual = 8.70885e-07, No Iterations 201
linear solve p 3265525
time step continuity errors : sum local = 2.58852e-07, global = -3.28625e-20, cumulative = -9.60005e-20
ExecutionTime = 80.01 s  ClockTime = 80 s

Time = 0.009

Courant Number mean: 0.179831 max: 0.966803
DILUPBiCGStab:  Solving for Ux, Initial residual = 0.00105788, Final residual = 6.39253e-06, No Iterations 5
DILUPBiCGStab:  Solving for Uy, Initial residual = 0.00324678, Final residual = 1.76986e-05, No Iterations 5
DILUPBiCGStab:  Solving for Uz, Initial residual = 0.0561021, Final residual = 0.00131244, No Iterations 5
linear solve U 1046553
[OGL LOG] init_preconditioner : 0 ms
[OGL LOG] solve : 3137 ms
ILUcudaGKOBiCGStab:  Solving for p, Initial residual = 0.208183, Final residual = 6.59121e-07, No Iterations 195
linear solve p 3169877
time step continuity errors : sum local = 1.8107e-06, global = -3.38804e-21, cumulative = -9.93886e-20
[OGL LOG] init_preconditioner : 0 ms
[OGL LOG] solve : 3167 ms
ILUcudaGKOBiCGStab:  Solving for p, Initial residual = 0.177458, Final residual = 8.51512e-07, No Iterations 197
linear solve p 3200763
time step continuity errors : sum local = 1.54557e-06, global = 2.34035e-21, cumulative = -9.70482e-20
ExecutionTime = 88.03 s  ClockTime = 88 s

Time = 0.01

Courant Number mean: 0.180604 max: 0.966983
DILUPBiCGStab:  Solving for Ux, Initial residual = 0.000997692, Final residual = 6.32853e-06, No Iterations 5
DILUPBiCGStab:  Solving for Uy, Initial residual = 0.00306991, Final residual = 1.77271e-05, No Iterations 5
DILUPBiCGStab:  Solving for Uz, Initial residual = 0.0658879, Final residual = 0.00130304, No Iterations 5
linear solve U 1057555
[OGL LOG] init_preconditioner : 0 ms
[OGL LOG] solve : 2993 ms
ILUcudaGKOBiCGStab:  Solving for p, Initial residual = 0.226409, Final residual = 7.14201e-07, No Iterations 186
linear solve p 3025527
time step continuity errors : sum local = 4.55621e-06, global = 4.94322e-21, cumulative = -9.2105e-20
[OGL LOG] init_preconditioner : 0 ms
[OGL LOG] solve : 3010 ms
ILUcudaGKOBiCGStab:  Solving for p, Initial residual = 0.183886, Final residual = 8.42796e-07, No Iterations 187
linear solve p 3043991
time step continuity errors : sum local = 1.32664e-06, global = 1.35241e-20, cumulative = -7.85809e-20
ExecutionTime = 95.75 s  ClockTime = 96 s

End

