/*---------------------------------------------------------------------------*\
  =========                 |
  \\      /  F ield         | OpenFOAM: The Open Source CFD Toolbox
   \\    /   O peration     | Website:  https://openfoam.org
    \\  /    A nd           | Version:  8
     \\/     M anipulation  |
\*---------------------------------------------------------------------------*/
Build  : 8-ef60d22ea792
Exec   : icoFoam
Date   : Sep 15 2021
Time   : 13:08:20
Host   : "uc2n482.localdomain"
PID    : 3627247
I/O    : uncollated
Case   : /pfs/data5/home/kit/scc/nq7776/data/code/OBR/lidDrivenCavity3D/Variation_init/100/Variation_mesh/15/Variation_matrix_solver/IR_NoPrecond_CUDA/Variation_innerReductionFactor/0.1/1631704098
nProcs : 1
sigFpe : Enabling floating point exception trapping (FOAM_SIGFPE).
fileModificationChecking : Monitoring run-time modified files using timeStampMaster (fileModificationSkew 10)
allowSystemOperations : Allowing user-supplied system call operations

// * * * * * * * * * * * * * * * * * * * * * * * * * * * * * * * * * * * * * //
Create time

Create mesh for time = 0

Reading transportProperties

Reading field p

Reading field U

Reading/calculating face flux field phi


Starting time loop

Time = 0.00666667

Courant Number mean: 0.166422 max: 0.762393
DILUPBiCGStab:  Solving for Ux, Initial residual = 0.0879544, Final residual = 2.84443e-08, No Iterations 5
DILUPBiCGStab:  Solving for Uy, Initial residual = 0.126984, Final residual = 8.95339e-08, No Iterations 5
DILUPBiCGStab:  Solving for Uz, Initial residual = 0.181802, Final residual = 6.74481e-08, No Iterations 5
linear solve U 2499
[OGL LOG] init_host_sparsity_pattern : 0 ms
[OGL LOG] matrix not stored update host matrix
[OGL LOG] update_host_mtx : 0 ms
[OGL LOG] matrix is not yet sorted, compute sorting idxs
[OGL LOG] compute_sort : 20 ms
[OGL LOG] matrix is not yet sorted, sorting host matrix
[OGL LOG] sort_host_mtx_sparsity_pattern : 0 ms
[OGL LOG] sort_host_mtx : 0 ms
[OGL LOG] init_preconditioner : 0 ms
[OGL LOG] solve : 32 ms
nonecudaGKOIR:  Solving for p, Initial residual = 0.516107, Final residual = 1.01189e-07, No Iterations 7
linear solve p 801739
time step continuity errors : sum local = 1.39321e-09, global = -3.75493e-19, cumulative = -3.75493e-19
[OGL LOG] init_preconditioner : 0 ms
[OGL LOG] solve : 21 ms
nonecudaGKOIR:  Solving for p, Initial residual = 0.271044, Final residual = 3.47279e-07, No Iterations 6
linear solve p 22014
time step continuity errors : sum local = 3.3732e-09, global = -2.4372e-19, cumulative = -6.19213e-19
ExecutionTime = 0.87 s  ClockTime = 1 s

Time = 0.0133333

Courant Number mean: 0.171844 max: 0.7773
DILUPBiCGStab:  Solving for Ux, Initial residual = 0.021091, Final residual = 3.34896e-08, No Iterations 5
DILUPBiCGStab:  Solving for Uy, Initial residual = 0.0294978, Final residual = 2.90911e-08, No Iterations 5
DILUPBiCGStab:  Solving for Uz, Initial residual = 0.0732077, Final residual = 9.44854e-08, No Iterations 5
linear solve U 1927
[OGL LOG] init_preconditioner : 0 ms
[OGL LOG] solve : 21 ms
nonecudaGKOIR:  Solving for p, Initial residual = 0.145576, Final residual = 1.71058e-07, No Iterations 6
linear solve p 21796
time step continuity errors : sum local = 1.32872e-05, global = -1.99406e-19, cumulative = -8.18619e-19
[OGL LOG] init_preconditioner : 0 ms
[OGL LOG] solve : 23 ms
nonecudaGKOIR:  Solving for p, Initial residual = 0.0851819, Final residual = 1.38547e-07, No Iterations 6
linear solve p 23952
time step continuity errors : sum local = 1.2039e-05, global = 9.785e-20, cumulative = -7.20769e-19
ExecutionTime = 0.92 s  ClockTime = 1 s

Time = 0.02

Courant Number mean: 0.175686 max: 0.781333
DILUPBiCGStab:  Solving for Ux, Initial residual = 0.00574943, Final residual = 1.22876e-08, No Iterations 5
DILUPBiCGStab:  Solving for Uy, Initial residual = 0.0110708, Final residual = 1.81277e-08, No Iterations 5
DILUPBiCGStab:  Solving for Uz, Initial residual = 0.0200857, Final residual = 1.31254e-08, No Iterations 5
linear solve U 1966
[OGL LOG] init_preconditioner : 0 ms
[OGL LOG] solve : 19 ms
nonecudaGKOIR:  Solving for p, Initial residual = 0.0224853, Final residual = 2.60696e-07, No Iterations 5
linear solve p 20140
time step continuity errors : sum local = 1.1876e-05, global = 2.70256e-19, cumulative = -4.50513e-19
[OGL LOG] init_preconditioner : 0 ms
[OGL LOG] solve : 19 ms
nonecudaGKOIR:  Solving for p, Initial residual = 0.0139034, Final residual = 1.58235e-07, No Iterations 5
linear solve p 20252
time step continuity errors : sum local = 1.19738e-05, global = -1.4779e-19, cumulative = -5.98302e-19
ExecutionTime = 0.96 s  ClockTime = 1 s

Time = 0.0266667

Courant Number mean: 0.178552 max: 0.784986
DILUPBiCGStab:  Solving for Ux, Initial residual = 0.00342736, Final residual = 5.12941e-09, No Iterations 5
DILUPBiCGStab:  Solving for Uy, Initial residual = 0.00658332, Final residual = 1.15536e-08, No Iterations 5
DILUPBiCGStab:  Solving for Uz, Initial residual = 0.00949853, Final residual = 9.6282e-09, No Iterations 5
linear solve U 1915
[OGL LOG] init_preconditioner : 0 ms
[OGL LOG] solve : 17 ms
nonecudaGKOIR:  Solving for p, Initial residual = 0.0101076, Final residual = 7.57427e-07, No Iterations 4
linear solve p 17282
time step continuity errors : sum local = 1.19903e-05, global = 3.2999e-20, cumulative = -5.65303e-19
[OGL LOG] init_preconditioner : 0 ms
[OGL LOG] solve : 16 ms
nonecudaGKOIR:  Solving for p, Initial residual = 0.00719412, Final residual = 5.05371e-07, No Iterations 4
linear solve p 17065
time step continuity errors : sum local = 1.19792e-05, global = 5.43535e-19, cumulative = -2.17684e-20
ExecutionTime = 0.99 s  ClockTime = 1 s

Time = 0.0333333

Courant Number mean: 0.180502 max: 0.787346
DILUPBiCGStab:  Solving for Ux, Initial residual = 0.00221543, Final residual = 1.91324e-09, No Iterations 5
DILUPBiCGStab:  Solving for Uy, Initial residual = 0.00448406, Final residual = 2.89459e-09, No Iterations 5
DILUPBiCGStab:  Solving for Uz, Initial residual = 0.00628865, Final residual = 3.24655e-09, No Iterations 5
linear solve U 1830
[OGL LOG] init_preconditioner : 0 ms
[OGL LOG] solve : 15 ms
nonecudaGKOIR:  Solving for p, Initial residual = 0.00453737, Final residual = 4.29427e-07, No Iterations 4
linear solve p 16110
time step continuity errors : sum local = 1.19763e-05, global = 4.39178e-20, cumulative = 2.21494e-20
[OGL LOG] init_preconditioner : 0 ms
[OGL LOG] solve : 15 ms
nonecudaGKOIR:  Solving for p, Initial residual = 0.00321819, Final residual = 2.56132e-07, No Iterations 4
linear solve p 16165
time step continuity errors : sum local = 1.19785e-05, global = 2.5347e-19, cumulative = 2.7562e-19
ExecutionTime = 1.03 s  ClockTime = 1 s

Time = 0.04

Courant Number mean: 0.181846 max: 0.788821
DILUPBiCGStab:  Solving for Ux, Initial residual = 0.00152159, Final residual = 8.48341e-10, No Iterations 5
DILUPBiCGStab:  Solving for Uy, Initial residual = 0.00314058, Final residual = 2.02422e-09, No Iterations 5
DILUPBiCGStab:  Solving for Uz, Initial residual = 0.00421539, Final residual = 2.10034e-09, No Iterations 5
linear solve U 1890
[OGL LOG] init_preconditioner : 0 ms
[OGL LOG] solve : 16 ms
nonecudaGKOIR:  Solving for p, Initial residual = 0.00332418, Final residual = 2.29821e-07, No Iterations 4
linear solve p 16664
time step continuity errors : sum local = 1.19772e-05, global = -2.97167e-19, cumulative = -2.15478e-20
[OGL LOG] init_preconditioner : 0 ms
[OGL LOG] solve : 15 ms
nonecudaGKOIR:  Solving for p, Initial residual = 0.00243722, Final residual = 2.30253e-07, No Iterations 4
linear solve p 15421
time step continuity errors : sum local = 1.19781e-05, global = 5.26528e-20, cumulative = 3.1105e-20
ExecutionTime = 1.06 s  ClockTime = 2 s

Time = 0.0466667

Courant Number mean: 0.182778 max: 0.78982
DILUPBiCGStab:  Solving for Ux, Initial residual = 0.00104888, Final residual = 5.72163e-10, No Iterations 5
DILUPBiCGStab:  Solving for Uy, Initial residual = 0.00219913, Final residual = 1.09415e-09, No Iterations 5
DILUPBiCGStab:  Solving for Uz, Initial residual = 0.00292432, Final residual = 1.38843e-09, No Iterations 5
linear solve U 1889
[OGL LOG] init_preconditioner : 0 ms
[OGL LOG] solve : 15 ms
nonecudaGKOIR:  Solving for p, Initial residual = 0.00216732, Final residual = 1.67956e-07, No Iterations 4
linear solve p 15903
time step continuity errors : sum local = 1.19774e-05, global = 4.37634e-20, cumulative = 7.48684e-20
[OGL LOG] init_preconditioner : 0 ms
[OGL LOG] solve : 15 ms
nonecudaGKOIR:  Solving for p, Initial residual = 0.00157929, Final residual = 1.20089e-07, No Iterations 4
linear solve p 15986
time step continuity errors : sum local = 1.1978e-05, global = -5.04029e-20, cumulative = 2.44655e-20
ExecutionTime = 1.11 s  ClockTime = 2 s

Time = 0.0533333

Courant Number mean: 0.183428 max: 0.790487
DILUPBiCGStab:  Solving for Ux, Initial residual = 0.000730825, Final residual = 3.54065e-10, No Iterations 5
DILUPBiCGStab:  Solving for Uy, Initial residual = 0.00154853, Final residual = 6.38758e-10, No Iterations 5
DILUPBiCGStab:  Solving for Uz, Initial residual = 0.00201397, Final residual = 9.67945e-10, No Iterations 5
linear solve U 1835
[OGL LOG] init_preconditioner : 0 ms
[OGL LOG] solve : 15 ms
nonecudaGKOIR:  Solving for p, Initial residual = 0.00152848, Final residual = 1.49202e-07, No Iterations 4
linear solve p 15872
time step continuity errors : sum local = 1.19775e-05, global = -2.22346e-19, cumulative = -1.97881e-19
[OGL LOG] init_preconditioner : 0 ms
[OGL LOG] solve : 15 ms
nonecudaGKOIR:  Solving for p, Initial residual = 0.00111784, Final residual = 9.07704e-08, No Iterations 4
linear solve p 16257
time step continuity errors : sum local = 1.19779e-05, global = -3.64665e-19, cumulative = -5.62546e-19
ExecutionTime = 1.14 s  ClockTime = 2 s

Time = 0.06

Courant Number mean: 0.183882 max: 0.790942
DILUPBiCGStab:  Solving for Ux, Initial residual = 0.000512668, Final residual = 2.40618e-10, No Iterations 5
DILUPBiCGStab:  Solving for Uy, Initial residual = 0.00109138, Final residual = 3.82471e-10, No Iterations 5
DILUPBiCGStab:  Solving for Uz, Initial residual = 0.00139027, Final residual = 6.8352e-10, No Iterations 5
linear solve U 1831
[OGL LOG] init_preconditioner : 0 ms
[OGL LOG] solve : 15 ms
nonecudaGKOIR:  Solving for p, Initial residual = 0.00105855, Final residual = 9.41791e-08, No Iterations 4
linear solve p 16206
time step continuity errors : sum local = 1.19776e-05, global = 2.37346e-20, cumulative = -5.38811e-19
[OGL LOG] init_preconditioner : 0 ms
[OGL LOG] solve : 13 ms
nonecudaGKOIR:  Solving for p, Initial residual = 0.000774401, Final residual = 6.51024e-07, No Iterations 3
linear solve p 13302
time step continuity errors : sum local = 1.19785e-05, global = -6.24863e-19, cumulative = -1.16367e-18
ExecutionTime = 1.18 s  ClockTime = 2 s

Time = 0.0666667

Courant Number mean: 0.184199 max: 0.791252
DILUPBiCGStab:  Solving for Ux, Initial residual = 0.000360477, Final residual = 1.62759e-10, No Iterations 5
DILUPBiCGStab:  Solving for Uy, Initial residual = 0.000770503, Final residual = 2.4271e-10, No Iterations 5
DILUPBiCGStab:  Solving for Uz, Initial residual = 0.000960073, Final residual = 4.8157e-10, No Iterations 5
linear solve U 1828
[OGL LOG] init_preconditioner : 0 ms
[OGL LOG] solve : 13 ms
nonecudaGKOIR:  Solving for p, Initial residual = 0.000741149, Final residual = 6.28458e-07, No Iterations 3
linear solve p 13603
time step continuity errors : sum local = 1.19786e-05, global = 8.84973e-20, cumulative = -1.07518e-18
[OGL LOG] init_preconditioner : 0 ms
[OGL LOG] solve : 13 ms
nonecudaGKOIR:  Solving for p, Initial residual = 0.000541593, Final residual = 4.77072e-07, No Iterations 3
linear solve p 13399
time step continuity errors : sum local = 1.19782e-05, global = 2.47051e-19, cumulative = -8.28126e-19
ExecutionTime = 1.2 s  ClockTime = 2 s

End

