/*---------------------------------------------------------------------------*\
  =========                 |
  \\      /  F ield         | OpenFOAM: The Open Source CFD Toolbox
   \\    /   O peration     | Website:  https://openfoam.org
    \\  /    A nd           | Version:  8
     \\/     M anipulation  |
\*---------------------------------------------------------------------------*/
Build  : 8-ef60d22ea792
Exec   : icoFoam
Date   : Sep 15 2021
Time   : 14:53:34
Host   : "uc2n482.localdomain"
PID    : 3655511
I/O    : uncollated
Case   : /pfs/data5/home/kit/scc/nq7776/data/code/OBR/lidDrivenCavity3D/Variation_init/100/Variation_mesh/85/Variation_matrix_solver/IR_NoPrecond_CUDA/Variation_innerReductionFactor/0.1/1631710389
nProcs : 1
sigFpe : Enabling floating point exception trapping (FOAM_SIGFPE).
fileModificationChecking : Monitoring run-time modified files using timeStampMaster (fileModificationSkew 10)
allowSystemOperations : Allowing user-supplied system call operations

// * * * * * * * * * * * * * * * * * * * * * * * * * * * * * * * * * * * * * //
Create time

Create mesh for time = 0

Reading transportProperties

Reading field p

Reading field U

Reading/calculating face flux field phi


Starting time loop

Time = 0.00117647

Courant Number mean: 0.17078 max: 0.958539
DILUPBiCGStab:  Solving for Ux, Initial residual = 0.08035, Final residual = 0.000200532, No Iterations 5
DILUPBiCGStab:  Solving for Uy, Initial residual = 0.159613, Final residual = 0.00056519, No Iterations 5
DILUPBiCGStab:  Solving for Uz, Initial residual = 0.222246, Final residual = 0.000790216, No Iterations 5
linear solve U 685300
[OGL LOG] init_host_sparsity_pattern : 202 ms
[OGL LOG] matrix not stored update host matrix
[OGL LOG] update_host_mtx : 105 ms
[OGL LOG] matrix is not yet sorted, compute sorting idxs
[OGL LOG] compute_sort : 5835 ms
[OGL LOG] matrix is not yet sorted, sorting host matrix
[OGL LOG] sort_host_mtx_sparsity_pattern : 122 ms
[OGL LOG] sort_host_mtx : 73 ms
[OGL LOG] init_preconditioner : 0 ms
[OGL LOG] solve : 335 ms
nonecudaGKOIR:  Solving for p, Initial residual = 0.643964, Final residual = 2.32161e-07, No Iterations 7
linear solve p 7515130
time step continuity errors : sum local = 1.86618e-10, global = -2.60191e-20, cumulative = -2.60191e-20
[OGL LOG] init_preconditioner : 0 ms
[OGL LOG] solve : 336 ms
nonecudaGKOIR:  Solving for p, Initial residual = 0.369996, Final residual = 1.51358e-07, No Iterations 7
linear solve p 355554
time step continuity errors : sum local = 1.0824e-10, global = 8.16753e-21, cumulative = -1.78516e-20
ExecutionTime = 11.97 s  ClockTime = 12 s

Time = 0.00235294

Courant Number mean: 0.17242 max: 0.959521
DILUPBiCGStab:  Solving for Ux, Initial residual = 0.0066867, Final residual = 4.22367e-05, No Iterations 5
DILUPBiCGStab:  Solving for Uy, Initial residual = 0.0171906, Final residual = 0.000144526, No Iterations 5
DILUPBiCGStab:  Solving for Uz, Initial residual = 0.0433636, Final residual = 0.000582272, No Iterations 5
linear solve U 603717
[OGL LOG] init_preconditioner : 0 ms
[OGL LOG] solve : 359 ms
nonecudaGKOIR:  Solving for p, Initial residual = 0.435511, Final residual = 1.08198e-07, No Iterations 7
linear solve p 378389
time step continuity errors : sum local = 8.09765e-08, global = -1.5871e-20, cumulative = -3.37227e-20
[OGL LOG] init_preconditioner : 0 ms
[OGL LOG] solve : 336 ms
nonecudaGKOIR:  Solving for p, Initial residual = 0.303854, Final residual = 8.51835e-07, No Iterations 6
linear solve p 355412
time step continuity errors : sum local = 7.01561e-08, global = 1.62451e-20, cumulative = -1.74775e-20
ExecutionTime = 13.66 s  ClockTime = 14 s

Time = 0.00352941

Courant Number mean: 0.173894 max: 0.959456
DILUPBiCGStab:  Solving for Ux, Initial residual = 0.00333713, Final residual = 3.14696e-05, No Iterations 5
DILUPBiCGStab:  Solving for Uy, Initial residual = 0.00945611, Final residual = 8.96573e-05, No Iterations 5
DILUPBiCGStab:  Solving for Uz, Initial residual = 0.030686, Final residual = 0.000410322, No Iterations 5
linear solve U 595602
[OGL LOG] init_preconditioner : 0 ms
[OGL LOG] solve : 325 ms
nonecudaGKOIR:  Solving for p, Initial residual = 0.299931, Final residual = 6.85922e-07, No Iterations 6
linear solve p 346961
time step continuity errors : sum local = 6.81855e-08, global = 7.37859e-21, cumulative = -1.00989e-20
[OGL LOG] init_preconditioner : 0 ms
[OGL LOG] solve : 333 ms
nonecudaGKOIR:  Solving for p, Initial residual = 0.215688, Final residual = 4.94583e-07, No Iterations 6
linear solve p 352752
time step continuity errors : sum local = 6.83065e-08, global = -2.22258e-20, cumulative = -3.23247e-20
ExecutionTime = 15.33 s  ClockTime = 15 s

Time = 0.00470588

Courant Number mean: 0.175264 max: 0.959792
DILUPBiCGStab:  Solving for Ux, Initial residual = 0.00248731, Final residual = 2.07235e-05, No Iterations 5
DILUPBiCGStab:  Solving for Uy, Initial residual = 0.00741668, Final residual = 5.77341e-05, No Iterations 5
DILUPBiCGStab:  Solving for Uz, Initial residual = 0.0248493, Final residual = 0.000346961, No Iterations 5
linear solve U 597428
[OGL LOG] init_preconditioner : 0 ms
[OGL LOG] solve : 322 ms
nonecudaGKOIR:  Solving for p, Initial residual = 0.231305, Final residual = 4.88479e-07, No Iterations 6
linear solve p 341158
time step continuity errors : sum local = 6.97858e-08, global = 2.44397e-20, cumulative = -7.88498e-21
[OGL LOG] init_preconditioner : 0 ms
[OGL LOG] solve : 325 ms
nonecudaGKOIR:  Solving for p, Initial residual = 0.174242, Final residual = 3.61825e-07, No Iterations 6
linear solve p 344530
time step continuity errors : sum local = 6.90211e-08, global = -1.43582e-20, cumulative = -2.22432e-20
ExecutionTime = 16.96 s  ClockTime = 17 s

Time = 0.00588235

Courant Number mean: 0.176537 max: 0.960088
DILUPBiCGStab:  Solving for Ux, Initial residual = 0.0020561, Final residual = 1.50286e-05, No Iterations 5
DILUPBiCGStab:  Solving for Uy, Initial residual = 0.00597111, Final residual = 3.61317e-05, No Iterations 5
DILUPBiCGStab:  Solving for Uz, Initial residual = 0.0198558, Final residual = 0.000272463, No Iterations 5
linear solve U 595440
[OGL LOG] init_preconditioner : 0 ms
[OGL LOG] solve : 296 ms
nonecudaGKOIR:  Solving for p, Initial residual = 0.174287, Final residual = 3.59264e-07, No Iterations 6
linear solve p 315864
time step continuity errors : sum local = 6.90645e-08, global = 6.94347e-21, cumulative = -1.52997e-20
[OGL LOG] init_preconditioner : 0 ms
[OGL LOG] solve : 301 ms
nonecudaGKOIR:  Solving for p, Initial residual = 0.135155, Final residual = 2.60618e-07, No Iterations 6
linear solve p 320251
time step continuity errors : sum local = 6.86202e-08, global = -2.03842e-21, cumulative = -1.73381e-20
ExecutionTime = 18.58 s  ClockTime = 19 s

Time = 0.00705882

Courant Number mean: 0.177704 max: 0.960428
DILUPBiCGStab:  Solving for Ux, Initial residual = 0.00174906, Final residual = 1.21878e-05, No Iterations 5
DILUPBiCGStab:  Solving for Uy, Initial residual = 0.00512411, Final residual = 2.67729e-05, No Iterations 5
DILUPBiCGStab:  Solving for Uz, Initial residual = 0.016577, Final residual = 0.000216557, No Iterations 5
linear solve U 597044
[OGL LOG] init_preconditioner : 0 ms
[OGL LOG] solve : 324 ms
nonecudaGKOIR:  Solving for p, Initial residual = 0.141168, Final residual = 2.77686e-07, No Iterations 6
linear solve p 343236
time step continuity errors : sum local = 6.88013e-08, global = -1.24753e-20, cumulative = -2.98134e-20
[OGL LOG] init_preconditioner : 0 ms
[OGL LOG] solve : 330 ms
nonecudaGKOIR:  Solving for p, Initial residual = 0.112335, Final residual = 1.86842e-07, No Iterations 6
linear solve p 349343
time step continuity errors : sum local = 6.88051e-08, global = -1.74055e-20, cumulative = -4.72189e-20
ExecutionTime = 20.22 s  ClockTime = 20 s

Time = 0.00823529

Courant Number mean: 0.178771 max: 0.960686
DILUPBiCGStab:  Solving for Ux, Initial residual = 0.00151464, Final residual = 9.78431e-06, No Iterations 5
DILUPBiCGStab:  Solving for Uy, Initial residual = 0.00444476, Final residual = 2.00473e-05, No Iterations 5
DILUPBiCGStab:  Solving for Uz, Initial residual = 0.0136247, Final residual = 0.00016199, No Iterations 5
linear solve U 599196
[OGL LOG] init_preconditioner : 0 ms
[OGL LOG] solve : 319 ms
nonecudaGKOIR:  Solving for p, Initial residual = 0.11392, Final residual = 1.84147e-07, No Iterations 6
linear solve p 338367
time step continuity errors : sum local = 6.89738e-08, global = -7.08117e-21, cumulative = -5.43001e-20
[OGL LOG] init_preconditioner : 0 ms
[OGL LOG] solve : 323 ms
nonecudaGKOIR:  Solving for p, Initial residual = 0.0918216, Final residual = 1.42458e-07, No Iterations 6
linear solve p 342774
time step continuity errors : sum local = 6.86852e-08, global = -2.81901e-21, cumulative = -5.71191e-20
ExecutionTime = 21.85 s  ClockTime = 22 s

Time = 0.00941176

Courant Number mean: 0.179753 max: 0.960953
DILUPBiCGStab:  Solving for Ux, Initial residual = 0.00134501, Final residual = 8.39658e-06, No Iterations 5
DILUPBiCGStab:  Solving for Uy, Initial residual = 0.00391834, Final residual = 1.64922e-05, No Iterations 5
DILUPBiCGStab:  Solving for Uz, Initial residual = 0.0115636, Final residual = 0.000123219, No Iterations 5
linear solve U 607195
[OGL LOG] init_preconditioner : 0 ms
[OGL LOG] solve : 329 ms
nonecudaGKOIR:  Solving for p, Initial residual = 0.0945186, Final residual = 1.56617e-07, No Iterations 6
linear solve p 348578
time step continuity errors : sum local = 6.86922e-08, global = 1.07478e-20, cumulative = -4.63713e-20
[OGL LOG] init_preconditioner : 0 ms
[OGL LOG] solve : 333 ms
nonecudaGKOIR:  Solving for p, Initial residual = 0.0771012, Final residual = 1.09473e-07, No Iterations 6
linear solve p 352661
time step continuity errors : sum local = 6.87437e-08, global = 6.25203e-21, cumulative = -4.01193e-20
ExecutionTime = 23.52 s  ClockTime = 24 s

Time = 0.0105882

Courant Number mean: 0.180649 max: 0.961168
DILUPBiCGStab:  Solving for Ux, Initial residual = 0.00118528, Final residual = 6.93779e-06, No Iterations 5
DILUPBiCGStab:  Solving for Uy, Initial residual = 0.00349482, Final residual = 1.38699e-05, No Iterations 5
DILUPBiCGStab:  Solving for Uz, Initial residual = 0.00963803, Final residual = 8.7142e-05, No Iterations 5
linear solve U 592195
[OGL LOG] init_preconditioner : 0 ms
[OGL LOG] solve : 319 ms
nonecudaGKOIR:  Solving for p, Initial residual = 0.0787013, Final residual = 1.2451e-07, No Iterations 6
linear solve p 339231
time step continuity errors : sum local = 6.8871e-08, global = 1.66205e-20, cumulative = -2.34988e-20
[OGL LOG] init_preconditioner : 0 ms
[OGL LOG] solve : 279 ms
nonecudaGKOIR:  Solving for p, Initial residual = 0.0645, Final residual = 9.76517e-07, No Iterations 5
linear solve p 298923
time step continuity errors : sum local = 6.88846e-08, global = -5.22533e-21, cumulative = -2.87241e-20
ExecutionTime = 25.11 s  ClockTime = 25 s

Time = 0.0117647

Courant Number mean: 0.181477 max: 0.961382
DILUPBiCGStab:  Solving for Ux, Initial residual = 0.00107352, Final residual = 6.12244e-06, No Iterations 5
DILUPBiCGStab:  Solving for Uy, Initial residual = 0.00312574, Final residual = 1.24592e-05, No Iterations 5
DILUPBiCGStab:  Solving for Uz, Initial residual = 0.00836354, Final residual = 6.59403e-05, No Iterations 5
linear solve U 597043
[OGL LOG] init_preconditioner : 0 ms
[OGL LOG] solve : 312 ms
nonecudaGKOIR:  Solving for p, Initial residual = 0.0658938, Final residual = 1.02894e-07, No Iterations 6
linear solve p 333207
time step continuity errors : sum local = 6.86855e-08, global = 2.04546e-20, cumulative = -8.26951e-21
[OGL LOG] init_preconditioner : 0 ms
[OGL LOG] solve : 274 ms
nonecudaGKOIR:  Solving for p, Initial residual = 0.054266, Final residual = 9.07996e-07, No Iterations 5
linear solve p 294085
time step continuity errors : sum local = 6.88883e-08, global = -2.89728e-20, cumulative = -3.72423e-20
ExecutionTime = 26.71 s  ClockTime = 27 s

End

