/*---------------------------------------------------------------------------*\
  =========                 |
  \\      /  F ield         | OpenFOAM: The Open Source CFD Toolbox
   \\    /   O peration     | Website:  https://openfoam.org
    \\  /    A nd           | Version:  8
     \\/     M anipulation  |
\*---------------------------------------------------------------------------*/
Build  : 8-ef60d22ea792
Exec   : icoFoam
Date   : Sep 15 2021
Time   : 13:56:16
Host   : "uc2n482.localdomain"
PID    : 3638198
I/O    : uncollated
Case   : /pfs/data5/home/kit/scc/nq7776/data/code/OBR/lidDrivenCavity3D/Variation_init/100/Variation_mesh/95/Variation_matrix_solver/IR_NoPrecond_CUDA/Variation_innerReductionFactor/0.01/1631706944
nProcs : 1
sigFpe : Enabling floating point exception trapping (FOAM_SIGFPE).
fileModificationChecking : Monitoring run-time modified files using timeStampMaster (fileModificationSkew 10)
allowSystemOperations : Allowing user-supplied system call operations

// * * * * * * * * * * * * * * * * * * * * * * * * * * * * * * * * * * * * * //
Create time

Create mesh for time = 0

Reading transportProperties

Reading field p

Reading field U

Reading/calculating face flux field phi


Starting time loop

Time = 0.00105263

Courant Number mean: 0.170953 max: 0.961002
DILUPBiCGStab:  Solving for Ux, Initial residual = 0.0461445, Final residual = 0.000180416, No Iterations 5
DILUPBiCGStab:  Solving for Uy, Initial residual = 0.0921486, Final residual = 0.000510127, No Iterations 5
DILUPBiCGStab:  Solving for Uz, Initial residual = 0.140517, Final residual = 0.000914824, No Iterations 5
linear solve U 913987
[OGL LOG] init_host_sparsity_pattern : 253 ms
[OGL LOG] matrix not stored update host matrix
[OGL LOG] update_host_mtx : 135 ms
[OGL LOG] matrix is not yet sorted, compute sorting idxs
[OGL LOG] compute_sort : 8046 ms
[OGL LOG] matrix is not yet sorted, sorting host matrix
[OGL LOG] sort_host_mtx_sparsity_pattern : 185 ms
[OGL LOG] sort_host_mtx : 109 ms
[OGL LOG] init_preconditioner : 0 ms
[OGL LOG] solve : 514 ms
nonecudaGKOIR:  Solving for p, Initial residual = 0.555784, Final residual = 2.21312e-08, No Iterations 4
linear solve p 10067761
time step continuity errors : sum local = 1.32763e-11, global = 9.49385e-21, cumulative = 9.49385e-21
[OGL LOG] init_preconditioner : 0 ms
[OGL LOG] solve : 439 ms
nonecudaGKOIR:  Solving for p, Initial residual = 0.409115, Final residual = 9.37887e-07, No Iterations 3
linear solve p 466659
time step continuity errors : sum local = 5.56172e-10, global = 8.86791e-21, cumulative = 1.83618e-20
ExecutionTime = 15.91 s  ClockTime = 16 s

Time = 0.00210526

Courant Number mean: 0.172907 max: 0.963527
DILUPBiCGStab:  Solving for Ux, Initial residual = 0.00579889, Final residual = 0.00010225, No Iterations 5
DILUPBiCGStab:  Solving for Uy, Initial residual = 0.0179524, Final residual = 0.000259398, No Iterations 5
DILUPBiCGStab:  Solving for Uz, Initial residual = 0.0487248, Final residual = 0.000750956, No Iterations 5
linear solve U 862378
[OGL LOG] init_preconditioner : 0 ms
[OGL LOG] solve : 438 ms
nonecudaGKOIR:  Solving for p, Initial residual = 0.503488, Final residual = 9.72719e-07, No Iterations 3
linear solve p 467220
time step continuity errors : sum local = 4.68031e-08, global = -8.20463e-21, cumulative = 1.01571e-20
[OGL LOG] init_preconditioner : 0 ms
[OGL LOG] solve : 415 ms
nonecudaGKOIR:  Solving for p, Initial residual = 0.458977, Final residual = 8.62806e-07, No Iterations 3
linear solve p 441874
time step continuity errors : sum local = 4.01123e-08, global = 2.24853e-20, cumulative = 3.26424e-20
ExecutionTime = 18.21 s  ClockTime = 18 s

Time = 0.00315789

Courant Number mean: 0.174172 max: 0.964644
DILUPBiCGStab:  Solving for Ux, Initial residual = 0.00445244, Final residual = 6.52278e-05, No Iterations 5
DILUPBiCGStab:  Solving for Uy, Initial residual = 0.012065, Final residual = 0.000168355, No Iterations 5
DILUPBiCGStab:  Solving for Uz, Initial residual = 0.0401153, Final residual = 0.000539599, No Iterations 5
linear solve U 855035
[OGL LOG] init_preconditioner : 0 ms
[OGL LOG] solve : 446 ms
nonecudaGKOIR:  Solving for p, Initial residual = 0.416682, Final residual = 6.96102e-07, No Iterations 3
linear solve p 474095
time step continuity errors : sum local = 4.33361e-08, global = -9.30177e-21, cumulative = 2.33406e-20
[OGL LOG] init_preconditioner : 0 ms
[OGL LOG] solve : 422 ms
nonecudaGKOIR:  Solving for p, Initial residual = 0.362938, Final residual = 6.16478e-07, No Iterations 3
linear solve p 452491
time step continuity errors : sum local = 3.96754e-08, global = 6.40805e-21, cumulative = 2.97487e-20
ExecutionTime = 20.48 s  ClockTime = 21 s

Time = 0.00421053

Courant Number mean: 0.175231 max: 0.964262
DILUPBiCGStab:  Solving for Ux, Initial residual = 0.00304051, Final residual = 4.39384e-05, No Iterations 5
DILUPBiCGStab:  Solving for Uy, Initial residual = 0.0100843, Final residual = 0.000118352, No Iterations 5
DILUPBiCGStab:  Solving for Uz, Initial residual = 0.0379147, Final residual = 0.000583598, No Iterations 5
linear solve U 850089
[OGL LOG] init_preconditioner : 0 ms
[OGL LOG] solve : 451 ms
nonecudaGKOIR:  Solving for p, Initial residual = 0.363932, Final residual = 5.91208e-07, No Iterations 3
linear solve p 480076
time step continuity errors : sum local = 4.10706e-08, global = 9.98534e-21, cumulative = 3.9734e-20
[OGL LOG] init_preconditioner : 0 ms
[OGL LOG] solve : 433 ms
nonecudaGKOIR:  Solving for p, Initial residual = 0.315844, Final residual = 4.91184e-07, No Iterations 3
linear solve p 460241
time step continuity errors : sum local = 3.98291e-08, global = 6.45184e-21, cumulative = 4.61859e-20
ExecutionTime = 22.8 s  ClockTime = 23 s

Time = 0.00526316

Courant Number mean: 0.176336 max: 0.964276
DILUPBiCGStab:  Solving for Ux, Initial residual = 0.0025878, Final residual = 2.67225e-05, No Iterations 5
DILUPBiCGStab:  Solving for Uy, Initial residual = 0.00746149, Final residual = 8.17519e-05, No Iterations 5
DILUPBiCGStab:  Solving for Uz, Initial residual = 0.0329228, Final residual = 0.000512714, No Iterations 5
linear solve U 852726
[OGL LOG] init_preconditioner : 0 ms
[OGL LOG] solve : 449 ms
nonecudaGKOIR:  Solving for p, Initial residual = 0.312118, Final residual = 4.34799e-07, No Iterations 3
linear solve p 476430
time step continuity errors : sum local = 4.05907e-08, global = -1.33631e-20, cumulative = 3.28228e-20
[OGL LOG] init_preconditioner : 0 ms
[OGL LOG] solve : 448 ms
nonecudaGKOIR:  Solving for p, Initial residual = 0.265288, Final residual = 4.0084e-07, No Iterations 3
linear solve p 476127
time step continuity errors : sum local = 3.96155e-08, global = 8.85037e-21, cumulative = 4.16732e-20
ExecutionTime = 25.09 s  ClockTime = 25 s

Time = 0.00631579

Courant Number mean: 0.177349 max: 0.964727
DILUPBiCGStab:  Solving for Ux, Initial residual = 0.00207791, Final residual = 1.83521e-05, No Iterations 5
DILUPBiCGStab:  Solving for Uy, Initial residual = 0.00661442, Final residual = 5.47839e-05, No Iterations 5
DILUPBiCGStab:  Solving for Uz, Initial residual = 0.0282968, Final residual = 0.000462504, No Iterations 5
linear solve U 846567
[OGL LOG] init_preconditioner : 0 ms
[OGL LOG] solve : 463 ms
nonecudaGKOIR:  Solving for p, Initial residual = 0.277545, Final residual = 3.99275e-07, No Iterations 3
linear solve p 490499
time step continuity errors : sum local = 4.01535e-08, global = 2.26745e-20, cumulative = 6.43477e-20
[OGL LOG] init_preconditioner : 0 ms
[OGL LOG] solve : 472 ms
nonecudaGKOIR:  Solving for p, Initial residual = 0.236133, Final residual = 3.39377e-07, No Iterations 3
linear solve p 499616
time step continuity errors : sum local = 3.97187e-08, global = 2.38174e-21, cumulative = 6.67294e-20
ExecutionTime = 27.46 s  ClockTime = 28 s

Time = 0.00736842

Courant Number mean: 0.178317 max: 0.96464
DILUPBiCGStab:  Solving for Ux, Initial residual = 0.00183605, Final residual = 1.33687e-05, No Iterations 5
DILUPBiCGStab:  Solving for Uy, Initial residual = 0.005494, Final residual = 3.92323e-05, No Iterations 5
DILUPBiCGStab:  Solving for Uz, Initial residual = 0.0240652, Final residual = 0.000400233, No Iterations 5
linear solve U 853732
[OGL LOG] init_preconditioner : 0 ms
[OGL LOG] solve : 400 ms
nonecudaGKOIR:  Solving for p, Initial residual = 0.238906, Final residual = 3.24179e-07, No Iterations 3
linear solve p 428156
time step continuity errors : sum local = 3.99108e-08, global = -1.46742e-20, cumulative = 5.20552e-20
[OGL LOG] init_preconditioner : 0 ms
[OGL LOG] solve : 420 ms
nonecudaGKOIR:  Solving for p, Initial residual = 0.200875, Final residual = 2.66721e-07, No Iterations 3
linear solve p 448113
time step continuity errors : sum local = 3.95922e-08, global = 2.97529e-20, cumulative = 8.18081e-20
ExecutionTime = 29.67 s  ClockTime = 30 s

Time = 0.00842105

Courant Number mean: 0.179217 max: 0.96507
DILUPBiCGStab:  Solving for Ux, Initial residual = 0.00158209, Final residual = 1.00619e-05, No Iterations 5
DILUPBiCGStab:  Solving for Uy, Initial residual = 0.00491125, Final residual = 2.89873e-05, No Iterations 5
DILUPBiCGStab:  Solving for Uz, Initial residual = 0.0201094, Final residual = 0.000347173, No Iterations 5
linear solve U 853887
[OGL LOG] init_preconditioner : 0 ms
[OGL LOG] solve : 402 ms
nonecudaGKOIR:  Solving for p, Initial residual = 0.213068, Final residual = 3.06776e-07, No Iterations 3
linear solve p 430522
time step continuity errors : sum local = 3.99233e-08, global = -1.47153e-20, cumulative = 6.70927e-20
[OGL LOG] init_preconditioner : 0 ms
[OGL LOG] solve : 410 ms
nonecudaGKOIR:  Solving for p, Initial residual = 0.179427, Final residual = 2.41051e-07, No Iterations 3
linear solve p 437638
time step continuity errors : sum local = 3.96602e-08, global = 5.34133e-21, cumulative = 7.24341e-20
ExecutionTime = 31.91 s  ClockTime = 32 s

Time = 0.00947368

Courant Number mean: 0.180056 max: 0.965049
DILUPBiCGStab:  Solving for Ux, Initial residual = 0.00140545, Final residual = 8.0593e-06, No Iterations 5
DILUPBiCGStab:  Solving for Uy, Initial residual = 0.00428029, Final residual = 2.17269e-05, No Iterations 5
DILUPBiCGStab:  Solving for Uz, Initial residual = 0.0170693, Final residual = 0.000288368, No Iterations 5
linear solve U 863359
[OGL LOG] init_preconditioner : 0 ms
[OGL LOG] solve : 417 ms
nonecudaGKOIR:  Solving for p, Initial residual = 0.183708, Final residual = 2.46312e-07, No Iterations 3
linear solve p 444833
time step continuity errors : sum local = 3.97188e-08, global = 2.06033e-22, cumulative = 7.26401e-20
[OGL LOG] init_preconditioner : 0 ms
[OGL LOG] solve : 428 ms
nonecudaGKOIR:  Solving for p, Initial residual = 0.153458, Final residual = 1.98433e-07, No Iterations 3
linear solve p 454685
time step continuity errors : sum local = 3.95848e-08, global = -1.5309e-21, cumulative = 7.11092e-20
ExecutionTime = 34.17 s  ClockTime = 34 s

Time = 0.0105263

Courant Number mean: 0.180839 max: 0.965378
DILUPBiCGStab:  Solving for Ux, Initial residual = 0.00124834, Final residual = 6.53062e-06, No Iterations 5
DILUPBiCGStab:  Solving for Uy, Initial residual = 0.00384663, Final residual = 1.73159e-05, No Iterations 5
DILUPBiCGStab:  Solving for Uz, Initial residual = 0.0143236, Final residual = 0.000249178, No Iterations 5
linear solve U 844428
[OGL LOG] init_preconditioner : 0 ms
[OGL LOG] solve : 412 ms
nonecudaGKOIR:  Solving for p, Initial residual = 0.163279, Final residual = 2.16723e-07, No Iterations 3
linear solve p 439945
time step continuity errors : sum local = 3.97944e-08, global = 1.4996e-22, cumulative = 7.12592e-20
[OGL LOG] init_preconditioner : 0 ms
[OGL LOG] solve : 406 ms
nonecudaGKOIR:  Solving for p, Initial residual = 0.136561, Final residual = 1.85183e-07, No Iterations 3
linear solve p 434952
time step continuity errors : sum local = 3.96281e-08, global = 1.25345e-21, cumulative = 7.25126e-20
ExecutionTime = 36.38 s  ClockTime = 37 s

End

