/*---------------------------------------------------------------------------*\
  =========                 |
  \\      /  F ield         | OpenFOAM: The Open Source CFD Toolbox
   \\    /   O peration     | Website:  https://openfoam.org
    \\  /    A nd           | Version:  8
     \\/     M anipulation  |
\*---------------------------------------------------------------------------*/
Build  : 8-ef60d22ea792
Exec   : icoFoam
Date   : Sep 15 2021
Time   : 15:05:37
Host   : "uc2n482.localdomain"
PID    : 3660581
I/O    : uncollated
Case   : /pfs/data5/home/kit/scc/nq7776/data/code/OBR/lidDrivenCavity3D/Variation_init/100/Variation_mesh/55/Variation_matrix_solver/IR_NoPrecond_CUDA/Variation_innerReductionFactor/0.001/1631711129
nProcs : 1
sigFpe : Enabling floating point exception trapping (FOAM_SIGFPE).
fileModificationChecking : Monitoring run-time modified files using timeStampMaster (fileModificationSkew 10)
allowSystemOperations : Allowing user-supplied system call operations

// * * * * * * * * * * * * * * * * * * * * * * * * * * * * * * * * * * * * * //
Create time

Create mesh for time = 0

Reading transportProperties

Reading field p

Reading field U

Reading/calculating face flux field phi


Starting time loop

Time = 0.00181818

Courant Number mean: 0.170885 max: 0.951813
DILUPBiCGStab:  Solving for Ux, Initial residual = 0.0617772, Final residual = 8.17367e-05, No Iterations 5
DILUPBiCGStab:  Solving for Uy, Initial residual = 0.127918, Final residual = 0.000176819, No Iterations 5
DILUPBiCGStab:  Solving for Uz, Initial residual = 0.177193, Final residual = 0.000215685, No Iterations 5
linear solve U 166537
[OGL LOG] init_host_sparsity_pattern : 47 ms
[OGL LOG] matrix not stored update host matrix
[OGL LOG] update_host_mtx : 27 ms
[OGL LOG] matrix is not yet sorted, compute sorting idxs
[OGL LOG] compute_sort : 1447 ms
[OGL LOG] matrix is not yet sorted, sorting host matrix
[OGL LOG] sort_host_mtx_sparsity_pattern : 33 ms
[OGL LOG] sort_host_mtx : 18 ms
[OGL LOG] init_preconditioner : 0 ms
[OGL LOG] solve : 92 ms
nonecudaGKOIR:  Solving for p, Initial residual = 0.614449, Final residual = 4.56903e-09, No Iterations 3
linear solve p 2431925
time step continuity errors : sum local = 7.52966e-12, global = -2.32257e-20, cumulative = -2.32257e-20
[OGL LOG] init_preconditioner : 0 ms
[OGL LOG] solve : 101 ms
nonecudaGKOIR:  Solving for p, Initial residual = 0.429359, Final residual = 2.22718e-09, No Iterations 3
linear solve p 107066
time step continuity errors : sum local = 2.5688e-12, global = 1.55598e-23, cumulative = -2.32102e-20
ExecutionTime = 3.59 s  ClockTime = 3 s

Time = 0.00363636

Courant Number mean: 0.173201 max: 0.938447
DILUPBiCGStab:  Solving for Ux, Initial residual = 0.008036, Final residual = 1.32171e-05, No Iterations 5
DILUPBiCGStab:  Solving for Uy, Initial residual = 0.0187993, Final residual = 2.49187e-05, No Iterations 5
DILUPBiCGStab:  Solving for Uz, Initial residual = 0.043419, Final residual = 0.000133398, No Iterations 5
linear solve U 150970
[OGL LOG] init_preconditioner : 0 ms
[OGL LOG] solve : 73 ms
nonecudaGKOIR:  Solving for p, Initial residual = 0.309262, Final residual = 8.83125e-07, No Iterations 2
linear solve p 78560
time step continuity errors : sum local = 3.77509e-07, global = -3.71169e-20, cumulative = -6.03271e-20
[OGL LOG] init_preconditioner : 0 ms
[OGL LOG] solve : 75 ms
nonecudaGKOIR:  Solving for p, Initial residual = 0.196346, Final residual = 5.69217e-07, No Iterations 2
linear solve p 80241
time step continuity errors : sum local = 3.64642e-07, global = 5.65463e-21, cumulative = -5.46725e-20
ExecutionTime = 3.99 s  ClockTime = 4 s

Time = 0.00545455

Courant Number mean: 0.175253 max: 0.938256
DILUPBiCGStab:  Solving for Ux, Initial residual = 0.00374959, Final residual = 1.01144e-05, No Iterations 5
DILUPBiCGStab:  Solving for Uy, Initial residual = 0.00920297, Final residual = 1.43024e-05, No Iterations 5
DILUPBiCGStab:  Solving for Uz, Initial residual = 0.0232236, Final residual = 5.76203e-05, No Iterations 5
linear solve U 154446
[OGL LOG] init_preconditioner : 0 ms
[OGL LOG] solve : 76 ms
nonecudaGKOIR:  Solving for p, Initial residual = 0.17123, Final residual = 4.03085e-07, No Iterations 2
linear solve p 81582
time step continuity errors : sum local = 3.6633e-07, global = 6.9424e-21, cumulative = -4.77301e-20
[OGL LOG] init_preconditioner : 0 ms
[OGL LOG] solve : 76 ms
nonecudaGKOIR:  Solving for p, Initial residual = 0.116656, Final residual = 2.81377e-07, No Iterations 2
linear solve p 81899
time step continuity errors : sum local = 3.63158e-07, global = 2.33496e-20, cumulative = -2.43805e-20
ExecutionTime = 4.41 s  ClockTime = 4 s

Time = 0.00727273

Courant Number mean: 0.177048 max: 0.938779
DILUPBiCGStab:  Solving for Ux, Initial residual = 0.00266587, Final residual = 6.46369e-06, No Iterations 5
DILUPBiCGStab:  Solving for Uy, Initial residual = 0.00703993, Final residual = 1.01547e-05, No Iterations 5
DILUPBiCGStab:  Solving for Uz, Initial residual = 0.0168314, Final residual = 3.42191e-05, No Iterations 5
linear solve U 151469
[OGL LOG] init_preconditioner : 0 ms
[OGL LOG] solve : 77 ms
nonecudaGKOIR:  Solving for p, Initial residual = 0.103548, Final residual = 2.31666e-07, No Iterations 2
linear solve p 82238
time step continuity errors : sum local = 3.61225e-07, global = -8.22518e-21, cumulative = -3.26056e-20
[OGL LOG] init_preconditioner : 0 ms
[OGL LOG] solve : 77 ms
nonecudaGKOIR:  Solving for p, Initial residual = 0.0729168, Final residual = 1.72171e-07, No Iterations 2
linear solve p 82390
time step continuity errors : sum local = 3.63075e-07, global = 9.3039e-21, cumulative = -2.33017e-20
ExecutionTime = 4.82 s  ClockTime = 4 s

Time = 0.00909091

Courant Number mean: 0.178659 max: 0.939358
DILUPBiCGStab:  Solving for Ux, Initial residual = 0.00214453, Final residual = 4.4771e-06, No Iterations 5
DILUPBiCGStab:  Solving for Uy, Initial residual = 0.0055403, Final residual = 7.69196e-06, No Iterations 5
DILUPBiCGStab:  Solving for Uz, Initial residual = 0.0120072, Final residual = 2.15318e-05, No Iterations 5
linear solve U 151881
[OGL LOG] init_preconditioner : 0 ms
[OGL LOG] solve : 76 ms
nonecudaGKOIR:  Solving for p, Initial residual = 0.0676795, Final residual = 1.35489e-07, No Iterations 2
linear solve p 81758
time step continuity errors : sum local = 3.64376e-07, global = -3.75474e-21, cumulative = -2.70565e-20
[OGL LOG] init_preconditioner : 0 ms
[OGL LOG] solve : 78 ms
nonecudaGKOIR:  Solving for p, Initial residual = 0.0494704, Final residual = 9.98649e-08, No Iterations 2
linear solve p 84387
time step continuity errors : sum local = 3.63189e-07, global = 2.05131e-21, cumulative = -2.50052e-20
ExecutionTime = 5.23 s  ClockTime = 5 s

Time = 0.0109091

Courant Number mean: 0.180069 max: 0.939963
DILUPBiCGStab:  Solving for Ux, Initial residual = 0.00177179, Final residual = 2.99533e-06, No Iterations 5
DILUPBiCGStab:  Solving for Uy, Initial residual = 0.00472595, Final residual = 5.80069e-06, No Iterations 5
DILUPBiCGStab:  Solving for Uz, Initial residual = 0.0101117, Final residual = 1.58983e-05, No Iterations 5
linear solve U 153436
[OGL LOG] init_preconditioner : 0 ms
[OGL LOG] solve : 80 ms
nonecudaGKOIR:  Solving for p, Initial residual = 0.0441858, Final residual = 8.41384e-08, No Iterations 2
linear solve p 86054
time step continuity errors : sum local = 3.62426e-07, global = 1.04451e-20, cumulative = -1.456e-20
[OGL LOG] init_preconditioner : 0 ms
[OGL LOG] solve : 80 ms
nonecudaGKOIR:  Solving for p, Initial residual = 0.0330915, Final residual = 6.54777e-08, No Iterations 2
linear solve p 85742
time step continuity errors : sum local = 3.63073e-07, global = -7.68056e-21, cumulative = -2.22406e-20
ExecutionTime = 5.65 s  ClockTime = 5 s

Time = 0.0127273

Courant Number mean: 0.181311 max: 0.940375
DILUPBiCGStab:  Solving for Ux, Initial residual = 0.00150046, Final residual = 1.86624e-06, No Iterations 5
DILUPBiCGStab:  Solving for Uy, Initial residual = 0.00397845, Final residual = 3.93472e-06, No Iterations 5
DILUPBiCGStab:  Solving for Uz, Initial residual = 0.00797136, Final residual = 1.14658e-05, No Iterations 5
linear solve U 149672
[OGL LOG] init_preconditioner : 0 ms
[OGL LOG] solve : 80 ms
nonecudaGKOIR:  Solving for p, Initial residual = 0.0312976, Final residual = 5.54563e-08, No Iterations 2
linear solve p 85994
time step continuity errors : sum local = 3.63451e-07, global = 2.50747e-20, cumulative = 2.83407e-21
[OGL LOG] init_preconditioner : 0 ms
[OGL LOG] solve : 80 ms
nonecudaGKOIR:  Solving for p, Initial residual = 0.0239647, Final residual = 4.26941e-08, No Iterations 2
linear solve p 85987
time step continuity errors : sum local = 3.63136e-07, global = -3.45823e-20, cumulative = -3.17482e-20
ExecutionTime = 6.06 s  ClockTime = 6 s

Time = 0.0145455

Courant Number mean: 0.182406 max: 0.940818
DILUPBiCGStab:  Solving for Ux, Initial residual = 0.0012852, Final residual = 1.12753e-06, No Iterations 5
DILUPBiCGStab:  Solving for Uy, Initial residual = 0.00349041, Final residual = 2.55937e-06, No Iterations 5
DILUPBiCGStab:  Solving for Uz, Initial residual = 0.00694177, Final residual = 8.68769e-06, No Iterations 5
linear solve U 148936
[OGL LOG] init_preconditioner : 0 ms
[OGL LOG] solve : 81 ms
nonecudaGKOIR:  Solving for p, Initial residual = 0.0214647, Final residual = 3.67568e-08, No Iterations 2
linear solve p 86467
time step continuity errors : sum local = 3.62885e-07, global = 3.80418e-21, cumulative = -2.7944e-20
[OGL LOG] init_preconditioner : 0 ms
[OGL LOG] solve : 81 ms
nonecudaGKOIR:  Solving for p, Initial residual = 0.0167057, Final residual = 3.01767e-08, No Iterations 2
linear solve p 86989
time step continuity errors : sum local = 3.6309e-07, global = -5.4937e-21, cumulative = -3.34377e-20
ExecutionTime = 6.48 s  ClockTime = 6 s

Time = 0.0163636

Courant Number mean: 0.183372 max: 0.941134
DILUPBiCGStab:  Solving for Ux, Initial residual = 0.00111634, Final residual = 7.08806e-07, No Iterations 5
DILUPBiCGStab:  Solving for Uy, Initial residual = 0.00301004, Final residual = 1.58212e-06, No Iterations 5
DILUPBiCGStab:  Solving for Uz, Initial residual = 0.005774, Final residual = 6.12594e-06, No Iterations 5
linear solve U 157540
[OGL LOG] init_preconditioner : 0 ms
[OGL LOG] solve : 80 ms
nonecudaGKOIR:  Solving for p, Initial residual = 0.0158737, Final residual = 2.56102e-08, No Iterations 2
linear solve p 85640
time step continuity errors : sum local = 3.63198e-07, global = 4.79285e-21, cumulative = -2.86448e-20
[OGL LOG] init_preconditioner : 0 ms
[OGL LOG] solve : 79 ms
nonecudaGKOIR:  Solving for p, Initial residual = 0.0125522, Final residual = 1.92188e-08, No Iterations 2
linear solve p 84658
time step continuity errors : sum local = 3.63116e-07, global = -8.14416e-21, cumulative = -3.6789e-20
ExecutionTime = 6.91 s  ClockTime = 7 s

Time = 0.0181818

Courant Number mean: 0.18423 max: 0.941454
DILUPBiCGStab:  Solving for Ux, Initial residual = 0.000969238, Final residual = 5.33105e-07, No Iterations 5
DILUPBiCGStab:  Solving for Uy, Initial residual = 0.00267677, Final residual = 1.09402e-06, No Iterations 5
DILUPBiCGStab:  Solving for Uz, Initial residual = 0.00508106, Final residual = 5.09053e-06, No Iterations 5
linear solve U 151434
[OGL LOG] init_preconditioner : 0 ms
[OGL LOG] solve : 80 ms
nonecudaGKOIR:  Solving for p, Initial residual = 0.0112643, Final residual = 1.69066e-08, No Iterations 2
linear solve p 85762
time step continuity errors : sum local = 3.63026e-07, global = 4.15075e-21, cumulative = -3.26383e-20
[OGL LOG] init_preconditioner : 0 ms
[OGL LOG] solve : 79 ms
nonecudaGKOIR:  Solving for p, Initial residual = 0.00902501, Final residual = 1.39098e-08, No Iterations 2
linear solve p 84554
time step continuity errors : sum local = 3.63097e-07, global = 6.655e-20, cumulative = 3.39117e-20
ExecutionTime = 7.32 s  ClockTime = 7 s

End

