/*---------------------------------------------------------------------------*\
  =========                 |
  \\      /  F ield         | OpenFOAM: The Open Source CFD Toolbox
   \\    /   O peration     | Website:  https://openfoam.org
    \\  /    A nd           | Version:  8
     \\/     M anipulation  |
\*---------------------------------------------------------------------------*/
Build  : 8-ef60d22ea792
Exec   : icoFoam
Date   : Sep 15 2021
Time   : 13:14:42
Host   : "uc2n482.localdomain"
PID    : 3628668
I/O    : uncollated
Case   : /pfs/data5/home/kit/scc/nq7776/data/code/OBR/lidDrivenCavity3D/Variation_init/100/Variation_mesh/90/Variation_matrix_solver/BiCGStab_ILU_CUDA/1631704446
nProcs : 1
sigFpe : Enabling floating point exception trapping (FOAM_SIGFPE).
fileModificationChecking : Monitoring run-time modified files using timeStampMaster (fileModificationSkew 10)
allowSystemOperations : Allowing user-supplied system call operations

// * * * * * * * * * * * * * * * * * * * * * * * * * * * * * * * * * * * * * //
Create time

Create mesh for time = 0

Reading transportProperties

Reading field p

Reading field U

Reading/calculating face flux field phi


Starting time loop

Time = 0.00111111

Courant Number mean: 0.170803 max: 0.959403
DILUPBiCGStab:  Solving for Ux, Initial residual = 0.0817494, Final residual = 0.000236661, No Iterations 5
DILUPBiCGStab:  Solving for Uy, Initial residual = 0.166742, Final residual = 0.000630917, No Iterations 5
DILUPBiCGStab:  Solving for Uz, Initial residual = 0.256474, Final residual = 0.00093799, No Iterations 5
linear solve U 777409
[OGL LOG] init_host_sparsity_pattern : 216 ms
[OGL LOG] matrix not stored update host matrix
[OGL LOG] update_host_mtx : 115 ms
[OGL LOG] matrix is not yet sorted, compute sorting idxs
[OGL LOG] compute_sort : 6781 ms
[OGL LOG] matrix is not yet sorted, sorting host matrix
[OGL LOG] sort_host_mtx_sparsity_pattern : 149 ms
[OGL LOG] sort_host_mtx : 103 ms
[OGL LOG] init_preconditioner : 278 ms
[OGL LOG] solve : 2054 ms
ILUcudaGKOBiCGStab:  Solving for p, Initial residual = 0.628613, Final residual = 9.35312e-07, No Iterations 175
linear solve p 10524027
time step continuity errors : sum local = 1.91261e-06, global = -1.34011e-20, cumulative = -1.34011e-20
[OGL LOG] init_preconditioner : 0 ms
[OGL LOG] solve : 2189 ms
ILUcudaGKOBiCGStab:  Solving for p, Initial residual = 0.414465, Final residual = 6.62581e-07, No Iterations 187
linear solve p 2216329
time step continuity errors : sum local = 7.0576e-07, global = -1.1695e-20, cumulative = -2.5096e-20
ExecutionTime = 17.31 s  ClockTime = 17 s

Time = 0.00222222

Courant Number mean: 0.172492 max: 0.961842
DILUPBiCGStab:  Solving for Ux, Initial residual = 0.00648934, Final residual = 6.64999e-05, No Iterations 5
DILUPBiCGStab:  Solving for Uy, Initial residual = 0.018171, Final residual = 0.000188411, No Iterations 5
DILUPBiCGStab:  Solving for Uz, Initial residual = 0.0583106, Final residual = 0.000847605, No Iterations 5
linear solve U 720746
[OGL LOG] init_preconditioner : 0 ms
[OGL LOG] solve : 2177 ms
ILUcudaGKOBiCGStab:  Solving for p, Initial residual = 0.502825, Final residual = 8.71726e-07, No Iterations 186
linear solve p 2202478
time step continuity errors : sum local = 8.41915e-06, global = 1.48066e-20, cumulative = -1.02895e-20
[OGL LOG] init_preconditioner : 0 ms
[OGL LOG] solve : 2224 ms
ILUcudaGKOBiCGStab:  Solving for p, Initial residual = 0.421642, Final residual = 9.96143e-07, No Iterations 191
linear solve p 2248948
time step continuity errors : sum local = 7.10933e-07, global = 2.33795e-21, cumulative = -7.95152e-21
ExecutionTime = 22.96 s  ClockTime = 23 s

Time = 0.00333333

Courant Number mean: 0.173861 max: 0.961986
DILUPBiCGStab:  Solving for Ux, Initial residual = 0.00378862, Final residual = 3.60121e-05, No Iterations 5
DILUPBiCGStab:  Solving for Uy, Initial residual = 0.0107483, Final residual = 0.000108881, No Iterations 5
DILUPBiCGStab:  Solving for Uz, Initial residual = 0.0644959, Final residual = 0.00123677, No Iterations 5
linear solve U 731272
[OGL LOG] init_preconditioner : 0 ms
[OGL LOG] solve : 2212 ms
ILUcudaGKOBiCGStab:  Solving for p, Initial residual = 0.441541, Final residual = 9.01492e-07, No Iterations 190
linear solve p 2238592
time step continuity errors : sum local = 5.82007e-06, global = -1.63454e-20, cumulative = -2.42969e-20
[OGL LOG] init_preconditioner : 0 ms
[OGL LOG] solve : 2160 ms
ILUcudaGKOBiCGStab:  Solving for p, Initial residual = 0.35593, Final residual = 9.35238e-07, No Iterations 185
linear solve p 2187271
time step continuity errors : sum local = 7.95804e-07, global = -6.02541e-21, cumulative = -3.03224e-20
ExecutionTime = 28.69 s  ClockTime = 29 s

Time = 0.00444444

Courant Number mean: 0.175125 max: 0.962013
DILUPBiCGStab:  Solving for Ux, Initial residual = 0.00284847, Final residual = 2.31355e-05, No Iterations 5
DILUPBiCGStab:  Solving for Uy, Initial residual = 0.00848108, Final residual = 6.90921e-05, No Iterations 5
DILUPBiCGStab:  Solving for Uz, Initial residual = 0.0761941, Final residual = 0.00136695, No Iterations 5
linear solve U 727189
[OGL LOG] init_preconditioner : 0 ms
[OGL LOG] solve : 2274 ms
ILUcudaGKOBiCGStab:  Solving for p, Initial residual = 0.413597, Final residual = 9.57491e-07, No Iterations 194
linear solve p 2299877
time step continuity errors : sum local = 1.13718e-07, global = 1.00317e-20, cumulative = -2.02906e-20
[OGL LOG] init_preconditioner : 0 ms
[OGL LOG] solve : 2154 ms
ILUcudaGKOBiCGStab:  Solving for p, Initial residual = 0.344951, Final residual = 8.2895e-07, No Iterations 183
linear solve p 2179234
time step continuity errors : sum local = 3.9966e-06, global = -6.58717e-21, cumulative = -2.68778e-20
ExecutionTime = 34.42 s  ClockTime = 35 s

Time = 0.00555556

Courant Number mean: 0.17634 max: 0.96227
DILUPBiCGStab:  Solving for Ux, Initial residual = 0.00240648, Final residual = 1.63048e-05, No Iterations 5
DILUPBiCGStab:  Solving for Uy, Initial residual = 0.00673334, Final residual = 4.56769e-05, No Iterations 5
DILUPBiCGStab:  Solving for Uz, Initial residual = 0.0824118, Final residual = 0.00124631, No Iterations 5
linear solve U 729863
[OGL LOG] init_preconditioner : 0 ms
[OGL LOG] solve : 2074 ms
ILUcudaGKOBiCGStab:  Solving for p, Initial residual = 0.37605, Final residual = 7.60118e-07, No Iterations 177
linear solve p 2097520
time step continuity errors : sum local = 3.19963e-06, global = 2.24823e-21, cumulative = -2.46296e-20
[OGL LOG] init_preconditioner : 0 ms
[OGL LOG] solve : 2159 ms
ILUcudaGKOBiCGStab:  Solving for p, Initial residual = 0.305408, Final residual = 6.6485e-07, No Iterations 184
linear solve p 2183757
time step continuity errors : sum local = 1.08333e-06, global = -1.16072e-20, cumulative = -3.62368e-20
ExecutionTime = 39.9 s  ClockTime = 40 s

Time = 0.00666667

Courant Number mean: 0.177451 max: 0.962617
DILUPBiCGStab:  Solving for Ux, Initial residual = 0.00205624, Final residual = 1.24961e-05, No Iterations 5
DILUPBiCGStab:  Solving for Uy, Initial residual = 0.00571713, Final residual = 3.57911e-05, No Iterations 5
DILUPBiCGStab:  Solving for Uz, Initial residual = 0.084683, Final residual = 0.00122054, No Iterations 5
linear solve U 719336
[OGL LOG] init_preconditioner : 0 ms
[OGL LOG] solve : 2147 ms
ILUcudaGKOBiCGStab:  Solving for p, Initial residual = 0.354239, Final residual = 9.016e-07, No Iterations 183
linear solve p 2170761
time step continuity errors : sum local = 9.79894e-07, global = 5.8785e-21, cumulative = -3.03583e-20
[OGL LOG] init_preconditioner : 0 ms
[OGL LOG] solve : 2157 ms
ILUcudaGKOBiCGStab:  Solving for p, Initial residual = 0.294759, Final residual = 7.74036e-07, No Iterations 184
linear solve p 2182424
time step continuity errors : sum local = 3.46098e-07, global = -5.66192e-21, cumulative = -3.60202e-20
ExecutionTime = 45.41 s  ClockTime = 46 s

Time = 0.00777778

Courant Number mean: 0.178483 max: 0.962805
DILUPBiCGStab:  Solving for Ux, Initial residual = 0.00179324, Final residual = 1.06518e-05, No Iterations 5
DILUPBiCGStab:  Solving for Uy, Initial residual = 0.00497643, Final residual = 2.71555e-05, No Iterations 5
DILUPBiCGStab:  Solving for Uz, Initial residual = 0.0800897, Final residual = 0.000884234, No Iterations 5
linear solve U 718566
[OGL LOG] init_preconditioner : 0 ms
[OGL LOG] solve : 2216 ms
ILUcudaGKOBiCGStab:  Solving for p, Initial residual = 0.315434, Final residual = 8.47353e-07, No Iterations 189
linear solve p 2239236
time step continuity errors : sum local = 7.86623e-08, global = 7.38728e-21, cumulative = -2.86329e-20
[OGL LOG] init_preconditioner : 0 ms
[OGL LOG] solve : 2084 ms
ILUcudaGKOBiCGStab:  Solving for p, Initial residual = 0.264701, Final residual = 9.90482e-07, No Iterations 178
linear solve p 2107656
time step continuity errors : sum local = 5.54798e-08, global = -3.56134e-20, cumulative = -6.42463e-20
ExecutionTime = 50.9 s  ClockTime = 51 s

Time = 0.00888889

Courant Number mean: 0.17943 max: 0.96309
DILUPBiCGStab:  Solving for Ux, Initial residual = 0.00157818, Final residual = 9.43302e-06, No Iterations 5
DILUPBiCGStab:  Solving for Uy, Initial residual = 0.00430042, Final residual = 2.33093e-05, No Iterations 5
DILUPBiCGStab:  Solving for Uz, Initial residual = 0.0684001, Final residual = 0.000583972, No Iterations 5
linear solve U 723568
[OGL LOG] init_preconditioner : 0 ms
[OGL LOG] solve : 1860 ms
ILUcudaGKOBiCGStab:  Solving for p, Initial residual = 0.279281, Final residual = 8.66035e-07, No Iterations 159
linear solve p 1882720
time step continuity errors : sum local = 5.61341e-08, global = -3.07455e-20, cumulative = -9.49918e-20
[OGL LOG] init_preconditioner : 0 ms
[OGL LOG] solve : 2075 ms
ILUcudaGKOBiCGStab:  Solving for p, Initial residual = 0.233936, Final residual = 7.16572e-07, No Iterations 177
linear solve p 2098934
time step continuity errors : sum local = 2.65066e-07, global = -9.34247e-21, cumulative = -1.04334e-19
ExecutionTime = 56.04 s  ClockTime = 56 s

Time = 0.01

Courant Number mean: 0.180306 max: 0.963252
DILUPBiCGStab:  Solving for Ux, Initial residual = 0.00138261, Final residual = 8.75285e-06, No Iterations 5
DILUPBiCGStab:  Solving for Uy, Initial residual = 0.00380914, Final residual = 1.89956e-05, No Iterations 5
DILUPBiCGStab:  Solving for Uz, Initial residual = 0.0586883, Final residual = 0.000456993, No Iterations 5
linear solve U 708259
[OGL LOG] init_preconditioner : 0 ms
[OGL LOG] solve : 2030 ms
ILUcudaGKOBiCGStab:  Solving for p, Initial residual = 0.246819, Final residual = 9.99349e-07, No Iterations 173
linear solve p 2053084
time step continuity errors : sum local = 2.35979e-07, global = 6.52657e-21, cumulative = -9.78077e-20
[OGL LOG] init_preconditioner : 0 ms
[OGL LOG] solve : 1965 ms
ILUcudaGKOBiCGStab:  Solving for p, Initial residual = 0.205839, Final residual = 1.7114e-07, No Iterations 168
linear solve p 1989524
time step continuity errors : sum local = 5.53034e-08, global = 9.59937e-21, cumulative = -8.82084e-20
ExecutionTime = 61.21 s  ClockTime = 61 s

Time = 0.0111111

Courant Number mean: 0.181115 max: 0.963465
DILUPBiCGStab:  Solving for Ux, Initial residual = 0.00123124, Final residual = 7.82499e-06, No Iterations 5
DILUPBiCGStab:  Solving for Uy, Initial residual = 0.00333156, Final residual = 1.71413e-05, No Iterations 5
DILUPBiCGStab:  Solving for Uz, Initial residual = 0.0503607, Final residual = 0.000392098, No Iterations 5
linear solve U 707988
[OGL LOG] init_preconditioner : 0 ms
[OGL LOG] solve : 2033 ms
ILUcudaGKOBiCGStab:  Solving for p, Initial residual = 0.21858, Final residual = 9.71827e-07, No Iterations 174
linear solve p 2056134
time step continuity errors : sum local = 5.57834e-08, global = -2.44201e-20, cumulative = -1.12628e-19
[OGL LOG] init_preconditioner : 0 ms
[OGL LOG] solve : 1988 ms
ILUcudaGKOBiCGStab:  Solving for p, Initial residual = 0.182364, Final residual = 9.8886e-07, No Iterations 170
linear solve p 2010558
time step continuity errors : sum local = 5.55238e-08, global = 1.8506e-20, cumulative = -9.41225e-20
ExecutionTime = 66.41 s  ClockTime = 67 s

End

