/*---------------------------------------------------------------------------*\
  =========                 |
  \\      /  F ield         | OpenFOAM: The Open Source CFD Toolbox
   \\    /   O peration     | Website:  https://openfoam.org
    \\  /    A nd           | Version:  8
     \\/     M anipulation  |
\*---------------------------------------------------------------------------*/
Build  : 8-ef60d22ea792
Exec   : icoFoam
Date   : Sep 15 2021
Time   : 13:48:54
Host   : "uc2n482.localdomain"
PID    : 3637154
I/O    : uncollated
Case   : /pfs/data5/home/kit/scc/nq7776/data/code/OBR/lidDrivenCavity3D/Variation_init/100/Variation_mesh/95/Variation_matrix_solver/CG_BJ_CUDA/Variation_maxBlockSize/1/1631706499
nProcs : 1
sigFpe : Enabling floating point exception trapping (FOAM_SIGFPE).
fileModificationChecking : Monitoring run-time modified files using timeStampMaster (fileModificationSkew 10)
allowSystemOperations : Allowing user-supplied system call operations

// * * * * * * * * * * * * * * * * * * * * * * * * * * * * * * * * * * * * * //
Create time

Create mesh for time = 0

Reading transportProperties

Reading field p

Reading field U

Reading/calculating face flux field phi


Starting time loop

Time = 0.00105263

Courant Number mean: 0.170953 max: 0.961002
DILUPBiCGStab:  Solving for Ux, Initial residual = 0.0461445, Final residual = 0.000180416, No Iterations 5
DILUPBiCGStab:  Solving for Uy, Initial residual = 0.0921486, Final residual = 0.000510127, No Iterations 5
DILUPBiCGStab:  Solving for Uz, Initial residual = 0.140517, Final residual = 0.000914824, No Iterations 5
linear solve U 914698
[OGL LOG] init_host_sparsity_pattern : 255 ms
[OGL LOG] matrix not stored update host matrix
[OGL LOG] update_host_mtx : 140 ms
[OGL LOG] matrix is not yet sorted, compute sorting idxs
[OGL LOG] compute_sort : 8129 ms
[OGL LOG] matrix is not yet sorted, sorting host matrix
[OGL LOG] sort_host_mtx_sparsity_pattern : 176 ms
[OGL LOG] sort_host_mtx : 128 ms
[OGL LOG] init_preconditioner : 1 ms
[OGL LOG] solve : 861 ms
BJcudaGKOCG:  Solving for p, Initial residual = 0.555784, Final residual = 9.46148e-07, No Iterations 789
linear solve p 10534104
time step continuity errors : sum local = 5.67512e-10, global = -1.10797e-20, cumulative = -1.10797e-20
[OGL LOG] init_preconditioner : 0 ms
[OGL LOG] solve : 850 ms
BJcudaGKOCG:  Solving for p, Initial residual = 0.409115, Final residual = 9.92889e-07, No Iterations 785
linear solve p 879778
time step continuity errors : sum local = 5.88698e-10, global = 1.93205e-21, cumulative = -9.14764e-21
ExecutionTime = 16.85 s  ClockTime = 17 s

Time = 0.00210526

Courant Number mean: 0.172907 max: 0.963527
DILUPBiCGStab:  Solving for Ux, Initial residual = 0.00579889, Final residual = 0.00010225, No Iterations 5
DILUPBiCGStab:  Solving for Uy, Initial residual = 0.0179524, Final residual = 0.000259398, No Iterations 5
DILUPBiCGStab:  Solving for Uz, Initial residual = 0.0487246, Final residual = 0.000750937, No Iterations 5
linear solve U 862349
[OGL LOG] init_preconditioner : 0 ms
[OGL LOG] solve : 860 ms
BJcudaGKOCG:  Solving for p, Initial residual = 0.503489, Final residual = 9.77046e-07, No Iterations 794
linear solve p 888061
time step continuity errors : sum local = 4.68096e-08, global = -9.89501e-21, cumulative = -1.90426e-20
[OGL LOG] init_preconditioner : 0 ms
[OGL LOG] solve : 863 ms
BJcudaGKOCG:  Solving for p, Initial residual = 0.458978, Final residual = 9.75316e-07, No Iterations 791
linear solve p 889797
time step continuity errors : sum local = 4.01687e-08, global = -2.07975e-20, cumulative = -3.98401e-20
ExecutionTime = 20.02 s  ClockTime = 20 s

Time = 0.00315789

Courant Number mean: 0.174172 max: 0.964644
DILUPBiCGStab:  Solving for Ux, Initial residual = 0.00445245, Final residual = 6.52288e-05, No Iterations 5
DILUPBiCGStab:  Solving for Uy, Initial residual = 0.012065, Final residual = 0.000168355, No Iterations 5
DILUPBiCGStab:  Solving for Uz, Initial residual = 0.040115, Final residual = 0.000539573, No Iterations 5
linear solve U 860217
[OGL LOG] init_preconditioner : 0 ms
[OGL LOG] solve : 860 ms
BJcudaGKOCG:  Solving for p, Initial residual = 0.416682, Final residual = 9.91774e-07, No Iterations 792
linear solve p 886731
time step continuity errors : sum local = 4.34475e-08, global = 8.42263e-21, cumulative = -3.14175e-20
[OGL LOG] init_preconditioner : 0 ms
[OGL LOG] solve : 853 ms
BJcudaGKOCG:  Solving for p, Initial residual = 0.362939, Final residual = 9.60559e-07, No Iterations 789
linear solve p 883272
time step continuity errors : sum local = 3.98241e-08, global = 1.31524e-20, cumulative = -1.82651e-20
ExecutionTime = 23.17 s  ClockTime = 23 s

Time = 0.00421053

Courant Number mean: 0.175231 max: 0.964262
DILUPBiCGStab:  Solving for Ux, Initial residual = 0.00304048, Final residual = 4.39379e-05, No Iterations 5
DILUPBiCGStab:  Solving for Uy, Initial residual = 0.0100843, Final residual = 0.000118353, No Iterations 5
DILUPBiCGStab:  Solving for Uz, Initial residual = 0.0379154, Final residual = 0.000583613, No Iterations 5
linear solve U 870186
[OGL LOG] init_preconditioner : 0 ms
[OGL LOG] solve : 856 ms
BJcudaGKOCG:  Solving for p, Initial residual = 0.363933, Final residual = 9.87669e-07, No Iterations 792
linear solve p 883033
time step continuity errors : sum local = 4.12111e-08, global = -2.15184e-20, cumulative = -3.97835e-20
[OGL LOG] init_preconditioner : 0 ms
[OGL LOG] solve : 857 ms
BJcudaGKOCG:  Solving for p, Initial residual = 0.315844, Final residual = 9.77469e-07, No Iterations 789
linear solve p 884314
time step continuity errors : sum local = 4.00055e-08, global = 2.31409e-20, cumulative = -1.66426e-20
ExecutionTime = 26.29 s  ClockTime = 26 s

Time = 0.00526316

Courant Number mean: 0.176336 max: 0.964276
DILUPBiCGStab:  Solving for Ux, Initial residual = 0.00258779, Final residual = 2.67227e-05, No Iterations 5
DILUPBiCGStab:  Solving for Uy, Initial residual = 0.00746159, Final residual = 8.17525e-05, No Iterations 5
DILUPBiCGStab:  Solving for Uz, Initial residual = 0.0329217, Final residual = 0.000512652, No Iterations 5
linear solve U 843293
[OGL LOG] init_preconditioner : 0 ms
[OGL LOG] solve : 850 ms
BJcudaGKOCG:  Solving for p, Initial residual = 0.312118, Final residual = 9.72179e-07, No Iterations 785
linear solve p 877510
time step continuity errors : sum local = 4.07685e-08, global = 2.22277e-20, cumulative = 5.58514e-21
[OGL LOG] init_preconditioner : 0 ms
[OGL LOG] solve : 852 ms
BJcudaGKOCG:  Solving for p, Initial residual = 0.265289, Final residual = 9.96184e-07, No Iterations 782
linear solve p 879113
time step continuity errors : sum local = 3.98268e-08, global = 1.42959e-20, cumulative = 1.98811e-20
ExecutionTime = 29.43 s  ClockTime = 30 s

Time = 0.00631579

Courant Number mean: 0.177349 max: 0.964727
DILUPBiCGStab:  Solving for Ux, Initial residual = 0.00207792, Final residual = 1.83523e-05, No Iterations 5
DILUPBiCGStab:  Solving for Uy, Initial residual = 0.00661444, Final residual = 5.47845e-05, No Iterations 5
DILUPBiCGStab:  Solving for Uz, Initial residual = 0.0282991, Final residual = 0.000462605, No Iterations 5
linear solve U 858335
[OGL LOG] init_preconditioner : 0 ms
[OGL LOG] solve : 829 ms
BJcudaGKOCG:  Solving for p, Initial residual = 0.277546, Final residual = 9.57872e-07, No Iterations 783
linear solve p 855487
time step continuity errors : sum local = 4.03287e-08, global = -1.30124e-20, cumulative = 6.86865e-21
[OGL LOG] init_preconditioner : 0 ms
[OGL LOG] solve : 833 ms
BJcudaGKOCG:  Solving for p, Initial residual = 0.236134, Final residual = 9.90678e-07, No Iterations 780
linear solve p 860311
time step continuity errors : sum local = 3.993e-08, global = 1.99925e-20, cumulative = 2.68611e-20
ExecutionTime = 32.5 s  ClockTime = 33 s

Time = 0.00736842

Courant Number mean: 0.178317 max: 0.96464
DILUPBiCGStab:  Solving for Ux, Initial residual = 0.00183604, Final residual = 1.33689e-05, No Iterations 5
DILUPBiCGStab:  Solving for Uy, Initial residual = 0.00549405, Final residual = 3.92317e-05, No Iterations 5
DILUPBiCGStab:  Solving for Uz, Initial residual = 0.0240637, Final residual = 0.000400175, No Iterations 5
linear solve U 855964
[OGL LOG] init_preconditioner : 0 ms
[OGL LOG] solve : 832 ms
BJcudaGKOCG:  Solving for p, Initial residual = 0.238907, Final residual = 9.70734e-07, No Iterations 778
linear solve p 860605
time step continuity errors : sum local = 4.01111e-08, global = 2.74137e-20, cumulative = 5.42748e-20
[OGL LOG] init_preconditioner : 0 ms
[OGL LOG] solve : 825 ms
BJcudaGKOCG:  Solving for p, Initial residual = 0.200876, Final residual = 9.61531e-07, No Iterations 776
linear solve p 852561
time step continuity errors : sum local = 3.98124e-08, global = -1.62556e-21, cumulative = 5.26493e-20
ExecutionTime = 35.57 s  ClockTime = 36 s

Time = 0.00842105

Courant Number mean: 0.179217 max: 0.96507
DILUPBiCGStab:  Solving for Ux, Initial residual = 0.00158209, Final residual = 1.0062e-05, No Iterations 5
DILUPBiCGStab:  Solving for Uy, Initial residual = 0.00491128, Final residual = 2.89878e-05, No Iterations 5
DILUPBiCGStab:  Solving for Uz, Initial residual = 0.0201113, Final residual = 0.000347232, No Iterations 5
linear solve U 852828
[OGL LOG] init_preconditioner : 0 ms
[OGL LOG] solve : 826 ms
BJcudaGKOCG:  Solving for p, Initial residual = 0.213068, Final residual = 9.78658e-07, No Iterations 769
linear solve p 855345
time step continuity errors : sum local = 4.01155e-08, global = 8.0239e-21, cumulative = 6.06732e-20
[OGL LOG] init_preconditioner : 0 ms
[OGL LOG] solve : 816 ms
BJcudaGKOCG:  Solving for p, Initial residual = 0.179428, Final residual = 9.86773e-07, No Iterations 765
linear solve p 844481
time step continuity errors : sum local = 3.9881e-08, global = 3.44312e-21, cumulative = 6.41163e-20
ExecutionTime = 38.63 s  ClockTime = 39 s

Time = 0.00947368

Courant Number mean: 0.180056 max: 0.965049
DILUPBiCGStab:  Solving for Ux, Initial residual = 0.00140544, Final residual = 8.05938e-06, No Iterations 5
DILUPBiCGStab:  Solving for Uy, Initial residual = 0.00428031, Final residual = 2.17265e-05, No Iterations 5
DILUPBiCGStab:  Solving for Uz, Initial residual = 0.0170687, Final residual = 0.000288345, No Iterations 5
linear solve U 855005
[OGL LOG] init_preconditioner : 0 ms
[OGL LOG] solve : 820 ms
BJcudaGKOCG:  Solving for p, Initial residual = 0.183708, Final residual = 9.80625e-07, No Iterations 763
linear solve p 846244
time step continuity errors : sum local = 3.99315e-08, global = -2.06909e-20, cumulative = 4.34254e-20
[OGL LOG] init_preconditioner : 0 ms
[OGL LOG] solve : 834 ms
BJcudaGKOCG:  Solving for p, Initial residual = 0.153459, Final residual = 9.86881e-07, No Iterations 761
linear solve p 860807
time step continuity errors : sum local = 3.98158e-08, global = 8.99232e-22, cumulative = 4.43246e-20
ExecutionTime = 41.67 s  ClockTime = 42 s

Time = 0.0105263

Courant Number mean: 0.180839 max: 0.965378
DILUPBiCGStab:  Solving for Ux, Initial residual = 0.00124833, Final residual = 6.53057e-06, No Iterations 5
DILUPBiCGStab:  Solving for Uy, Initial residual = 0.00384667, Final residual = 1.73165e-05, No Iterations 5
DILUPBiCGStab:  Solving for Uz, Initial residual = 0.0143257, Final residual = 0.000249227, No Iterations 5
linear solve U 857774
[OGL LOG] init_preconditioner : 0 ms
[OGL LOG] solve : 823 ms
BJcudaGKOCG:  Solving for p, Initial residual = 0.163279, Final residual = 9.55991e-07, No Iterations 757
linear solve p 850375
time step continuity errors : sum local = 3.99952e-08, global = -3.75159e-21, cumulative = 4.0573e-20
[OGL LOG] init_preconditioner : 0 ms
[OGL LOG] solve : 818 ms
BJcudaGKOCG:  Solving for p, Initial residual = 0.136561, Final residual = 9.74124e-07, No Iterations 755
linear solve p 844662
time step continuity errors : sum local = 3.98472e-08, global = -3.83999e-20, cumulative = 2.17314e-21
ExecutionTime = 44.71 s  ClockTime = 45 s

End

