/*---------------------------------------------------------------------------*\
  =========                 |
  \\      /  F ield         | OpenFOAM: The Open Source CFD Toolbox
   \\    /   O peration     | Website:  https://openfoam.org
    \\  /    A nd           | Version:  8
     \\/     M anipulation  |
\*---------------------------------------------------------------------------*/
Build  : 8-ef60d22ea792
Exec   : icoFoam
Date   : Sep 15 2021
Time   : 13:57:26
Host   : "uc2n482.localdomain"
PID    : 3638387
I/O    : uncollated
Case   : /pfs/data5/home/kit/scc/nq7776/data/code/OBR/lidDrivenCavity3D/Variation_init/100/Variation_mesh/95/Variation_matrix_solver/IR_NoPrecond_CUDA/Variation_innerReductionFactor/0.05/1631707013
nProcs : 1
sigFpe : Enabling floating point exception trapping (FOAM_SIGFPE).
fileModificationChecking : Monitoring run-time modified files using timeStampMaster (fileModificationSkew 10)
allowSystemOperations : Allowing user-supplied system call operations

// * * * * * * * * * * * * * * * * * * * * * * * * * * * * * * * * * * * * * //
Create time

Create mesh for time = 0

Reading transportProperties

Reading field p

Reading field U

Reading/calculating face flux field phi


Starting time loop

Time = 0.00105263

Courant Number mean: 0.170953 max: 0.961002
DILUPBiCGStab:  Solving for Ux, Initial residual = 0.0461445, Final residual = 0.000180416, No Iterations 5
DILUPBiCGStab:  Solving for Uy, Initial residual = 0.0921486, Final residual = 0.000510127, No Iterations 5
DILUPBiCGStab:  Solving for Uz, Initial residual = 0.140517, Final residual = 0.000914824, No Iterations 5
linear solve U 904917
[OGL LOG] init_host_sparsity_pattern : 254 ms
[OGL LOG] matrix not stored update host matrix
[OGL LOG] update_host_mtx : 138 ms
[OGL LOG] matrix is not yet sorted, compute sorting idxs
[OGL LOG] compute_sort : 8026 ms
[OGL LOG] matrix is not yet sorted, sorting host matrix
[OGL LOG] sort_host_mtx_sparsity_pattern : 172 ms
[OGL LOG] sort_host_mtx : 104 ms
[OGL LOG] init_preconditioner : 0 ms
[OGL LOG] solve : 462 ms
nonecudaGKOIR:  Solving for p, Initial residual = 0.555784, Final residual = 6.02142e-07, No Iterations 5
linear solve p 9982600
time step continuity errors : sum local = 3.61234e-10, global = 7.088e-21, cumulative = 7.088e-21
[OGL LOG] init_preconditioner : 0 ms
[OGL LOG] solve : 489 ms
nonecudaGKOIR:  Solving for p, Initial residual = 0.409115, Final residual = 2.77749e-07, No Iterations 5
linear solve p 517331
time step continuity errors : sum local = 1.64726e-10, global = -7.06576e-22, cumulative = 6.38143e-21
ExecutionTime = 15.86 s  ClockTime = 16 s

Time = 0.00210526

Courant Number mean: 0.172907 max: 0.963527
DILUPBiCGStab:  Solving for Ux, Initial residual = 0.00579889, Final residual = 0.00010225, No Iterations 5
DILUPBiCGStab:  Solving for Uy, Initial residual = 0.0179524, Final residual = 0.000259399, No Iterations 5
DILUPBiCGStab:  Solving for Uz, Initial residual = 0.0487254, Final residual = 0.000750952, No Iterations 5
linear solve U 854241
[OGL LOG] init_preconditioner : 0 ms
[OGL LOG] solve : 516 ms
nonecudaGKOIR:  Solving for p, Initial residual = 0.503488, Final residual = 2.84353e-07, No Iterations 5
linear solve p 545390
time step continuity errors : sum local = 4.65278e-08, global = 4.09992e-22, cumulative = 6.79142e-21
[OGL LOG] init_preconditioner : 0 ms
[OGL LOG] solve : 510 ms
nonecudaGKOIR:  Solving for p, Initial residual = 0.458977, Final residual = 2.34047e-07, No Iterations 5
linear solve p 537398
time step continuity errors : sum local = 3.98285e-08, global = 4.231e-21, cumulative = 1.10224e-20
ExecutionTime = 18.33 s  ClockTime = 18 s

Time = 0.00315789

Courant Number mean: 0.174172 max: 0.964644
DILUPBiCGStab:  Solving for Ux, Initial residual = 0.00445246, Final residual = 6.52288e-05, No Iterations 5
DILUPBiCGStab:  Solving for Uy, Initial residual = 0.012065, Final residual = 0.000168355, No Iterations 5
DILUPBiCGStab:  Solving for Uz, Initial residual = 0.0401158, Final residual = 0.00053959, No Iterations 5
linear solve U 843725
[OGL LOG] init_preconditioner : 0 ms
[OGL LOG] solve : 495 ms
nonecudaGKOIR:  Solving for p, Initial residual = 0.416682, Final residual = 2.18782e-07, No Iterations 5
linear solve p 522874
time step continuity errors : sum local = 4.31732e-08, global = -1.8444e-21, cumulative = 9.17802e-21
[OGL LOG] init_preconditioner : 0 ms
[OGL LOG] solve : 506 ms
nonecudaGKOIR:  Solving for p, Initial residual = 0.362938, Final residual = 1.76579e-07, No Iterations 5
linear solve p 536524
time step continuity errors : sum local = 3.95031e-08, global = 1.63159e-20, cumulative = 2.5494e-20
ExecutionTime = 20.73 s  ClockTime = 20 s

Time = 0.00421053

Courant Number mean: 0.175231 max: 0.964262
DILUPBiCGStab:  Solving for Ux, Initial residual = 0.00304047, Final residual = 4.39379e-05, No Iterations 5
DILUPBiCGStab:  Solving for Uy, Initial residual = 0.0100842, Final residual = 0.000118352, No Iterations 5
DILUPBiCGStab:  Solving for Uz, Initial residual = 0.0379145, Final residual = 0.000583568, No Iterations 5
linear solve U 842748
[OGL LOG] init_preconditioner : 0 ms
[OGL LOG] solve : 509 ms
nonecudaGKOIR:  Solving for p, Initial residual = 0.363932, Final residual = 1.79279e-07, No Iterations 5
linear solve p 537103
time step continuity errors : sum local = 4.09401e-08, global = -2.43429e-21, cumulative = 2.30597e-20
[OGL LOG] init_preconditioner : 0 ms
[OGL LOG] solve : 507 ms
nonecudaGKOIR:  Solving for p, Initial residual = 0.315844, Final residual = 1.55071e-07, No Iterations 5
linear solve p 534042
time step continuity errors : sum local = 3.9712e-08, global = -3.77462e-21, cumulative = 1.92851e-20
ExecutionTime = 23.17 s  ClockTime = 23 s

Time = 0.00526316

Courant Number mean: 0.176336 max: 0.964276
DILUPBiCGStab:  Solving for Ux, Initial residual = 0.00258778, Final residual = 2.67226e-05, No Iterations 5
DILUPBiCGStab:  Solving for Uy, Initial residual = 0.00746152, Final residual = 8.17522e-05, No Iterations 5
DILUPBiCGStab:  Solving for Uz, Initial residual = 0.0329225, Final residual = 0.000512698, No Iterations 5
linear solve U 852533
[OGL LOG] init_preconditioner : 0 ms
[OGL LOG] solve : 488 ms
nonecudaGKOIR:  Solving for p, Initial residual = 0.312118, Final residual = 1.32382e-07, No Iterations 5
linear solve p 515500
time step continuity errors : sum local = 4.05044e-08, global = -5.13238e-21, cumulative = 1.41527e-20
[OGL LOG] init_preconditioner : 0 ms
[OGL LOG] solve : 463 ms
nonecudaGKOIR:  Solving for p, Initial residual = 0.265289, Final residual = 1.18424e-07, No Iterations 5
linear solve p 492836
time step continuity errors : sum local = 3.95267e-08, global = -6.51805e-21, cumulative = 7.63463e-21
ExecutionTime = 25.53 s  ClockTime = 25 s

Time = 0.00631579

Courant Number mean: 0.177349 max: 0.964727
DILUPBiCGStab:  Solving for Ux, Initial residual = 0.00207791, Final residual = 1.83522e-05, No Iterations 5
DILUPBiCGStab:  Solving for Uy, Initial residual = 0.0066144, Final residual = 5.47842e-05, No Iterations 5
DILUPBiCGStab:  Solving for Uz, Initial residual = 0.0282976, Final residual = 0.000462539, No Iterations 5
linear solve U 842277
[OGL LOG] init_preconditioner : 0 ms
[OGL LOG] solve : 489 ms
nonecudaGKOIR:  Solving for p, Initial residual = 0.277545, Final residual = 1.28465e-07, No Iterations 5
linear solve p 518442
time step continuity errors : sum local = 4.00796e-08, global = -4.83227e-22, cumulative = 7.1514e-21
[OGL LOG] init_preconditioner : 0 ms
[OGL LOG] solve : 480 ms
nonecudaGKOIR:  Solving for p, Initial residual = 0.236133, Final residual = 1.01132e-07, No Iterations 5
linear solve p 507473
time step continuity errors : sum local = 3.96504e-08, global = 8.73793e-21, cumulative = 1.58893e-20
ExecutionTime = 27.91 s  ClockTime = 28 s

Time = 0.00736842

Courant Number mean: 0.178317 max: 0.96464
DILUPBiCGStab:  Solving for Ux, Initial residual = 0.00183604, Final residual = 1.33688e-05, No Iterations 5
DILUPBiCGStab:  Solving for Uy, Initial residual = 0.00549399, Final residual = 3.92322e-05, No Iterations 5
DILUPBiCGStab:  Solving for Uz, Initial residual = 0.0240648, Final residual = 0.000400225, No Iterations 5
linear solve U 850150
[OGL LOG] init_preconditioner : 0 ms
[OGL LOG] solve : 484 ms
nonecudaGKOIR:  Solving for p, Initial residual = 0.238906, Final residual = 9.95569e-08, No Iterations 5
linear solve p 512007
time step continuity errors : sum local = 3.98523e-08, global = -3.13286e-20, cumulative = -1.54393e-20
[OGL LOG] init_preconditioner : 0 ms
[OGL LOG] solve : 461 ms
nonecudaGKOIR:  Solving for p, Initial residual = 0.200875, Final residual = 8.21765e-08, No Iterations 5
linear solve p 487895
time step continuity errors : sum local = 3.95412e-08, global = -1.43313e-20, cumulative = -2.97706e-20
ExecutionTime = 30.25 s  ClockTime = 30 s

Time = 0.00842105

Courant Number mean: 0.179217 max: 0.96507
DILUPBiCGStab:  Solving for Ux, Initial residual = 0.00158208, Final residual = 1.0062e-05, No Iterations 5
DILUPBiCGStab:  Solving for Uy, Initial residual = 0.00491125, Final residual = 2.89875e-05, No Iterations 5
DILUPBiCGStab:  Solving for Uz, Initial residual = 0.0201095, Final residual = 0.000347181, No Iterations 5
linear solve U 845740
[OGL LOG] init_preconditioner : 0 ms
[OGL LOG] solve : 483 ms
nonecudaGKOIR:  Solving for p, Initial residual = 0.213067, Final residual = 7.70815e-08, No Iterations 5
linear solve p 510435
time step continuity errors : sum local = 3.98667e-08, global = 8.66738e-21, cumulative = -2.11032e-20
[OGL LOG] init_preconditioner : 0 ms
[OGL LOG] solve : 477 ms
nonecudaGKOIR:  Solving for p, Initial residual = 0.179427, Final residual = 7.27254e-08, No Iterations 5
linear solve p 505766
time step continuity errors : sum local = 3.96175e-08, global = 1.2312e-20, cumulative = -8.79118e-21
ExecutionTime = 32.64 s  ClockTime = 32 s

Time = 0.00947368

Courant Number mean: 0.180056 max: 0.965049
DILUPBiCGStab:  Solving for Ux, Initial residual = 0.00140544, Final residual = 8.0593e-06, No Iterations 5
DILUPBiCGStab:  Solving for Uy, Initial residual = 0.00428027, Final residual = 2.17268e-05, No Iterations 5
DILUPBiCGStab:  Solving for Uz, Initial residual = 0.0170693, Final residual = 0.000288373, No Iterations 5
linear solve U 849523
[OGL LOG] init_preconditioner : 0 ms
[OGL LOG] solve : 435 ms
nonecudaGKOIR:  Solving for p, Initial residual = 0.183708, Final residual = 7.55113e-08, No Iterations 5
linear solve p 462438
time step continuity errors : sum local = 3.9677e-08, global = 1.64568e-20, cumulative = 7.66564e-21
[OGL LOG] init_preconditioner : 0 ms
[OGL LOG] solve : 435 ms
nonecudaGKOIR:  Solving for p, Initial residual = 0.153458, Final residual = 6.1767e-08, No Iterations 5
linear solve p 462557
time step continuity errors : sum local = 3.95513e-08, global = 1.54517e-20, cumulative = 2.31173e-20
ExecutionTime = 34.92 s  ClockTime = 35 s

Time = 0.0105263

Courant Number mean: 0.180839 max: 0.965378
DILUPBiCGStab:  Solving for Ux, Initial residual = 0.00124833, Final residual = 6.53064e-06, No Iterations 5
DILUPBiCGStab:  Solving for Uy, Initial residual = 0.00384663, Final residual = 1.73157e-05, No Iterations 5
DILUPBiCGStab:  Solving for Uz, Initial residual = 0.0143235, Final residual = 0.000249182, No Iterations 5
linear solve U 845520
[OGL LOG] init_preconditioner : 0 ms
[OGL LOG] solve : 482 ms
nonecudaGKOIR:  Solving for p, Initial residual = 0.163279, Final residual = 6.28325e-08, No Iterations 5
linear solve p 510761
time step continuity errors : sum local = 3.97593e-08, global = 1.82761e-20, cumulative = 4.13935e-20
[OGL LOG] init_preconditioner : 0 ms
[OGL LOG] solve : 484 ms
nonecudaGKOIR:  Solving for p, Initial residual = 0.136561, Final residual = 5.17289e-08, No Iterations 5
linear solve p 511559
time step continuity errors : sum local = 3.95985e-08, global = 1.31832e-20, cumulative = 5.45766e-20
ExecutionTime = 37.31 s  ClockTime = 37 s

End

