/*---------------------------------------------------------------------------*\
  =========                 |
  \\      /  F ield         | OpenFOAM: The Open Source CFD Toolbox
   \\    /   O peration     | Website:  https://openfoam.org
    \\  /    A nd           | Version:  8
     \\/     M anipulation  |
\*---------------------------------------------------------------------------*/
Build  : 8-ef60d22ea792
Exec   : icoFoam
Date   : Sep 15 2021
Time   : 13:36:26
Host   : "uc2n482.localdomain"
PID    : 3634161
I/O    : uncollated
Case   : /pfs/data5/home/kit/scc/nq7776/data/code/OBR/lidDrivenCavity3D/Variation_init/100/Variation_mesh/25/Variation_matrix_solver/IR_NoPrecond_CUDA/Variation_innerReductionFactor/0.1/1631705783
nProcs : 1
sigFpe : Enabling floating point exception trapping (FOAM_SIGFPE).
fileModificationChecking : Monitoring run-time modified files using timeStampMaster (fileModificationSkew 10)
allowSystemOperations : Allowing user-supplied system call operations

// * * * * * * * * * * * * * * * * * * * * * * * * * * * * * * * * * * * * * //
Create time

Create mesh for time = 0

Reading transportProperties

Reading field p

Reading field U

Reading/calculating face flux field phi


Starting time loop

Time = 0.004

Courant Number mean: 0.169656 max: 0.889609
DILUPBiCGStab:  Solving for Ux, Initial residual = 0.143151, Final residual = 1.76454e-06, No Iterations 5
DILUPBiCGStab:  Solving for Uy, Initial residual = 0.204592, Final residual = 1.77082e-06, No Iterations 5
DILUPBiCGStab:  Solving for Uz, Initial residual = 0.476047, Final residual = 3.97645e-06, No Iterations 5
linear solve U 11756
[OGL LOG] init_host_sparsity_pattern : 4 ms
[OGL LOG] matrix not stored update host matrix
[OGL LOG] update_host_mtx : 2 ms
[OGL LOG] matrix is not yet sorted, compute sorting idxs
[OGL LOG] compute_sort : 108 ms
[OGL LOG] matrix is not yet sorted, sorting host matrix
[OGL LOG] sort_host_mtx_sparsity_pattern : 2 ms
[OGL LOG] sort_host_mtx : 1 ms
[OGL LOG] init_preconditioner : 0 ms
[OGL LOG] solve : 34 ms
nonecudaGKOIR:  Solving for p, Initial residual = 0.578841, Final residual = 1.85381e-07, No Iterations 7
linear solve p 903857
time step continuity errors : sum local = 1.32962e-09, global = -2.82886e-19, cumulative = -2.82886e-19
[OGL LOG] init_preconditioner : 0 ms
[OGL LOG] solve : 32 ms
nonecudaGKOIR:  Solving for p, Initial residual = 0.27554, Final residual = 6.36194e-07, No Iterations 6
linear solve p 33375
time step continuity errors : sum local = 2.87982e-09, global = -6.33502e-20, cumulative = -3.46236e-19
ExecutionTime = 1.05 s  ClockTime = 1 s

Time = 0.008

Courant Number mean: 0.173868 max: 0.868145
DILUPBiCGStab:  Solving for Ux, Initial residual = 0.0151888, Final residual = 1.22592e-06, No Iterations 5
DILUPBiCGStab:  Solving for Uy, Initial residual = 0.0247674, Final residual = 1.80823e-06, No Iterations 5
DILUPBiCGStab:  Solving for Uz, Initial residual = 0.0887886, Final residual = 3.83477e-06, No Iterations 5
linear solve U 9584
[OGL LOG] init_preconditioner : 0 ms
[OGL LOG] solve : 33 ms
nonecudaGKOIR:  Solving for p, Initial residual = 0.175309, Final residual = 2.43368e-07, No Iterations 6
linear solve p 33602
time step continuity errors : sum local = 3.28429e-06, global = -1.26089e-19, cumulative = -4.72325e-19
[OGL LOG] init_preconditioner : 0 ms
[OGL LOG] solve : 31 ms
nonecudaGKOIR:  Solving for p, Initial residual = 0.103192, Final residual = 1.62642e-07, No Iterations 6
linear solve p 32344
time step continuity errors : sum local = 3.05859e-06, global = -1.75217e-19, cumulative = -6.47541e-19
ExecutionTime = 1.14 s  ClockTime = 1 s

Time = 0.012

Courant Number mean: 0.177048 max: 0.867817
DILUPBiCGStab:  Solving for Ux, Initial residual = 0.00469192, Final residual = 2.96385e-07, No Iterations 5
DILUPBiCGStab:  Solving for Uy, Initial residual = 0.00998764, Final residual = 4.81071e-07, No Iterations 5
DILUPBiCGStab:  Solving for Uz, Initial residual = 0.0313796, Final residual = 1.53353e-06, No Iterations 5
linear solve U 10001
[OGL LOG] init_preconditioner : 0 ms
[OGL LOG] solve : 24 ms
nonecudaGKOIR:  Solving for p, Initial residual = 0.049194, Final residual = 5.10996e-07, No Iterations 5
linear solve p 25332
time step continuity errors : sum local = 3.01804e-06, global = 6.05e-20, cumulative = -5.87041e-19
[OGL LOG] init_preconditioner : 0 ms
[OGL LOG] solve : 24 ms
nonecudaGKOIR:  Solving for p, Initial residual = 0.0326512, Final residual = 3.32166e-07, No Iterations 5
linear solve p 25370
time step continuity errors : sum local = 3.04398e-06, global = -1.05102e-19, cumulative = -6.92143e-19
ExecutionTime = 1.2 s  ClockTime = 1 s

Time = 0.016

Courant Number mean: 0.179565 max: 0.869322
DILUPBiCGStab:  Solving for Ux, Initial residual = 0.00314076, Final residual = 1.45472e-07, No Iterations 5
DILUPBiCGStab:  Solving for Uy, Initial residual = 0.0068196, Final residual = 2.61092e-07, No Iterations 5
DILUPBiCGStab:  Solving for Uz, Initial residual = 0.013099, Final residual = 5.58576e-07, No Iterations 5
linear solve U 9780
[OGL LOG] init_preconditioner : 0 ms
[OGL LOG] solve : 27 ms
nonecudaGKOIR:  Solving for p, Initial residual = 0.0194242, Final residual = 2.13531e-07, No Iterations 5
linear solve p 28325
time step continuity errors : sum local = 3.04877e-06, global = 2.44845e-21, cumulative = -6.89694e-19
[OGL LOG] init_preconditioner : 0 ms
[OGL LOG] solve : 28 ms
nonecudaGKOIR:  Solving for p, Initial residual = 0.0140341, Final residual = 1.65462e-07, No Iterations 5
linear solve p 29173
time step continuity errors : sum local = 3.04639e-06, global = -5.34028e-20, cumulative = -7.43097e-19
ExecutionTime = 1.27 s  ClockTime = 1 s

Time = 0.02

Courant Number mean: 0.181574 max: 0.870814
DILUPBiCGStab:  Solving for Ux, Initial residual = 0.00232727, Final residual = 9.81699e-08, No Iterations 5
DILUPBiCGStab:  Solving for Uy, Initial residual = 0.00517754, Final residual = 1.34683e-07, No Iterations 5
DILUPBiCGStab:  Solving for Uz, Initial residual = 0.00910488, Final residual = 2.66275e-07, No Iterations 5
linear solve U 9654
[OGL LOG] init_preconditioner : 0 ms
[OGL LOG] solve : 28 ms
nonecudaGKOIR:  Solving for p, Initial residual = 0.0100115, Final residual = 8.71826e-07, No Iterations 4
linear solve p 29301
time step continuity errors : sum local = 3.04267e-06, global = 6.69355e-20, cumulative = -6.76162e-19
[OGL LOG] init_preconditioner : 0 ms
[OGL LOG] solve : 25 ms
nonecudaGKOIR:  Solving for p, Initial residual = 0.00751343, Final residual = 5.79837e-07, No Iterations 4
linear solve p 25603
time step continuity errors : sum local = 3.04598e-06, global = -1.47685e-20, cumulative = -6.9093e-19
ExecutionTime = 1.34 s  ClockTime = 1 s

Time = 0.024

Courant Number mean: 0.183143 max: 0.871972
DILUPBiCGStab:  Solving for Ux, Initial residual = 0.0017756, Final residual = 5.93666e-08, No Iterations 5
DILUPBiCGStab:  Solving for Uy, Initial residual = 0.00408243, Final residual = 1.08505e-07, No Iterations 5
DILUPBiCGStab:  Solving for Uz, Initial residual = 0.0067493, Final residual = 1.93392e-07, No Iterations 5
linear solve U 10433
[OGL LOG] init_preconditioner : 0 ms
[OGL LOG] solve : 24 ms
nonecudaGKOIR:  Solving for p, Initial residual = 0.00619612, Final residual = 6.01829e-07, No Iterations 4
linear solve p 25232
time step continuity errors : sum local = 3.04446e-06, global = 3.04452e-20, cumulative = -6.60485e-19
[OGL LOG] init_preconditioner : 0 ms
[OGL LOG] solve : 24 ms
nonecudaGKOIR:  Solving for p, Initial residual = 0.00497357, Final residual = 4.48234e-07, No Iterations 4
linear solve p 25508
time step continuity errors : sum local = 3.04595e-06, global = 7.86483e-20, cumulative = -5.81837e-19
ExecutionTime = 1.41 s  ClockTime = 1 s

Time = 0.028

Courant Number mean: 0.184376 max: 0.872837
DILUPBiCGStab:  Solving for Ux, Initial residual = 0.00137931, Final residual = 4.35515e-08, No Iterations 5
DILUPBiCGStab:  Solving for Uy, Initial residual = 0.00321235, Final residual = 3.22172e-08, No Iterations 5
DILUPBiCGStab:  Solving for Uz, Initial residual = 0.0051121, Final residual = 9.33795e-08, No Iterations 5
linear solve U 10246
[OGL LOG] init_preconditioner : 0 ms
[OGL LOG] solve : 25 ms
nonecudaGKOIR:  Solving for p, Initial residual = 0.00396792, Final residual = 3.58101e-07, No Iterations 4
linear solve p 26026
time step continuity errors : sum local = 3.04437e-06, global = -1.39782e-19, cumulative = -7.21619e-19
[OGL LOG] init_preconditioner : 0 ms
[OGL LOG] solve : 25 ms
nonecudaGKOIR:  Solving for p, Initial residual = 0.00329288, Final residual = 2.8158e-07, No Iterations 4
linear solve p 25708
time step continuity errors : sum local = 3.04581e-06, global = 4.91461e-20, cumulative = -6.72472e-19
ExecutionTime = 1.48 s  ClockTime = 1 s

Time = 0.032

Courant Number mean: 0.185344 max: 0.873502
DILUPBiCGStab:  Solving for Ux, Initial residual = 0.00107782, Final residual = 2.90144e-08, No Iterations 5
DILUPBiCGStab:  Solving for Uy, Initial residual = 0.0025485, Final residual = 2.9214e-08, No Iterations 5
DILUPBiCGStab:  Solving for Uz, Initial residual = 0.00394617, Final residual = 8.12289e-08, No Iterations 5
linear solve U 9744
[OGL LOG] init_preconditioner : 0 ms
[OGL LOG] solve : 23 ms
nonecudaGKOIR:  Solving for p, Initial residual = 0.00303494, Final residual = 2.88176e-07, No Iterations 4
linear solve p 24517
time step continuity errors : sum local = 3.04482e-06, global = -8.52691e-20, cumulative = -7.57742e-19
[OGL LOG] init_preconditioner : 0 ms
[OGL LOG] solve : 23 ms
nonecudaGKOIR:  Solving for p, Initial residual = 0.00256134, Final residual = 2.32361e-07, No Iterations 4
linear solve p 24518
time step continuity errors : sum local = 3.04577e-06, global = -1.25424e-19, cumulative = -8.83165e-19
ExecutionTime = 1.54 s  ClockTime = 1 s

Time = 0.036

Courant Number mean: 0.186107 max: 0.874008
DILUPBiCGStab:  Solving for Ux, Initial residual = 0.000848577, Final residual = 2.26635e-08, No Iterations 5
DILUPBiCGStab:  Solving for Uy, Initial residual = 0.00202251, Final residual = 1.52506e-08, No Iterations 5
DILUPBiCGStab:  Solving for Uz, Initial residual = 0.00304101, Final residual = 5.68083e-08, No Iterations 5
linear solve U 9887
[OGL LOG] init_preconditioner : 0 ms
[OGL LOG] solve : 24 ms
nonecudaGKOIR:  Solving for p, Initial residual = 0.00227458, Final residual = 2.02424e-07, No Iterations 4
linear solve p 24573
time step continuity errors : sum local = 3.04502e-06, global = -3.53702e-21, cumulative = -8.86702e-19
[OGL LOG] init_preconditioner : 0 ms
[OGL LOG] solve : 24 ms
nonecudaGKOIR:  Solving for p, Initial residual = 0.00193427, Final residual = 1.76524e-07, No Iterations 4
linear solve p 24814
time step continuity errors : sum local = 3.04574e-06, global = 1.24792e-19, cumulative = -7.61911e-19
ExecutionTime = 1.61 s  ClockTime = 1 s

Time = 0.04

Courant Number mean: 0.186709 max: 0.874399
DILUPBiCGStab:  Solving for Ux, Initial residual = 0.000670141, Final residual = 1.65799e-08, No Iterations 5
DILUPBiCGStab:  Solving for Uy, Initial residual = 0.0016098, Final residual = 1.26176e-08, No Iterations 5
DILUPBiCGStab:  Solving for Uz, Initial residual = 0.00235907, Final residual = 4.63085e-08, No Iterations 5
linear solve U 9624
[OGL LOG] init_preconditioner : 0 ms
[OGL LOG] solve : 23 ms
nonecudaGKOIR:  Solving for p, Initial residual = 0.00178982, Final residual = 1.70532e-07, No Iterations 4
linear solve p 23912
time step continuity errors : sum local = 3.04522e-06, global = 1.07931e-19, cumulative = -6.5398e-19
[OGL LOG] init_preconditioner : 0 ms
[OGL LOG] solve : 23 ms
nonecudaGKOIR:  Solving for p, Initial residual = 0.00153058, Final residual = 1.2863e-07, No Iterations 4
linear solve p 24274
time step continuity errors : sum local = 3.04571e-06, global = 2.13284e-19, cumulative = -4.40696e-19
ExecutionTime = 1.68 s  ClockTime = 1 s

End

