/*---------------------------------------------------------------------------*\
  =========                 |
  \\      /  F ield         | OpenFOAM: The Open Source CFD Toolbox
   \\    /   O peration     | Website:  https://openfoam.org
    \\  /    A nd           | Version:  8
     \\/     M anipulation  |
\*---------------------------------------------------------------------------*/
Build  : 8-ef60d22ea792
Exec   : icoFoam
Date   : Sep 15 2021
Time   : 14:59:00
Host   : "uc2n482.localdomain"
PID    : 3656970
I/O    : uncollated
Case   : /pfs/data5/home/kit/scc/nq7776/data/code/OBR/lidDrivenCavity3D/Variation_init/100/Variation_mesh/10/Variation_matrix_solver/CG_BJ_CUDA/Variation_maxBlockSize/1/1631710738
nProcs : 1
sigFpe : Enabling floating point exception trapping (FOAM_SIGFPE).
fileModificationChecking : Monitoring run-time modified files using timeStampMaster (fileModificationSkew 10)
allowSystemOperations : Allowing user-supplied system call operations

// * * * * * * * * * * * * * * * * * * * * * * * * * * * * * * * * * * * * * //
Create time

Create mesh for time = 0

Reading transportProperties

Reading field p

Reading field U

Reading/calculating face flux field phi


Starting time loop

Time = 0.01

Courant Number mean: 0.164367 max: 0.687382
DILUPBiCGStab:  Solving for Ux, Initial residual = 0.143876, Final residual = 4.90416e-10, No Iterations 5
DILUPBiCGStab:  Solving for Uy, Initial residual = 0.166383, Final residual = 9.49899e-10, No Iterations 5
DILUPBiCGStab:  Solving for Uz, Initial residual = 0.331866, Final residual = 6.25857e-09, No Iterations 5
linear solve U 791
[OGL LOG] init_host_sparsity_pattern : 0 ms
[OGL LOG] matrix not stored update host matrix
[OGL LOG] update_host_mtx : 0 ms
[OGL LOG] matrix is not yet sorted, compute sorting idxs
[OGL LOG] compute_sort : 5 ms
[OGL LOG] matrix is not yet sorted, sorting host matrix
[OGL LOG] sort_host_mtx_sparsity_pattern : 0 ms
[OGL LOG] sort_host_mtx : 0 ms
[OGL LOG] init_preconditioner : 0 ms
[OGL LOG] solve : 11 ms
BJcudaGKOCG:  Solving for p, Initial residual = 0.61492, Final residual = 9.93547e-07, No Iterations 73
linear solve p 766638
time step continuity errors : sum local = 3.03606e-08, global = -6.34551e-19, cumulative = -6.34551e-19
[OGL LOG] init_preconditioner : 0 ms
[OGL LOG] solve : 10 ms
BJcudaGKOCG:  Solving for p, Initial residual = 0.306169, Final residual = 7.47774e-07, No Iterations 72
linear solve p 10519
time step continuity errors : sum local = 1.28162e-08, global = -1.41586e-19, cumulative = -7.76137e-19
ExecutionTime = 0.82 s  ClockTime = 1 s

Time = 0.02

Courant Number mean: 0.168824 max: 0.675339
DILUPBiCGStab:  Solving for Ux, Initial residual = 0.0355474, Final residual = 1.50456e-09, No Iterations 5
DILUPBiCGStab:  Solving for Uy, Initial residual = 0.0400342, Final residual = 6.38212e-10, No Iterations 5
DILUPBiCGStab:  Solving for Uz, Initial residual = 0.103397, Final residual = 1.82401e-09, No Iterations 5
linear solve U 600
[OGL LOG] init_preconditioner : 0 ms
[OGL LOG] solve : 10 ms
BJcudaGKOCG:  Solving for p, Initial residual = 0.153464, Final residual = 7.80507e-07, No Iterations 71
linear solve p 10358
time step continuity errors : sum local = 2.73772e-05, global = 2.2764e-19, cumulative = -5.48497e-19
[OGL LOG] init_preconditioner : 0 ms
[OGL LOG] solve : 9 ms
BJcudaGKOCG:  Solving for p, Initial residual = 0.0682513, Final residual = 5.89739e-07, No Iterations 69
linear solve p 9932
time step continuity errors : sum local = 2.45618e-05, global = -8.80914e-19, cumulative = -1.42941e-18
ExecutionTime = 0.84 s  ClockTime = 1 s

Time = 0.03

Courant Number mean: 0.172125 max: 0.67452
DILUPBiCGStab:  Solving for Ux, Initial residual = 0.00786248, Final residual = 3.41258e-10, No Iterations 5
DILUPBiCGStab:  Solving for Uy, Initial residual = 0.0117527, Final residual = 1.8167e-10, No Iterations 5
DILUPBiCGStab:  Solving for Uz, Initial residual = 0.0329078, Final residual = 7.73284e-10, No Iterations 5
linear solve U 596
[OGL LOG] init_preconditioner : 0 ms
[OGL LOG] solve : 9 ms
BJcudaGKOCG:  Solving for p, Initial residual = 0.0151554, Final residual = 8.10975e-07, No Iterations 66
linear solve p 9305
time step continuity errors : sum local = 2.4359e-05, global = 2.11229e-19, cumulative = -1.21818e-18
[OGL LOG] init_preconditioner : 0 ms
[OGL LOG] solve : 8 ms
BJcudaGKOCG:  Solving for p, Initial residual = 0.00703047, Final residual = 6.82544e-07, No Iterations 64
linear solve p 9052
time step continuity errors : sum local = 2.43911e-05, global = 1.03298e-19, cumulative = -1.11488e-18
ExecutionTime = 0.86 s  ClockTime = 1 s

Time = 0.04

Courant Number mean: 0.174438 max: 0.676488
DILUPBiCGStab:  Solving for Ux, Initial residual = 0.00346889, Final residual = 8.54513e-11, No Iterations 5
DILUPBiCGStab:  Solving for Uy, Initial residual = 0.00573781, Final residual = 8.30679e-11, No Iterations 5
DILUPBiCGStab:  Solving for Uz, Initial residual = 0.0109325, Final residual = 1.58826e-10, No Iterations 5
linear solve U 578
[OGL LOG] init_preconditioner : 0 ms
[OGL LOG] solve : 8 ms
BJcudaGKOCG:  Solving for p, Initial residual = 0.00633131, Final residual = 8.52819e-07, No Iterations 63
linear solve p 8895
time step continuity errors : sum local = 2.44228e-05, global = -6.93905e-19, cumulative = -1.80879e-18
[OGL LOG] init_preconditioner : 0 ms
[OGL LOG] solve : 8 ms
BJcudaGKOCG:  Solving for p, Initial residual = 0.00352265, Final residual = 7.67822e-07, No Iterations 60
linear solve p 8831
time step continuity errors : sum local = 2.43925e-05, global = -2.88256e-19, cumulative = -2.09705e-18
ExecutionTime = 0.88 s  ClockTime = 1 s

Time = 0.05

Courant Number mean: 0.17593 max: 0.67828
DILUPBiCGStab:  Solving for Ux, Initial residual = 0.0018732, Final residual = 4.14746e-11, No Iterations 5
DILUPBiCGStab:  Solving for Uy, Initial residual = 0.00338894, Final residual = 1.90897e-11, No Iterations 5
DILUPBiCGStab:  Solving for Uz, Initial residual = 0.00559478, Final residual = 8.02393e-11, No Iterations 5
linear solve U 578
[OGL LOG] init_preconditioner : 0 ms
[OGL LOG] solve : 8 ms
BJcudaGKOCG:  Solving for p, Initial residual = 0.00308544, Final residual = 7.574e-07, No Iterations 60
linear solve p 8620
time step continuity errors : sum local = 2.43859e-05, global = 1.79664e-19, cumulative = -1.91738e-18
[OGL LOG] init_preconditioner : 0 ms
[OGL LOG] solve : 8 ms
BJcudaGKOCG:  Solving for p, Initial residual = 0.00176184, Final residual = 7.76372e-07, No Iterations 58
linear solve p 8490
time step continuity errors : sum local = 2.43867e-05, global = 5.62152e-19, cumulative = -1.35523e-18
ExecutionTime = 0.89 s  ClockTime = 1 s

Time = 0.06

Courant Number mean: 0.176864 max: 0.679468
DILUPBiCGStab:  Solving for Ux, Initial residual = 0.00111327, Final residual = 1.55529e-11, No Iterations 5
DILUPBiCGStab:  Solving for Uy, Initial residual = 0.0020947, Final residual = 1.01774e-11, No Iterations 5
DILUPBiCGStab:  Solving for Uz, Initial residual = 0.00301982, Final residual = 5.8583e-11, No Iterations 5
linear solve U 594
[OGL LOG] init_preconditioner : 0 ms
[OGL LOG] solve : 8 ms
BJcudaGKOCG:  Solving for p, Initial residual = 0.00188626, Final residual = 8.25067e-07, No Iterations 59
linear solve p 8627
time step continuity errors : sum local = 2.43793e-05, global = -5.24763e-19, cumulative = -1.87999e-18
[OGL LOG] init_preconditioner : 0 ms
[OGL LOG] solve : 7 ms
BJcudaGKOCG:  Solving for p, Initial residual = 0.0010825, Final residual = 8.22966e-07, No Iterations 57
linear solve p 8117
time step continuity errors : sum local = 2.43815e-05, global = -3.94598e-19, cumulative = -2.27459e-18
ExecutionTime = 0.91 s  ClockTime = 1 s

Time = 0.07

Courant Number mean: 0.177444 max: 0.680222
DILUPBiCGStab:  Solving for Ux, Initial residual = 0.000680256, Final residual = 7.14798e-12, No Iterations 5
DILUPBiCGStab:  Solving for Uy, Initial residual = 0.00129781, Final residual = 6.10805e-12, No Iterations 5
DILUPBiCGStab:  Solving for Uz, Initial residual = 0.00176941, Final residual = 3.86322e-11, No Iterations 5
linear solve U 573
[OGL LOG] init_preconditioner : 0 ms
[OGL LOG] solve : 8 ms
BJcudaGKOCG:  Solving for p, Initial residual = 0.00115063, Final residual = 9.97413e-07, No Iterations 56
linear solve p 8356
time step continuity errors : sum local = 2.43763e-05, global = -5.18808e-19, cumulative = -2.7934e-18
[OGL LOG] init_preconditioner : 0 ms
[OGL LOG] solve : 7 ms
BJcudaGKOCG:  Solving for p, Initial residual = 0.000656202, Final residual = 8.60731e-07, No Iterations 54
linear solve p 7761
time step continuity errors : sum local = 2.43796e-05, global = -1.77149e-19, cumulative = -2.97055e-18
ExecutionTime = 0.93 s  ClockTime = 1 s

Time = 0.08

Courant Number mean: 0.177803 max: 0.680688
DILUPBiCGStab:  Solving for Ux, Initial residual = 0.000418537, Final residual = 3.53412e-12, No Iterations 5
DILUPBiCGStab:  Solving for Uy, Initial residual = 0.000805935, Final residual = 3.70988e-12, No Iterations 5
DILUPBiCGStab:  Solving for Uz, Initial residual = 0.00106465, Final residual = 2.4504e-11, No Iterations 5
linear solve U 576
[OGL LOG] init_preconditioner : 0 ms
[OGL LOG] solve : 7 ms
BJcudaGKOCG:  Solving for p, Initial residual = 0.000708147, Final residual = 9.78168e-07, No Iterations 53
linear solve p 7668
time step continuity errors : sum local = 2.4376e-05, global = -4.19943e-19, cumulative = -3.39049e-18
[OGL LOG] init_preconditioner : 0 ms
[OGL LOG] solve : 7 ms
BJcudaGKOCG:  Solving for p, Initial residual = 0.000404004, Final residual = 9.53538e-07, No Iterations 51
linear solve p 7415
time step continuity errors : sum local = 2.43756e-05, global = 1.33838e-19, cumulative = -3.25665e-18
ExecutionTime = 0.95 s  ClockTime = 1 s

Time = 0.09

Courant Number mean: 0.178025 max: 0.680973
DILUPBiCGStab:  Solving for Ux, Initial residual = 0.000258405, Final residual = 1.77571e-12, No Iterations 5
DILUPBiCGStab:  Solving for Uy, Initial residual = 0.000500332, Final residual = 2.26235e-12, No Iterations 5
DILUPBiCGStab:  Solving for Uz, Initial residual = 0.000648951, Final residual = 1.47938e-11, No Iterations 5
linear solve U 575
[OGL LOG] init_preconditioner : 0 ms
[OGL LOG] solve : 7 ms
BJcudaGKOCG:  Solving for p, Initial residual = 0.000436576, Final residual = 8.95844e-07, No Iterations 51
linear solve p 7330
time step continuity errors : sum local = 2.43761e-05, global = 2.77006e-19, cumulative = -2.97965e-18
[OGL LOG] init_preconditioner : 0 ms
[OGL LOG] solve : 6 ms
BJcudaGKOCG:  Solving for p, Initial residual = 0.000248815, Final residual = 9.06513e-07, No Iterations 49
linear solve p 7044
time step continuity errors : sum local = 2.43756e-05, global = 1.89921e-19, cumulative = -2.78973e-18
ExecutionTime = 0.96 s  ClockTime = 1 s

Time = 0.1

Courant Number mean: 0.178162 max: 0.681146
DILUPBiCGStab:  Solving for Ux, Initial residual = 0.000159814, Final residual = 8.86259e-13, No Iterations 5
DILUPBiCGStab:  Solving for Uy, Initial residual = 0.000310572, Final residual = 1.38664e-12, No Iterations 5
DILUPBiCGStab:  Solving for Uz, Initial residual = 0.000398599, Final residual = 8.99419e-12, No Iterations 5
linear solve U 578
[OGL LOG] init_preconditioner : 0 ms
[OGL LOG] solve : 7 ms
BJcudaGKOCG:  Solving for p, Initial residual = 0.000269261, Final residual = 6.21845e-07, No Iterations 50
linear solve p 7193
time step continuity errors : sum local = 2.43756e-05, global = -3.03807e-19, cumulative = -3.09353e-18
[OGL LOG] init_preconditioner : 0 ms
[OGL LOG] solve : 3 ms
BJcudaGKOCG:  Solving for p, Initial residual = 0.000153408, Final residual = 8.97855e-07, No Iterations 21
linear solve p 3497
time step continuity errors : sum local = 2.43849e-05, global = -2.64698e-21, cumulative = -3.09618e-18
ExecutionTime = 0.98 s  ClockTime = 1 s

End

