/*---------------------------------------------------------------------------*\
  =========                 |
  \\      /  F ield         | OpenFOAM: The Open Source CFD Toolbox
   \\    /   O peration     | Website:  https://openfoam.org
    \\  /    A nd           | Version:  8
     \\/     M anipulation  |
\*---------------------------------------------------------------------------*/
Build  : 8-ef60d22ea792
Exec   : icoFoam
Date   : Sep 15 2021
Time   : 13:45:00
Host   : "uc2n482.localdomain"
PID    : 3636558
I/O    : uncollated
Case   : /pfs/data5/home/kit/scc/nq7776/data/code/OBR/lidDrivenCavity3D/Variation_init/100/Variation_mesh/95/Variation_matrix_solver/CG_BJ_CUDA/Variation_maxBlockSize/8/1631706266
nProcs : 1
sigFpe : Enabling floating point exception trapping (FOAM_SIGFPE).
fileModificationChecking : Monitoring run-time modified files using timeStampMaster (fileModificationSkew 10)
allowSystemOperations : Allowing user-supplied system call operations

// * * * * * * * * * * * * * * * * * * * * * * * * * * * * * * * * * * * * * //
Create time

Create mesh for time = 0

Reading transportProperties

Reading field p

Reading field U

Reading/calculating face flux field phi


Starting time loop

Time = 0.00105263

Courant Number mean: 0.170953 max: 0.961002
DILUPBiCGStab:  Solving for Ux, Initial residual = 0.0461445, Final residual = 0.000180416, No Iterations 5
DILUPBiCGStab:  Solving for Uy, Initial residual = 0.0921486, Final residual = 0.000510127, No Iterations 5
DILUPBiCGStab:  Solving for Uz, Initial residual = 0.140517, Final residual = 0.000914824, No Iterations 5
linear solve U 910509
[OGL LOG] init_host_sparsity_pattern : 252 ms
[OGL LOG] matrix not stored update host matrix
[OGL LOG] update_host_mtx : 135 ms
[OGL LOG] matrix is not yet sorted, compute sorting idxs
[OGL LOG] compute_sort : 8022 ms
[OGL LOG] matrix is not yet sorted, sorting host matrix
[OGL LOG] sort_host_mtx_sparsity_pattern : 182 ms
[OGL LOG] sort_host_mtx : 108 ms
[OGL LOG] init_preconditioner : 93 ms
[OGL LOG] solve : 831 ms
BJcudaGKOCG:  Solving for p, Initial residual = 0.555784, Final residual = 9.82791e-07, No Iterations 699
linear solve p 10451775
time step continuity errors : sum local = 5.89489e-10, global = -2.75918e-21, cumulative = -2.75918e-21
[OGL LOG] init_preconditioner : 0 ms
[OGL LOG] solve : 814 ms
BJcudaGKOCG:  Solving for p, Initial residual = 0.409115, Final residual = 9.86491e-07, No Iterations 695
linear solve p 841253
time step continuity errors : sum local = 5.84905e-10, global = -5.10289e-21, cumulative = -7.86207e-21
ExecutionTime = 16.66 s  ClockTime = 16 s

Time = 0.00210526

Courant Number mean: 0.172907 max: 0.963527
DILUPBiCGStab:  Solving for Ux, Initial residual = 0.00579889, Final residual = 0.000102249, No Iterations 5
DILUPBiCGStab:  Solving for Uy, Initial residual = 0.0179524, Final residual = 0.000259397, No Iterations 5
DILUPBiCGStab:  Solving for Uz, Initial residual = 0.0487251, Final residual = 0.000750976, No Iterations 5
linear solve U 854389
[OGL LOG] init_preconditioner : 0 ms
[OGL LOG] solve : 857 ms
BJcudaGKOCG:  Solving for p, Initial residual = 0.503488, Final residual = 9.77874e-07, No Iterations 722
linear solve p 886253
time step continuity errors : sum local = 4.68002e-08, global = -1.57512e-21, cumulative = -9.43719e-21
[OGL LOG] init_preconditioner : 0 ms
[OGL LOG] solve : 857 ms
BJcudaGKOCG:  Solving for p, Initial residual = 0.458977, Final residual = 9.68778e-07, No Iterations 721
linear solve p 884233
time step continuity errors : sum local = 4.01612e-08, global = 2.22196e-20, cumulative = 1.27824e-20
ExecutionTime = 19.8 s  ClockTime = 20 s

Time = 0.00315789

Courant Number mean: 0.174172 max: 0.964644
DILUPBiCGStab:  Solving for Ux, Initial residual = 0.00445244, Final residual = 6.52289e-05, No Iterations 5
DILUPBiCGStab:  Solving for Uy, Initial residual = 0.012065, Final residual = 0.000168356, No Iterations 5
DILUPBiCGStab:  Solving for Uz, Initial residual = 0.0401163, Final residual = 0.000539603, No Iterations 5
linear solve U 847781
[OGL LOG] init_preconditioner : 0 ms
[OGL LOG] solve : 824 ms
BJcudaGKOCG:  Solving for p, Initial residual = 0.416681, Final residual = 9.87191e-07, No Iterations 697
linear solve p 851991
time step continuity errors : sum local = 4.34383e-08, global = 5.20743e-21, cumulative = 1.79898e-20
[OGL LOG] init_preconditioner : 0 ms
[OGL LOG] solve : 825 ms
BJcudaGKOCG:  Solving for p, Initial residual = 0.362938, Final residual = 9.9179e-07, No Iterations 692
linear solve p 852201
time step continuity errors : sum local = 3.98287e-08, global = -2.73627e-20, cumulative = -9.37288e-21
ExecutionTime = 22.88 s  ClockTime = 23 s

Time = 0.00421053

Courant Number mean: 0.175231 max: 0.964262
DILUPBiCGStab:  Solving for Ux, Initial residual = 0.00304047, Final residual = 4.39377e-05, No Iterations 5
DILUPBiCGStab:  Solving for Uy, Initial residual = 0.0100842, Final residual = 0.000118352, No Iterations 5
DILUPBiCGStab:  Solving for Uz, Initial residual = 0.0379152, Final residual = 0.000583588, No Iterations 5
linear solve U 848796
[OGL LOG] init_preconditioner : 0 ms
[OGL LOG] solve : 788 ms
BJcudaGKOCG:  Solving for p, Initial residual = 0.363931, Final residual = 9.76431e-07, No Iterations 673
linear solve p 815484
time step continuity errors : sum local = 4.11999e-08, global = 1.22111e-20, cumulative = 2.83819e-21
[OGL LOG] init_preconditioner : 0 ms
[OGL LOG] solve : 781 ms
BJcudaGKOCG:  Solving for p, Initial residual = 0.315842, Final residual = 9.66127e-07, No Iterations 672
linear solve p 808677
time step continuity errors : sum local = 3.99954e-08, global = -2.03968e-20, cumulative = -1.75586e-20
ExecutionTime = 25.85 s  ClockTime = 26 s

Time = 0.00526316

Courant Number mean: 0.176336 max: 0.964276
DILUPBiCGStab:  Solving for Ux, Initial residual = 0.00258778, Final residual = 2.67226e-05, No Iterations 5
DILUPBiCGStab:  Solving for Uy, Initial residual = 0.00746152, Final residual = 8.17528e-05, No Iterations 5
DILUPBiCGStab:  Solving for Uz, Initial residual = 0.0329225, Final residual = 0.000512672, No Iterations 5
linear solve U 850379
[OGL LOG] init_preconditioner : 0 ms
[OGL LOG] solve : 776 ms
BJcudaGKOCG:  Solving for p, Initial residual = 0.312116, Final residual = 9.95709e-07, No Iterations 655
linear solve p 804789
time step continuity errors : sum local = 4.07712e-08, global = 9.08165e-21, cumulative = -8.47695e-21
[OGL LOG] init_preconditioner : 0 ms
[OGL LOG] solve : 766 ms
BJcudaGKOCG:  Solving for p, Initial residual = 0.265287, Final residual = 9.59184e-07, No Iterations 654
linear solve p 793800
time step continuity errors : sum local = 3.98077e-08, global = -2.2966e-20, cumulative = -3.1443e-20
ExecutionTime = 28.81 s  ClockTime = 29 s

Time = 0.00631579

Courant Number mean: 0.177349 max: 0.964727
DILUPBiCGStab:  Solving for Ux, Initial residual = 0.00207791, Final residual = 1.83524e-05, No Iterations 5
DILUPBiCGStab:  Solving for Uy, Initial residual = 0.00661433, Final residual = 5.47841e-05, No Iterations 5
DILUPBiCGStab:  Solving for Uz, Initial residual = 0.0282975, Final residual = 0.000462575, No Iterations 5
linear solve U 848984
[OGL LOG] init_preconditioner : 0 ms
[OGL LOG] solve : 768 ms
BJcudaGKOCG:  Solving for p, Initial residual = 0.277544, Final residual = 9.79308e-07, No Iterations 652
linear solve p 795535
time step continuity errors : sum local = 4.03292e-08, global = 1.42278e-20, cumulative = -1.72151e-20
[OGL LOG] init_preconditioner : 0 ms
[OGL LOG] solve : 764 ms
BJcudaGKOCG:  Solving for p, Initial residual = 0.236132, Final residual = 9.7391e-07, No Iterations 651
linear solve p 792253
time step continuity errors : sum local = 3.99204e-08, global = -1.0636e-20, cumulative = -2.78511e-20
ExecutionTime = 31.74 s  ClockTime = 32 s

Time = 0.00736842

Courant Number mean: 0.178317 max: 0.96464
DILUPBiCGStab:  Solving for Ux, Initial residual = 0.00183604, Final residual = 1.33689e-05, No Iterations 5
DILUPBiCGStab:  Solving for Uy, Initial residual = 0.00549398, Final residual = 3.92318e-05, No Iterations 5
DILUPBiCGStab:  Solving for Uz, Initial residual = 0.0240635, Final residual = 0.00040017, No Iterations 5
linear solve U 843994
[OGL LOG] init_preconditioner : 0 ms
[OGL LOG] solve : 766 ms
BJcudaGKOCG:  Solving for p, Initial residual = 0.238905, Final residual = 9.73595e-07, No Iterations 647
linear solve p 794976
time step continuity errors : sum local = 4.01073e-08, global = 1.8118e-20, cumulative = -9.73309e-21
[OGL LOG] init_preconditioner : 0 ms
[OGL LOG] solve : 757 ms
BJcudaGKOCG:  Solving for p, Initial residual = 0.200874, Final residual = 9.72786e-07, No Iterations 645
linear solve p 784127
time step continuity errors : sum local = 3.9813e-08, global = -2.99865e-20, cumulative = -3.97196e-20
ExecutionTime = 34.68 s  ClockTime = 35 s

Time = 0.00842105

Courant Number mean: 0.179217 max: 0.96507
DILUPBiCGStab:  Solving for Ux, Initial residual = 0.00158209, Final residual = 1.0062e-05, No Iterations 5
DILUPBiCGStab:  Solving for Uy, Initial residual = 0.00491122, Final residual = 2.89877e-05, No Iterations 5
DILUPBiCGStab:  Solving for Uz, Initial residual = 0.0201102, Final residual = 0.000347218, No Iterations 5
linear solve U 846313
[OGL LOG] init_preconditioner : 0 ms
[OGL LOG] solve : 760 ms
BJcudaGKOCG:  Solving for p, Initial residual = 0.213066, Final residual = 9.70346e-07, No Iterations 643
linear solve p 787720
time step continuity errors : sum local = 4.01093e-08, global = 1.23372e-20, cumulative = -2.73824e-20
[OGL LOG] init_preconditioner : 0 ms
[OGL LOG] solve : 758 ms
BJcudaGKOCG:  Solving for p, Initial residual = 0.179426, Final residual = 9.90114e-07, No Iterations 641
linear solve p 786836
time step continuity errors : sum local = 3.98797e-08, global = 5.9495e-21, cumulative = -2.14329e-20
ExecutionTime = 37.6 s  ClockTime = 38 s

Time = 0.00947368

Courant Number mean: 0.180056 max: 0.965049
DILUPBiCGStab:  Solving for Ux, Initial residual = 0.00140544, Final residual = 8.05939e-06, No Iterations 5
DILUPBiCGStab:  Solving for Uy, Initial residual = 0.00428028, Final residual = 2.17267e-05, No Iterations 5
DILUPBiCGStab:  Solving for Uz, Initial residual = 0.0170683, Final residual = 0.000288338, No Iterations 5
linear solve U 846522
[OGL LOG] init_preconditioner : 0 ms
[OGL LOG] solve : 760 ms
BJcudaGKOCG:  Solving for p, Initial residual = 0.183706, Final residual = 9.78291e-07, No Iterations 636
linear solve p 789118
time step continuity errors : sum local = 3.9927e-08, global = 3.30596e-21, cumulative = -1.81269e-20
[OGL LOG] init_preconditioner : 0 ms
[OGL LOG] solve : 751 ms
BJcudaGKOCG:  Solving for p, Initial residual = 0.153457, Final residual = 9.60252e-07, No Iterations 635
linear solve p 777927
time step continuity errors : sum local = 3.98033e-08, global = 2.61854e-22, cumulative = -1.78651e-20
ExecutionTime = 40.53 s  ClockTime = 40 s

Time = 0.0105263

Courant Number mean: 0.180839 max: 0.965378
DILUPBiCGStab:  Solving for Ux, Initial residual = 0.00124833, Final residual = 6.53059e-06, No Iterations 5
DILUPBiCGStab:  Solving for Uy, Initial residual = 0.00384665, Final residual = 1.73164e-05, No Iterations 5
DILUPBiCGStab:  Solving for Uz, Initial residual = 0.0143251, Final residual = 0.000249216, No Iterations 5
linear solve U 844010
[OGL LOG] init_preconditioner : 0 ms
[OGL LOG] solve : 741 ms
BJcudaGKOCG:  Solving for p, Initial residual = 0.163278, Final residual = 9.7981e-07, No Iterations 634
linear solve p 768979
time step continuity errors : sum local = 3.99975e-08, global = 9.60164e-21, cumulative = -8.26346e-21
[OGL LOG] init_preconditioner : 0 ms
[OGL LOG] solve : 757 ms
BJcudaGKOCG:  Solving for p, Initial residual = 0.13656, Final residual = 9.70627e-07, No Iterations 633
linear solve p 785458
time step continuity errors : sum local = 3.98438e-08, global = 2.02548e-20, cumulative = 1.19913e-20
ExecutionTime = 43.42 s  ClockTime = 43 s

End

