/*---------------------------------------------------------------------------*\
  =========                 |
  \\      /  F ield         | OpenFOAM: The Open Source CFD Toolbox
   \\    /   O peration     | Website:  https://openfoam.org
    \\  /    A nd           | Version:  8
     \\/     M anipulation  |
\*---------------------------------------------------------------------------*/
Build  : 8-ef60d22ea792
Exec   : icoFoam
Date   : Sep 15 2021
Time   : 13:07:54
Host   : "uc2n482.localdomain"
PID    : 3626586
I/O    : uncollated
Case   : /pfs/data5/home/kit/scc/nq7776/data/code/OBR/lidDrivenCavity3D/Variation_init/100/Variation_mesh/15/Variation_matrix_solver/CG_BJ_CUDA/Variation_maxBlockSize/16/1631704071
nProcs : 1
sigFpe : Enabling floating point exception trapping (FOAM_SIGFPE).
fileModificationChecking : Monitoring run-time modified files using timeStampMaster (fileModificationSkew 10)
allowSystemOperations : Allowing user-supplied system call operations

// * * * * * * * * * * * * * * * * * * * * * * * * * * * * * * * * * * * * * //
Create time

Create mesh for time = 0

Reading transportProperties

Reading field p

Reading field U

Reading/calculating face flux field phi


Starting time loop

Time = 0.00666667

Courant Number mean: 0.166422 max: 0.762393
DILUPBiCGStab:  Solving for Ux, Initial residual = 0.0879544, Final residual = 2.84443e-08, No Iterations 5
DILUPBiCGStab:  Solving for Uy, Initial residual = 0.126984, Final residual = 8.95339e-08, No Iterations 5
DILUPBiCGStab:  Solving for Uz, Initial residual = 0.181802, Final residual = 6.74481e-08, No Iterations 5
linear solve U 2514
[OGL LOG] init_host_sparsity_pattern : 0 ms
[OGL LOG] matrix not stored update host matrix
[OGL LOG] update_host_mtx : 0 ms
[OGL LOG] matrix is not yet sorted, compute sorting idxs
[OGL LOG] compute_sort : 21 ms
[OGL LOG] matrix is not yet sorted, sorting host matrix
[OGL LOG] sort_host_mtx_sparsity_pattern : 0 ms
[OGL LOG] sort_host_mtx : 0 ms
[OGL LOG] init_preconditioner : 0 ms
[OGL LOG] solve : 16 ms
BJcudaGKOCG:  Solving for p, Initial residual = 0.516107, Final residual = 7.80264e-07, No Iterations 112
linear solve p 773995
time step continuity errors : sum local = 1.07557e-08, global = -5.26159e-20, cumulative = -5.26159e-20
[OGL LOG] init_preconditioner : 0 ms
[OGL LOG] solve : 15 ms
BJcudaGKOCG:  Solving for p, Initial residual = 0.271044, Final residual = 9.80392e-07, No Iterations 110
linear solve p 15367
time step continuity errors : sum local = 9.29946e-09, global = -1.94709e-19, cumulative = -2.47325e-19
ExecutionTime = 0.84 s  ClockTime = 0 s

Time = 0.0133333

Courant Number mean: 0.171844 max: 0.7773
DILUPBiCGStab:  Solving for Ux, Initial residual = 0.021091, Final residual = 3.34888e-08, No Iterations 5
DILUPBiCGStab:  Solving for Uy, Initial residual = 0.0294977, Final residual = 2.90951e-08, No Iterations 5
DILUPBiCGStab:  Solving for Uz, Initial residual = 0.0732073, Final residual = 9.44448e-08, No Iterations 5
linear solve U 1844
[OGL LOG] init_preconditioner : 0 ms
[OGL LOG] solve : 13 ms
BJcudaGKOCG:  Solving for p, Initial residual = 0.145576, Final residual = 9.14052e-07, No Iterations 99
linear solve p 13798
time step continuity errors : sum local = 1.32882e-05, global = 2.94917e-20, cumulative = -2.17833e-19
[OGL LOG] init_preconditioner : 0 ms
[OGL LOG] solve : 13 ms
BJcudaGKOCG:  Solving for p, Initial residual = 0.085182, Final residual = 8.37901e-07, No Iterations 96
linear solve p 13406
time step continuity errors : sum local = 1.20398e-05, global = 9.59088e-20, cumulative = -1.21924e-19
ExecutionTime = 0.86 s  ClockTime = 0 s

Time = 0.02

Courant Number mean: 0.175686 max: 0.781333
DILUPBiCGStab:  Solving for Ux, Initial residual = 0.00574943, Final residual = 1.22876e-08, No Iterations 5
DILUPBiCGStab:  Solving for Uy, Initial residual = 0.0110708, Final residual = 1.81212e-08, No Iterations 5
DILUPBiCGStab:  Solving for Uz, Initial residual = 0.0200864, Final residual = 1.31282e-08, No Iterations 5
linear solve U 1917
[OGL LOG] init_preconditioner : 0 ms
[OGL LOG] solve : 13 ms
BJcudaGKOCG:  Solving for p, Initial residual = 0.0224844, Final residual = 9.48846e-07, No Iterations 98
linear solve p 14159
time step continuity errors : sum local = 1.18769e-05, global = 4.37281e-19, cumulative = 3.15356e-19
[OGL LOG] init_preconditioner : 0 ms
[OGL LOG] solve : 13 ms
BJcudaGKOCG:  Solving for p, Initial residual = 0.0139027, Final residual = 9.47968e-07, No Iterations 95
linear solve p 13492
time step continuity errors : sum local = 1.1975e-05, global = 6.69024e-20, cumulative = 3.82259e-19
ExecutionTime = 0.89 s  ClockTime = 0 s

Time = 0.0266667

Courant Number mean: 0.178552 max: 0.784986
DILUPBiCGStab:  Solving for Ux, Initial residual = 0.00342738, Final residual = 5.12955e-09, No Iterations 5
DILUPBiCGStab:  Solving for Uy, Initial residual = 0.00658328, Final residual = 1.155e-08, No Iterations 5
DILUPBiCGStab:  Solving for Uz, Initial residual = 0.00949995, Final residual = 9.57128e-09, No Iterations 5
linear solve U 1923
[OGL LOG] init_preconditioner : 0 ms
[OGL LOG] solve : 12 ms
BJcudaGKOCG:  Solving for p, Initial residual = 0.0101085, Final residual = 9.69732e-07, No Iterations 90
linear solve p 12685
time step continuity errors : sum local = 1.19914e-05, global = -2.67874e-19, cumulative = 1.14385e-19
[OGL LOG] init_preconditioner : 0 ms
[OGL LOG] solve : 12 ms
BJcudaGKOCG:  Solving for p, Initial residual = 0.00719479, Final residual = 8.97514e-07, No Iterations 89
linear solve p 12445
time step continuity errors : sum local = 1.19797e-05, global = 1.88465e-19, cumulative = 3.02849e-19
ExecutionTime = 0.92 s  ClockTime = 0 s

Time = 0.0333333

Courant Number mean: 0.180502 max: 0.787346
DILUPBiCGStab:  Solving for Ux, Initial residual = 0.00221544, Final residual = 1.91296e-09, No Iterations 5
DILUPBiCGStab:  Solving for Uy, Initial residual = 0.00448404, Final residual = 2.89391e-09, No Iterations 5
DILUPBiCGStab:  Solving for Uz, Initial residual = 0.00628913, Final residual = 3.20961e-09, No Iterations 5
linear solve U 1826
[OGL LOG] init_preconditioner : 0 ms
[OGL LOG] solve : 12 ms
BJcudaGKOCG:  Solving for p, Initial residual = 0.00453637, Final residual = 7.96311e-07, No Iterations 89
linear solve p 12469
time step continuity errors : sum local = 1.19767e-05, global = 8.69091e-21, cumulative = 3.1154e-19
[OGL LOG] init_preconditioner : 0 ms
[OGL LOG] solve : 11 ms
BJcudaGKOCG:  Solving for p, Initial residual = 0.00321756, Final residual = 9.35852e-07, No Iterations 87
linear solve p 12191
time step continuity errors : sum local = 1.198e-05, global = 2.77492e-20, cumulative = 3.39289e-19
ExecutionTime = 0.96 s  ClockTime = 1 s

Time = 0.04

Courant Number mean: 0.181846 max: 0.788821
DILUPBiCGStab:  Solving for Ux, Initial residual = 0.0015216, Final residual = 8.48257e-10, No Iterations 5
DILUPBiCGStab:  Solving for Uy, Initial residual = 0.00314059, Final residual = 2.024e-09, No Iterations 5
DILUPBiCGStab:  Solving for Uz, Initial residual = 0.00421412, Final residual = 2.08598e-09, No Iterations 5
linear solve U 1829
[OGL LOG] init_preconditioner : 0 ms
[OGL LOG] solve : 11 ms
BJcudaGKOCG:  Solving for p, Initial residual = 0.0033245, Final residual = 9.77286e-07, No Iterations 83
linear solve p 11716
time step continuity errors : sum local = 1.19785e-05, global = 1.20063e-19, cumulative = 4.59352e-19
[OGL LOG] init_preconditioner : 0 ms
[OGL LOG] solve : 11 ms
BJcudaGKOCG:  Solving for p, Initial residual = 0.00243747, Final residual = 9.66037e-07, No Iterations 80
linear solve p 11576
time step continuity errors : sum local = 1.19795e-05, global = -1.70068e-19, cumulative = 2.89284e-19
ExecutionTime = 0.98 s  ClockTime = 1 s

Time = 0.0466667

Courant Number mean: 0.182778 max: 0.78982
DILUPBiCGStab:  Solving for Ux, Initial residual = 0.00104887, Final residual = 5.72072e-10, No Iterations 5
DILUPBiCGStab:  Solving for Uy, Initial residual = 0.0021992, Final residual = 1.09346e-09, No Iterations 5
DILUPBiCGStab:  Solving for Uz, Initial residual = 0.0029246, Final residual = 1.31728e-09, No Iterations 5
linear solve U 1832
[OGL LOG] init_preconditioner : 0 ms
[OGL LOG] solve : 11 ms
BJcudaGKOCG:  Solving for p, Initial residual = 0.00216675, Final residual = 8.97918e-07, No Iterations 80
linear solve p 11609
time step continuity errors : sum local = 1.19787e-05, global = -2.84771e-20, cumulative = 2.60807e-19
[OGL LOG] init_preconditioner : 0 ms
[OGL LOG] solve : 10 ms
BJcudaGKOCG:  Solving for p, Initial residual = 0.00157892, Final residual = 8.31693e-07, No Iterations 79
linear solve p 11164
time step continuity errors : sum local = 1.19788e-05, global = -2.3514e-19, cumulative = 2.56666e-20
ExecutionTime = 1.01 s  ClockTime = 1 s

Time = 0.0533333

Courant Number mean: 0.183428 max: 0.790487
DILUPBiCGStab:  Solving for Ux, Initial residual = 0.000730816, Final residual = 3.54041e-10, No Iterations 5
DILUPBiCGStab:  Solving for Uy, Initial residual = 0.00154856, Final residual = 6.38366e-10, No Iterations 5
DILUPBiCGStab:  Solving for Uz, Initial residual = 0.00201536, Final residual = 9.26397e-10, No Iterations 5
linear solve U 1918
[OGL LOG] init_preconditioner : 0 ms
[OGL LOG] solve : 10 ms
BJcudaGKOCG:  Solving for p, Initial residual = 0.00152807, Final residual = 9.06307e-07, No Iterations 78
linear solve p 10969
time step continuity errors : sum local = 1.19787e-05, global = -1.55157e-19, cumulative = -1.2949e-19
[OGL LOG] init_preconditioner : 0 ms
[OGL LOG] solve : 10 ms
BJcudaGKOCG:  Solving for p, Initial residual = 0.00111754, Final residual = 9.94547e-07, No Iterations 76
linear solve p 10723
time step continuity errors : sum local = 1.19794e-05, global = 8.84091e-20, cumulative = -4.10813e-20
ExecutionTime = 1.03 s  ClockTime = 1 s

Time = 0.06

Courant Number mean: 0.183882 max: 0.790942
DILUPBiCGStab:  Solving for Ux, Initial residual = 0.00051267, Final residual = 2.40623e-10, No Iterations 5
DILUPBiCGStab:  Solving for Uy, Initial residual = 0.0010914, Final residual = 3.82485e-10, No Iterations 5
DILUPBiCGStab:  Solving for Uz, Initial residual = 0.00139252, Final residual = 6.44851e-10, No Iterations 5
linear solve U 1872
[OGL LOG] init_preconditioner : 0 ms
[OGL LOG] solve : 10 ms
BJcudaGKOCG:  Solving for p, Initial residual = 0.00105846, Final residual = 7.24105e-07, No Iterations 77
linear solve p 10796
time step continuity errors : sum local = 1.19785e-05, global = 6.10128e-20, cumulative = 1.99315e-20
[OGL LOG] init_preconditioner : 0 ms
[OGL LOG] solve : 9 ms
BJcudaGKOCG:  Solving for p, Initial residual = 0.000774316, Final residual = 9.84351e-07, No Iterations 72
linear solve p 10181
time step continuity errors : sum local = 1.19793e-05, global = -1.78142e-19, cumulative = -1.5821e-19
ExecutionTime = 1.06 s  ClockTime = 1 s

Time = 0.0666667

Courant Number mean: 0.184199 max: 0.791252
DILUPBiCGStab:  Solving for Ux, Initial residual = 0.000360488, Final residual = 1.62659e-10, No Iterations 5
DILUPBiCGStab:  Solving for Uy, Initial residual = 0.000770494, Final residual = 2.42809e-10, No Iterations 5
DILUPBiCGStab:  Solving for Uz, Initial residual = 0.000961074, Final residual = 4.44881e-10, No Iterations 5
linear solve U 1867
[OGL LOG] init_preconditioner : 0 ms
[OGL LOG] solve : 10 ms
BJcudaGKOCG:  Solving for p, Initial residual = 0.00074126, Final residual = 8.50364e-07, No Iterations 72
linear solve p 10308
time step continuity errors : sum local = 1.19786e-05, global = 9.95264e-20, cumulative = -5.86837e-20
[OGL LOG] init_preconditioner : 0 ms
[OGL LOG] solve : 10 ms
BJcudaGKOCG:  Solving for p, Initial residual = 0.000541612, Final residual = 8.80081e-07, No Iterations 70
linear solve p 10345
time step continuity errors : sum local = 1.19791e-05, global = -6.4101e-20, cumulative = -1.22785e-19
ExecutionTime = 1.08 s  ClockTime = 1 s

End

