/*---------------------------------------------------------------------------*\
  =========                 |
  \\      /  F ield         | OpenFOAM: The Open Source CFD Toolbox
   \\    /   O peration     | Website:  https://openfoam.org
    \\  /    A nd           | Version:  8
     \\/     M anipulation  |
\*---------------------------------------------------------------------------*/
Build  : 8-ef60d22ea792
Exec   : icoFoam
Date   : Sep 15 2021
Time   : 15:02:06
Host   : "uc2n482.localdomain"
PID    : 3659134
I/O    : uncollated
Case   : /pfs/data5/home/kit/scc/nq7776/data/code/OBR/lidDrivenCavity3D/Variation_init/100/Variation_mesh/50/Variation_matrix_solver/CG_ILU_CUDA/1631710919
nProcs : 1
sigFpe : Enabling floating point exception trapping (FOAM_SIGFPE).
fileModificationChecking : Monitoring run-time modified files using timeStampMaster (fileModificationSkew 10)
allowSystemOperations : Allowing user-supplied system call operations

// * * * * * * * * * * * * * * * * * * * * * * * * * * * * * * * * * * * * * //
Create time

Create mesh for time = 0

Reading transportProperties

Reading field p

Reading field U

Reading/calculating face flux field phi


Starting time loop

Time = 0.002

Courant Number mean: 0.171832 max: 0.950949
DILUPBiCGStab:  Solving for Ux, Initial residual = 0.170437, Final residual = 6.82397e-05, No Iterations 5
DILUPBiCGStab:  Solving for Uy, Initial residual = 0.34992, Final residual = 0.000142663, No Iterations 5
DILUPBiCGStab:  Solving for Uz, Initial residual = 0.557699, Final residual = 0.000189983, No Iterations 5
linear solve U 119206
[OGL LOG] init_host_sparsity_pattern : 37 ms
[OGL LOG] matrix not stored update host matrix
[OGL LOG] update_host_mtx : 20 ms
[OGL LOG] matrix is not yet sorted, compute sorting idxs
[OGL LOG] compute_sort : 1038 ms
[OGL LOG] matrix is not yet sorted, sorting host matrix
[OGL LOG] sort_host_mtx_sparsity_pattern : 24 ms
[OGL LOG] sort_host_mtx : 13 ms
[OGL LOG] init_preconditioner : 43 ms
[OGL LOG] solve : 148 ms
ILUcudaGKOCG:  Solving for p, Initial residual = 0.678275, Final residual = 9.48622e-07, No Iterations 131
linear solve p 2102675
time step continuity errors : sum local = 2.84973e-09, global = 3.55768e-22, cumulative = 3.55768e-22
[OGL LOG] init_preconditioner : 0 ms
[OGL LOG] solve : 149 ms
ILUcudaGKOCG:  Solving for p, Initial residual = 0.41358, Final residual = 9.22404e-07, No Iterations 132
linear solve p 153344
time step continuity errors : sum local = 1.41839e-09, global = 4.39424e-20, cumulative = 4.42982e-20
ExecutionTime = 3 s  ClockTime = 3 s

Time = 0.004

Courant Number mean: 0.174856 max: 0.932415
DILUPBiCGStab:  Solving for Ux, Initial residual = 0.0115943, Final residual = 2.67525e-05, No Iterations 5
DILUPBiCGStab:  Solving for Uy, Initial residual = 0.0268869, Final residual = 4.92439e-05, No Iterations 5
DILUPBiCGStab:  Solving for Uz, Initial residual = 0.112848, Final residual = 0.000158134, No Iterations 5
linear solve U 109297
[OGL LOG] init_preconditioner : 0 ms
[OGL LOG] solve : 150 ms
ILUcudaGKOCG:  Solving for p, Initial residual = 0.327331, Final residual = 9.24994e-07, No Iterations 133
linear solve p 154837
time step continuity errors : sum local = 7.21941e-07, global = -8.30576e-20, cumulative = -3.87595e-20
[OGL LOG] init_preconditioner : 0 ms
[OGL LOG] solve : 150 ms
ILUcudaGKOCG:  Solving for p, Initial residual = 0.243048, Final residual = 9.45311e-07, No Iterations 132
linear solve p 153655
time step continuity errors : sum local = 6.31182e-07, global = 5.40149e-21, cumulative = -3.3358e-20
ExecutionTime = 3.5 s  ClockTime = 3 s

Time = 0.006

Courant Number mean: 0.176822 max: 0.934846
DILUPBiCGStab:  Solving for Ux, Initial residual = 0.00529441, Final residual = 9.84976e-06, No Iterations 5
DILUPBiCGStab:  Solving for Uy, Initial residual = 0.0102196, Final residual = 2.29775e-05, No Iterations 5
DILUPBiCGStab:  Solving for Uz, Initial residual = 0.0485284, Final residual = 7.74085e-05, No Iterations 5
linear solve U 109076
[OGL LOG] init_preconditioner : 0 ms
[OGL LOG] solve : 147 ms
ILUcudaGKOCG:  Solving for p, Initial residual = 0.17444, Final residual = 9.15764e-07, No Iterations 130
linear solve p 151381
time step continuity errors : sum local = 6.72878e-07, global = -2.53973e-20, cumulative = -5.87553e-20
[OGL LOG] init_preconditioner : 0 ms
[OGL LOG] solve : 150 ms
ILUcudaGKOCG:  Solving for p, Initial residual = 0.133083, Final residual = 7.75662e-07, No Iterations 130
linear solve p 153957
time step continuity errors : sum local = 6.30487e-07, global = -5.16677e-20, cumulative = -1.10423e-19
ExecutionTime = 3.98 s  ClockTime = 4 s

Time = 0.008

Courant Number mean: 0.178238 max: 0.933359
DILUPBiCGStab:  Solving for Ux, Initial residual = 0.00289608, Final residual = 5.56901e-06, No Iterations 5
DILUPBiCGStab:  Solving for Uy, Initial residual = 0.00786354, Final residual = 1.00811e-05, No Iterations 5
DILUPBiCGStab:  Solving for Uz, Initial residual = 0.0260339, Final residual = 3.95528e-05, No Iterations 5
linear solve U 107637
[OGL LOG] init_preconditioner : 0 ms
[OGL LOG] solve : 145 ms
ILUcudaGKOCG:  Solving for p, Initial residual = 0.10533, Final residual = 8.11794e-07, No Iterations 128
linear solve p 148739
time step continuity errors : sum local = 6.20991e-07, global = -1.70754e-20, cumulative = -1.27498e-19
[OGL LOG] init_preconditioner : 0 ms
[OGL LOG] solve : 143 ms
ILUcudaGKOCG:  Solving for p, Initial residual = 0.0812442, Final residual = 9.32739e-07, No Iterations 127
linear solve p 147429
time step continuity errors : sum local = 6.30352e-07, global = 3.66419e-20, cumulative = -9.08564e-20
ExecutionTime = 4.45 s  ClockTime = 4 s

Time = 0.01

Courant Number mean: 0.179753 max: 0.9341
DILUPBiCGStab:  Solving for Ux, Initial residual = 0.00227172, Final residual = 4.01279e-06, No Iterations 5
DILUPBiCGStab:  Solving for Uy, Initial residual = 0.00526713, Final residual = 5.88524e-06, No Iterations 5
DILUPBiCGStab:  Solving for Uz, Initial residual = 0.0148996, Final residual = 2.07731e-05, No Iterations 5
linear solve U 108933
[OGL LOG] init_preconditioner : 0 ms
[OGL LOG] solve : 142 ms
ILUcudaGKOCG:  Solving for p, Initial residual = 0.0676239, Final residual = 7.69265e-07, No Iterations 126
linear solve p 146481
time step continuity errors : sum local = 6.34842e-07, global = 3.01224e-20, cumulative = -6.0734e-20
[OGL LOG] init_preconditioner : 0 ms
[OGL LOG] solve : 141 ms
ILUcudaGKOCG:  Solving for p, Initial residual = 0.0517201, Final residual = 8.90521e-07, No Iterations 125
linear solve p 145062
time step continuity errors : sum local = 6.30455e-07, global = 6.81808e-20, cumulative = 7.44675e-21
ExecutionTime = 4.92 s  ClockTime = 5 s

Time = 0.012

Courant Number mean: 0.181051 max: 0.934596
DILUPBiCGStab:  Solving for Ux, Initial residual = 0.00175521, Final residual = 1.90486e-06, No Iterations 5
DILUPBiCGStab:  Solving for Uy, Initial residual = 0.00453413, Final residual = 4.02155e-06, No Iterations 5
DILUPBiCGStab:  Solving for Uz, Initial residual = 0.0114989, Final residual = 1.25775e-05, No Iterations 5
linear solve U 107182
[OGL LOG] init_preconditioner : 0 ms
[OGL LOG] solve : 139 ms
ILUcudaGKOCG:  Solving for p, Initial residual = 0.0446781, Final residual = 8.99524e-07, No Iterations 123
linear solve p 143341
time step continuity errors : sum local = 6.28774e-07, global = -7.47523e-21, cumulative = -2.84812e-23
[OGL LOG] init_preconditioner : 0 ms
[OGL LOG] solve : 139 ms
ILUcudaGKOCG:  Solving for p, Initial residual = 0.0343745, Final residual = 7.89854e-07, No Iterations 123
linear solve p 143653
time step continuity errors : sum local = 6.30338e-07, global = 2.0247e-20, cumulative = 2.02185e-20
ExecutionTime = 5.4 s  ClockTime = 5 s

Time = 0.014

Courant Number mean: 0.182225 max: 0.93496
DILUPBiCGStab:  Solving for Ux, Initial residual = 0.0014906, Final residual = 9.87669e-07, No Iterations 5
DILUPBiCGStab:  Solving for Uy, Initial residual = 0.00373596, Final residual = 1.79945e-06, No Iterations 5
DILUPBiCGStab:  Solving for Uz, Initial residual = 0.00819169, Final residual = 8.4045e-06, No Iterations 5
linear solve U 108848
[OGL LOG] init_preconditioner : 0 ms
[OGL LOG] solve : 138 ms
ILUcudaGKOCG:  Solving for p, Initial residual = 0.0303471, Final residual = 9.87636e-07, No Iterations 122
linear solve p 142367
time step continuity errors : sum local = 6.30668e-07, global = -4.3768e-20, cumulative = -2.35495e-20
[OGL LOG] init_preconditioner : 0 ms
[OGL LOG] solve : 138 ms
ILUcudaGKOCG:  Solving for p, Initial residual = 0.0232664, Final residual = 8.33808e-07, No Iterations 122
linear solve p 142260
time step continuity errors : sum local = 6.30375e-07, global = -6.41851e-21, cumulative = -2.9968e-20
ExecutionTime = 5.86 s  ClockTime = 6 s

Time = 0.016

Courant Number mean: 0.183255 max: 0.935382
DILUPBiCGStab:  Solving for Ux, Initial residual = 0.00125112, Final residual = 4.13792e-07, No Iterations 5
DILUPBiCGStab:  Solving for Uy, Initial residual = 0.00326802, Final residual = 1.01005e-06, No Iterations 5
DILUPBiCGStab:  Solving for Uz, Initial residual = 0.0068526, Final residual = 6.24869e-06, No Iterations 5
linear solve U 108975
[OGL LOG] init_preconditioner : 0 ms
[OGL LOG] solve : 136 ms
ILUcudaGKOCG:  Solving for p, Initial residual = 0.0207013, Final residual = 8.21411e-07, No Iterations 118
linear solve p 140524
time step continuity errors : sum local = 6.29921e-07, global = 1.89793e-20, cumulative = -1.09886e-20
[OGL LOG] init_preconditioner : 0 ms
[OGL LOG] solve : 133 ms
ILUcudaGKOCG:  Solving for p, Initial residual = 0.0160336, Final residual = 9.67834e-07, No Iterations 117
linear solve p 137011
time step continuity errors : sum local = 6.30396e-07, global = -6.67431e-21, cumulative = -1.76629e-20
ExecutionTime = 6.32 s  ClockTime = 6 s

Time = 0.018

Courant Number mean: 0.184168 max: 0.935681
DILUPBiCGStab:  Solving for Ux, Initial residual = 0.00108071, Final residual = 3.28406e-07, No Iterations 5
DILUPBiCGStab:  Solving for Uy, Initial residual = 0.00281175, Final residual = 1.01255e-06, No Iterations 5
DILUPBiCGStab:  Solving for Uz, Initial residual = 0.00553873, Final residual = 4.59172e-06, No Iterations 5
linear solve U 110221
[OGL LOG] init_preconditioner : 0 ms
[OGL LOG] solve : 127 ms
ILUcudaGKOCG:  Solving for p, Initial residual = 0.0144615, Final residual = 8.38197e-07, No Iterations 112
linear solve p 131151
time step continuity errors : sum local = 6.30155e-07, global = 2.07018e-20, cumulative = 3.03891e-21
[OGL LOG] init_preconditioner : 0 ms
[OGL LOG] solve : 126 ms
ILUcudaGKOCG:  Solving for p, Initial residual = 0.0112113, Final residual = 9.2768e-07, No Iterations 111
linear solve p 129841
time step continuity errors : sum local = 6.30389e-07, global = -7.24383e-21, cumulative = -4.20492e-21
ExecutionTime = 6.76 s  ClockTime = 6 s

Time = 0.02

Courant Number mean: 0.184973 max: 0.935986
DILUPBiCGStab:  Solving for Ux, Initial residual = 0.000928447, Final residual = 1.85282e-07, No Iterations 5
DILUPBiCGStab:  Solving for Uy, Initial residual = 0.00248397, Final residual = 5.62527e-07, No Iterations 5
DILUPBiCGStab:  Solving for Uz, Initial residual = 0.00473473, Final residual = 3.34414e-06, No Iterations 5
linear solve U 108871
[OGL LOG] init_preconditioner : 0 ms
[OGL LOG] solve : 129 ms
ILUcudaGKOCG:  Solving for p, Initial residual = 0.0101776, Final residual = 9.47036e-07, No Iterations 114
linear solve p 133151
time step continuity errors : sum local = 6.30142e-07, global = -1.74868e-20, cumulative = -2.16917e-20
[OGL LOG] init_preconditioner : 0 ms
[OGL LOG] solve : 129 ms
ILUcudaGKOCG:  Solving for p, Initial residual = 0.00803407, Final residual = 8.87854e-07, No Iterations 114
linear solve p 132948
time step continuity errors : sum local = 6.30353e-07, global = -3.17658e-20, cumulative = -5.34575e-20
ExecutionTime = 7.2 s  ClockTime = 7 s

End

