/*---------------------------------------------------------------------------*\
  =========                 |
  \\      /  F ield         | OpenFOAM: The Open Source CFD Toolbox
   \\    /   O peration     | Website:  https://openfoam.org
    \\  /    A nd           | Version:  8
     \\/     M anipulation  |
\*---------------------------------------------------------------------------*/
Build  : 8-ef60d22ea792
Exec   : icoFoam
Date   : Sep 15 2021
Time   : 13:07:27
Host   : "uc2n438.localdomain"
PID    : 3538967
I/O    : uncollated
Case   : /pfs/data5/home/kit/scc/nq7776/data/code/OBR/lidDrivenCavity3D/Variation_init/100/Variation_mesh/5/Variation_matrix_solver/BiCGStab_NoPrecond_Serial/1631704046
nProcs : 1
sigFpe : Enabling floating point exception trapping (FOAM_SIGFPE).
fileModificationChecking : Monitoring run-time modified files using timeStampMaster (fileModificationSkew 10)
allowSystemOperations : Allowing user-supplied system call operations

// * * * * * * * * * * * * * * * * * * * * * * * * * * * * * * * * * * * * * //
Create time

Create mesh for time = 0

Reading transportProperties

Reading field p

Reading field U

Reading/calculating face flux field phi


Starting time loop

Time = 0.02

Courant Number mean: 0.144178 max: 0.344046
DILUPBiCGStab:  Solving for Ux, Initial residual = 0.270102, Final residual = 1.39043e-14, No Iterations 5
DILUPBiCGStab:  Solving for Uy, Initial residual = 0.217087, Final residual = 1.19184e-13, No Iterations 5
DILUPBiCGStab:  Solving for Uz, Initial residual = 0.216079, Final residual = 2.72531e-14, No Iterations 5
linear solve U 213
nonePBiCGStab:  Solving for p, Initial residual = 0.599316, Final residual = 5.86236e-07, No Iterations 30
linear solve p 103
time step continuity errors : sum local = 9.73222e-08, global = -4.81618e-19, cumulative = -4.81618e-19
nonePBiCGStab:  Solving for p, Initial residual = 0.288318, Final residual = 2.9924e-07, No Iterations 30
linear solve p 90
time step continuity errors : sum local = 2.61759e-08, global = -1.1243e-18, cumulative = -1.60592e-18
ExecutionTime = 0.04 s  ClockTime = 0 s

Time = 0.04

Courant Number mean: 0.143461 max: 0.370002
DILUPBiCGStab:  Solving for Ux, Initial residual = 0.0735164, Final residual = 6.10748e-14, No Iterations 5
DILUPBiCGStab:  Solving for Uy, Initial residual = 0.0725793, Final residual = 1.5875e-13, No Iterations 5
DILUPBiCGStab:  Solving for Uz, Initial residual = 0.174725, Final residual = 2.48545e-13, No Iterations 5
linear solve U 104
nonePBiCGStab:  Solving for p, Initial residual = 0.211646, Final residual = 7.80719e-07, No Iterations 27
linear solve p 74
time step continuity errors : sum local = 7.42141e-08, global = -1.24342e-18, cumulative = -2.84934e-18
nonePBiCGStab:  Solving for p, Initial residual = 0.07449, Final residual = 5.98653e-07, No Iterations 25
linear solve p 70
time step continuity errors : sum local = 6.22213e-08, global = -3.90231e-19, cumulative = -3.23957e-18
ExecutionTime = 0.04 s  ClockTime = 0 s

Time = 0.06

Courant Number mean: 0.14551 max: 0.375609
DILUPBiCGStab:  Solving for Ux, Initial residual = 0.0154061, Final residual = 1.74722e-15, No Iterations 5
DILUPBiCGStab:  Solving for Uy, Initial residual = 0.0200497, Final residual = 2.32869e-14, No Iterations 5
DILUPBiCGStab:  Solving for Uz, Initial residual = 0.0977787, Final residual = 1.14368e-13, No Iterations 5
linear solve U 102
nonePBiCGStab:  Solving for p, Initial residual = 0.0171796, Final residual = 4.40343e-07, No Iterations 24
linear solve p 68
time step continuity errors : sum local = 4.29276e-08, global = -3.48276e-19, cumulative = -3.58785e-18
nonePBiCGStab:  Solving for p, Initial residual = 0.00369302, Final residual = 3.65512e-07, No Iterations 22
linear solve p 63
time step continuity errors : sum local = 3.77699e-08, global = 1.13224e-19, cumulative = -3.47462e-18
ExecutionTime = 0.04 s  ClockTime = 0 s

Time = 0.08

Courant Number mean: 0.147032 max: 0.378285
DILUPBiCGStab:  Solving for Ux, Initial residual = 0.00478568, Final residual = 3.40098e-15, No Iterations 5
DILUPBiCGStab:  Solving for Uy, Initial residual = 0.00641546, Final residual = 1.2025e-14, No Iterations 5
DILUPBiCGStab:  Solving for Uz, Initial residual = 0.0285268, Final residual = 4.43791e-14, No Iterations 5
linear solve U 102
nonePBiCGStab:  Solving for p, Initial residual = 0.00483178, Final residual = 3.53015e-07, No Iterations 25
linear solve p 70
time step continuity errors : sum local = 3.76941e-08, global = 1.08328e-18, cumulative = -2.39135e-18
nonePBiCGStab:  Solving for p, Initial residual = 0.00114488, Final residual = 5.30513e-07, No Iterations 23
linear solve p 65
time step continuity errors : sum local = 5.67966e-08, global = -9.68198e-19, cumulative = -3.35954e-18
ExecutionTime = 0.04 s  ClockTime = 0 s

Time = 0.1

Courant Number mean: 0.147781 max: 0.379502
DILUPBiCGStab:  Solving for Ux, Initial residual = 0.00171128, Final residual = 8.36446e-16, No Iterations 5
DILUPBiCGStab:  Solving for Uy, Initial residual = 0.00256768, Final residual = 2.27287e-15, No Iterations 5
DILUPBiCGStab:  Solving for Uz, Initial residual = 0.010752, Final residual = 1.44104e-14, No Iterations 5
linear solve U 103
nonePBiCGStab:  Solving for p, Initial residual = 0.00160436, Final residual = 6.83385e-07, No Iterations 23
linear solve p 64
time step continuity errors : sum local = 5.62973e-08, global = -3.04402e-20, cumulative = -3.38998e-18
nonePBiCGStab:  Solving for p, Initial residual = 0.000368241, Final residual = 9.57315e-07, No Iterations 19
linear solve p 57
time step continuity errors : sum local = 1.01459e-07, global = 5.90152e-19, cumulative = -2.79983e-18
ExecutionTime = 0.04 s  ClockTime = 0 s

Time = 0.12

Courant Number mean: 0.148154 max: 0.380116
DILUPBiCGStab:  Solving for Ux, Initial residual = 0.000688245, Final residual = 3.05604e-16, No Iterations 5
DILUPBiCGStab:  Solving for Uy, Initial residual = 0.00108892, Final residual = 3.93037e-16, No Iterations 5
DILUPBiCGStab:  Solving for Uz, Initial residual = 0.00416274, Final residual = 4.95003e-15, No Iterations 5
linear solve U 111
nonePBiCGStab:  Solving for p, Initial residual = 0.000676016, Final residual = 8.17458e-07, No Iterations 11
linear solve p 40
time step continuity errors : sum local = 6.56101e-08, global = -5.01735e-19, cumulative = -3.30157e-18
nonePBiCGStab:  Solving for p, Initial residual = 0.000159409, Final residual = 7.40337e-07, No Iterations 9
linear solve p 36
time step continuity errors : sum local = 4.18994e-08, global = -7.98593e-19, cumulative = -4.10016e-18
ExecutionTime = 0.04 s  ClockTime = 0 s

Time = 0.14

Courant Number mean: 0.148338 max: 0.38043
DILUPBiCGStab:  Solving for Ux, Initial residual = 0.000300051, Final residual = 1.45475e-16, No Iterations 5
DILUPBiCGStab:  Solving for Uy, Initial residual = 0.000487253, Final residual = 2.13966e-16, No Iterations 5
DILUPBiCGStab:  Solving for Uz, Initial residual = 0.00167477, Final residual = 1.81062e-15, No Iterations 5
linear solve U 101
nonePBiCGStab:  Solving for p, Initial residual = 0.000315006, Final residual = 9.98567e-07, No Iterations 13
linear solve p 44
time step continuity errors : sum local = 1.07098e-07, global = 3.12145e-19, cumulative = -3.78802e-18
nonePBiCGStab:  Solving for p, Initial residual = 7.16221e-05, Final residual = 9.69547e-07, No Iterations 7
linear solve p 32
time step continuity errors : sum local = 8.91486e-08, global = -1.69605e-19, cumulative = -3.95762e-18
ExecutionTime = 0.04 s  ClockTime = 0 s

Time = 0.16

Courant Number mean: 0.148427 max: 0.380589
DILUPBiCGStab:  Solving for Ux, Initial residual = 0.000135268, Final residual = 6.71489e-17, No Iterations 5
DILUPBiCGStab:  Solving for Uy, Initial residual = 0.000228216, Final residual = 1.44894e-16, No Iterations 5
DILUPBiCGStab:  Solving for Uz, Initial residual = 0.000708472, Final residual = 6.06439e-16, No Iterations 5
linear solve U 109
nonePBiCGStab:  Solving for p, Initial residual = 0.000149185, Final residual = 9.39269e-07, No Iterations 15
linear solve p 49
time step continuity errors : sum local = 1.00708e-07, global = 4.23922e-19, cumulative = -3.5337e-18
nonePBiCGStab:  Solving for p, Initial residual = 3.36582e-05, Final residual = 8.11756e-07, No Iterations 6
linear solve p 29
time step continuity errors : sum local = 8.36802e-08, global = 4.77184e-19, cumulative = -3.05652e-18
ExecutionTime = 0.04 s  ClockTime = 0 s

Time = 0.18

Courant Number mean: 0.14847 max: 0.380668
DILUPBiCGStab:  Solving for Ux, Initial residual = 6.17931e-05, Final residual = 3.00742e-17, No Iterations 5
DILUPBiCGStab:  Solving for Uy, Initial residual = 0.00010853, Final residual = 7.72603e-17, No Iterations 5
DILUPBiCGStab:  Solving for Uz, Initial residual = 0.000314722, Final residual = 1.94348e-16, No Iterations 5
linear solve U 101
nonePBiCGStab:  Solving for p, Initial residual = 7.07864e-05, Final residual = 8.77019e-07, No Iterations 7
linear solve p 32
time step continuity errors : sum local = 9.39106e-08, global = -1.89193e-19, cumulative = -3.24571e-18
nonePBiCGStab:  Solving for p, Initial residual = 1.58549e-05, Final residual = 9.48155e-07, No Iterations 4
linear solve p 25
time step continuity errors : sum local = 9.35666e-08, global = 9.40868e-19, cumulative = -2.30484e-18
ExecutionTime = 0.04 s  ClockTime = 0 s

Time = 0.2

Courant Number mean: 0.148491 max: 0.380707
DILUPBiCGStab:  Solving for Ux, Initial residual = 2.84831e-05, Final residual = 1.02014e-17, No Iterations 5
DILUPBiCGStab:  Solving for Uy, Initial residual = 5.15825e-05, Final residual = 3.66438e-17, No Iterations 5
DILUPBiCGStab:  Solving for Uz, Initial residual = 0.00014358, Final residual = 5.71086e-17, No Iterations 5
linear solve U 109
nonePBiCGStab:  Solving for p, Initial residual = 3.36828e-05, Final residual = 9.00214e-07, No Iterations 4
linear solve p 26
time step continuity errors : sum local = 9.6026e-08, global = 6.75443e-19, cumulative = -1.6294e-18
nonePBiCGStab:  Solving for p, Initial residual = 7.42432e-06, Final residual = 8.6829e-07, No Iterations 2
linear solve p 22
time step continuity errors : sum local = 9.187e-08, global = 2.57551e-19, cumulative = -1.37185e-18
ExecutionTime = 0.04 s  ClockTime = 0 s

End

