/*---------------------------------------------------------------------------*\
  =========                 |
  \\      /  F ield         | OpenFOAM: The Open Source CFD Toolbox
   \\    /   O peration     | Website:  https://openfoam.org
    \\  /    A nd           | Version:  8
     \\/     M anipulation  |
\*---------------------------------------------------------------------------*/
Build  : 8-ef60d22ea792
Exec   : icoFoam
Date   : Sep 15 2021
Time   : 13:08:24
Host   : "uc2n482.localdomain"
PID    : 3627328
I/O    : uncollated
Case   : /pfs/data5/home/kit/scc/nq7776/data/code/OBR/lidDrivenCavity3D/Variation_init/100/Variation_mesh/15/Variation_matrix_solver/IR_NoPrecond_CUDA/Variation_innerReductionFactor/0.01/1631704102
nProcs : 1
sigFpe : Enabling floating point exception trapping (FOAM_SIGFPE).
fileModificationChecking : Monitoring run-time modified files using timeStampMaster (fileModificationSkew 10)
allowSystemOperations : Allowing user-supplied system call operations

// * * * * * * * * * * * * * * * * * * * * * * * * * * * * * * * * * * * * * //
Create time

Create mesh for time = 0

Reading transportProperties

Reading field p

Reading field U

Reading/calculating face flux field phi


Starting time loop

Time = 0.00666667

Courant Number mean: 0.166422 max: 0.762393
DILUPBiCGStab:  Solving for Ux, Initial residual = 0.0879544, Final residual = 2.84443e-08, No Iterations 5
DILUPBiCGStab:  Solving for Uy, Initial residual = 0.126984, Final residual = 8.95339e-08, No Iterations 5
DILUPBiCGStab:  Solving for Uz, Initial residual = 0.181802, Final residual = 6.74481e-08, No Iterations 5
linear solve U 2464
[OGL LOG] init_host_sparsity_pattern : 0 ms
[OGL LOG] matrix not stored update host matrix
[OGL LOG] update_host_mtx : 0 ms
[OGL LOG] matrix is not yet sorted, compute sorting idxs
[OGL LOG] compute_sort : 20 ms
[OGL LOG] matrix is not yet sorted, sorting host matrix
[OGL LOG] sort_host_mtx_sparsity_pattern : 0 ms
[OGL LOG] sort_host_mtx : 0 ms
[OGL LOG] init_preconditioner : 0 ms
[OGL LOG] solve : 18 ms
nonecudaGKOIR:  Solving for p, Initial residual = 0.516107, Final residual = 9.3634e-07, No Iterations 3
linear solve p 777471
time step continuity errors : sum local = 1.32287e-08, global = -2.49627e-19, cumulative = -2.49627e-19
[OGL LOG] init_preconditioner : 0 ms
[OGL LOG] solve : 18 ms
nonecudaGKOIR:  Solving for p, Initial residual = 0.271044, Final residual = 4.82741e-07, No Iterations 3
linear solve p 18397
time step continuity errors : sum local = 4.65295e-09, global = 4.07266e-21, cumulative = -2.45554e-19
ExecutionTime = 0.85 s  ClockTime = 1 s

Time = 0.0133333

Courant Number mean: 0.171844 max: 0.7773
DILUPBiCGStab:  Solving for Ux, Initial residual = 0.021091, Final residual = 3.34889e-08, No Iterations 5
DILUPBiCGStab:  Solving for Uy, Initial residual = 0.0294978, Final residual = 2.90922e-08, No Iterations 5
DILUPBiCGStab:  Solving for Uz, Initial residual = 0.0732072, Final residual = 9.44501e-08, No Iterations 5
linear solve U 1958
[OGL LOG] init_preconditioner : 0 ms
[OGL LOG] solve : 17 ms
nonecudaGKOIR:  Solving for p, Initial residual = 0.145576, Final residual = 2.05392e-07, No Iterations 3
linear solve p 17853
time step continuity errors : sum local = 1.32869e-05, global = -4.8239e-19, cumulative = -7.27944e-19
[OGL LOG] init_preconditioner : 0 ms
[OGL LOG] solve : 18 ms
nonecudaGKOIR:  Solving for p, Initial residual = 0.085182, Final residual = 1.20281e-07, No Iterations 3
linear solve p 18491
time step continuity errors : sum local = 1.2039e-05, global = 3.6793e-20, cumulative = -6.91151e-19
ExecutionTime = 0.89 s  ClockTime = 1 s

Time = 0.02

Courant Number mean: 0.175686 max: 0.781333
DILUPBiCGStab:  Solving for Ux, Initial residual = 0.00574944, Final residual = 1.22877e-08, No Iterations 5
DILUPBiCGStab:  Solving for Uy, Initial residual = 0.0110708, Final residual = 1.81276e-08, No Iterations 5
DILUPBiCGStab:  Solving for Uz, Initial residual = 0.0200858, Final residual = 1.31267e-08, No Iterations 5
linear solve U 1848
[OGL LOG] init_preconditioner : 0 ms
[OGL LOG] solve : 17 ms
nonecudaGKOIR:  Solving for p, Initial residual = 0.0224853, Final residual = 2.38482e-08, No Iterations 3
linear solve p 18075
time step continuity errors : sum local = 1.18757e-05, global = 2.27795e-19, cumulative = -4.63356e-19
[OGL LOG] init_preconditioner : 0 ms
[OGL LOG] solve : 18 ms
nonecudaGKOIR:  Solving for p, Initial residual = 0.0139035, Final residual = 1.64825e-08, No Iterations 3
linear solve p 18390
time step continuity errors : sum local = 1.19736e-05, global = 5.23881e-20, cumulative = -4.10968e-19
ExecutionTime = 0.93 s  ClockTime = 1 s

Time = 0.0266667

Courant Number mean: 0.178552 max: 0.784986
DILUPBiCGStab:  Solving for Ux, Initial residual = 0.00342737, Final residual = 5.12938e-09, No Iterations 5
DILUPBiCGStab:  Solving for Uy, Initial residual = 0.0065833, Final residual = 1.15543e-08, No Iterations 5
DILUPBiCGStab:  Solving for Uz, Initial residual = 0.00949858, Final residual = 9.60244e-09, No Iterations 5
linear solve U 1929
[OGL LOG] init_preconditioner : 0 ms
[OGL LOG] solve : 17 ms
nonecudaGKOIR:  Solving for p, Initial residual = 0.0101077, Final residual = 1.03414e-08, No Iterations 3
linear solve p 17781
time step continuity errors : sum local = 1.19894e-05, global = -2.33463e-19, cumulative = -6.44432e-19
[OGL LOG] init_preconditioner : 0 ms
[OGL LOG] solve : 13 ms
nonecudaGKOIR:  Solving for p, Initial residual = 0.00719421, Final residual = 7.14116e-07, No Iterations 2
linear solve p 13846
time step continuity errors : sum local = 1.19793e-05, global = -1.35878e-20, cumulative = -6.5802e-19
ExecutionTime = 0.96 s  ClockTime = 1 s

Time = 0.0333333

Courant Number mean: 0.180502 max: 0.787346
DILUPBiCGStab:  Solving for Ux, Initial residual = 0.00221546, Final residual = 1.91303e-09, No Iterations 5
DILUPBiCGStab:  Solving for Uy, Initial residual = 0.00448402, Final residual = 2.89483e-09, No Iterations 5
DILUPBiCGStab:  Solving for Uz, Initial residual = 0.00628879, Final residual = 3.21812e-09, No Iterations 5
linear solve U 1908
[OGL LOG] init_preconditioner : 0 ms
[OGL LOG] solve : 13 ms
nonecudaGKOIR:  Solving for p, Initial residual = 0.00453742, Final residual = 4.09547e-07, No Iterations 2
linear solve p 13695
time step continuity errors : sum local = 1.19764e-05, global = -4.0587e-20, cumulative = -6.98607e-19
[OGL LOG] init_preconditioner : 0 ms
[OGL LOG] solve : 13 ms
nonecudaGKOIR:  Solving for p, Initial residual = 0.00321843, Final residual = 3.00238e-07, No Iterations 2
linear solve p 13571
time step continuity errors : sum local = 1.19784e-05, global = -3.16711e-19, cumulative = -1.01532e-18
ExecutionTime = 1 s  ClockTime = 1 s

Time = 0.04

Courant Number mean: 0.181846 max: 0.788821
DILUPBiCGStab:  Solving for Ux, Initial residual = 0.00152159, Final residual = 8.48384e-10, No Iterations 5
DILUPBiCGStab:  Solving for Uy, Initial residual = 0.00314061, Final residual = 2.02396e-09, No Iterations 5
DILUPBiCGStab:  Solving for Uz, Initial residual = 0.00421496, Final residual = 2.10128e-09, No Iterations 5
linear solve U 1829
[OGL LOG] init_preconditioner : 0 ms
[OGL LOG] solve : 13 ms
nonecudaGKOIR:  Solving for p, Initial residual = 0.00332467, Final residual = 2.95512e-07, No Iterations 2
linear solve p 13608
time step continuity errors : sum local = 1.19772e-05, global = -2.89844e-20, cumulative = -1.0443e-18
[OGL LOG] init_preconditioner : 0 ms
[OGL LOG] solve : 13 ms
nonecudaGKOIR:  Solving for p, Initial residual = 0.00243761, Final residual = 2.18147e-07, No Iterations 2
linear solve p 13471
time step continuity errors : sum local = 1.19782e-05, global = -2.78815e-20, cumulative = -1.07218e-18
ExecutionTime = 1.02 s  ClockTime = 1 s

Time = 0.0466667

Courant Number mean: 0.182778 max: 0.78982
DILUPBiCGStab:  Solving for Ux, Initial residual = 0.00104887, Final residual = 5.72106e-10, No Iterations 5
DILUPBiCGStab:  Solving for Uy, Initial residual = 0.00219918, Final residual = 1.09404e-09, No Iterations 5
DILUPBiCGStab:  Solving for Uz, Initial residual = 0.00292381, Final residual = 1.37596e-09, No Iterations 5
linear solve U 1838
[OGL LOG] init_preconditioner : 0 ms
[OGL LOG] solve : 13 ms
nonecudaGKOIR:  Solving for p, Initial residual = 0.00216729, Final residual = 1.8194e-07, No Iterations 2
linear solve p 13765
time step continuity errors : sum local = 1.19773e-05, global = 2.02825e-19, cumulative = -8.69359e-19
[OGL LOG] init_preconditioner : 0 ms
[OGL LOG] solve : 13 ms
nonecudaGKOIR:  Solving for p, Initial residual = 0.0015793, Final residual = 1.20794e-07, No Iterations 2
linear solve p 14034
time step continuity errors : sum local = 1.1978e-05, global = 1.36827e-19, cumulative = -7.32532e-19
ExecutionTime = 1.05 s  ClockTime = 1 s

Time = 0.0533333

Courant Number mean: 0.183428 max: 0.790487
DILUPBiCGStab:  Solving for Ux, Initial residual = 0.000730816, Final residual = 3.54061e-10, No Iterations 5
DILUPBiCGStab:  Solving for Uy, Initial residual = 0.00154855, Final residual = 6.38614e-10, No Iterations 5
DILUPBiCGStab:  Solving for Uz, Initial residual = 0.00201387, Final residual = 9.64755e-10, No Iterations 5
linear solve U 1842
[OGL LOG] init_preconditioner : 0 ms
[OGL LOG] solve : 13 ms
nonecudaGKOIR:  Solving for p, Initial residual = 0.00152849, Final residual = 1.70034e-07, No Iterations 2
linear solve p 13806
time step continuity errors : sum local = 1.19775e-05, global = 2.48794e-19, cumulative = -4.83738e-19
[OGL LOG] init_preconditioner : 0 ms
[OGL LOG] solve : 13 ms
nonecudaGKOIR:  Solving for p, Initial residual = 0.00111786, Final residual = 1.10469e-07, No Iterations 2
linear solve p 13656
time step continuity errors : sum local = 1.19779e-05, global = -8.1174e-20, cumulative = -5.64912e-19
ExecutionTime = 1.09 s  ClockTime = 1 s

Time = 0.06

Courant Number mean: 0.183882 max: 0.790942
DILUPBiCGStab:  Solving for Ux, Initial residual = 0.000512663, Final residual = 2.40598e-10, No Iterations 5
DILUPBiCGStab:  Solving for Uy, Initial residual = 0.00109139, Final residual = 3.82392e-10, No Iterations 5
DILUPBiCGStab:  Solving for Uz, Initial residual = 0.00139004, Final residual = 6.76893e-10, No Iterations 5
linear solve U 1879
[OGL LOG] init_preconditioner : 0 ms
[OGL LOG] solve : 13 ms
nonecudaGKOIR:  Solving for p, Initial residual = 0.00105859, Final residual = 1.05076e-07, No Iterations 2
linear solve p 13714
time step continuity errors : sum local = 1.19776e-05, global = -2.25677e-19, cumulative = -7.90589e-19
[OGL LOG] init_preconditioner : 0 ms
[OGL LOG] solve : 13 ms
nonecudaGKOIR:  Solving for p, Initial residual = 0.000774387, Final residual = 7.08233e-08, No Iterations 2
linear solve p 13741
time step continuity errors : sum local = 1.19779e-05, global = -2.02053e-20, cumulative = -8.10794e-19
ExecutionTime = 1.12 s  ClockTime = 1 s

Time = 0.0666667

Courant Number mean: 0.184199 max: 0.791252
DILUPBiCGStab:  Solving for Ux, Initial residual = 0.000360484, Final residual = 1.62756e-10, No Iterations 5
DILUPBiCGStab:  Solving for Uy, Initial residual = 0.000770494, Final residual = 2.42766e-10, No Iterations 5
DILUPBiCGStab:  Solving for Uz, Initial residual = 0.000960122, Final residual = 4.74518e-10, No Iterations 5
linear solve U 1821
[OGL LOG] init_preconditioner : 0 ms
[OGL LOG] solve : 13 ms
nonecudaGKOIR:  Solving for p, Initial residual = 0.000741446, Final residual = 7.13597e-08, No Iterations 2
linear solve p 13800
time step continuity errors : sum local = 1.19777e-05, global = 6.6748e-19, cumulative = -1.43315e-19
[OGL LOG] init_preconditioner : 0 ms
[OGL LOG] solve : 13 ms
nonecudaGKOIR:  Solving for p, Initial residual = 0.000541839, Final residual = 4.8066e-08, No Iterations 2
linear solve p 14192
time step continuity errors : sum local = 1.19779e-05, global = -2.94785e-19, cumulative = -4.381e-19
ExecutionTime = 1.15 s  ClockTime = 1 s

End

