/*---------------------------------------------------------------------------*\
  =========                 |
  \\      /  F ield         | OpenFOAM: The Open Source CFD Toolbox
   \\    /   O peration     | Website:  https://openfoam.org
    \\  /    A nd           | Version:  8
     \\/     M anipulation  |
\*---------------------------------------------------------------------------*/
Build  : 8-ef60d22ea792
Exec   : icoFoam
Date   : Sep 15 2021
Time   : 13:31:38
Host   : "uc2n482.localdomain"
PID    : 3631717
I/O    : uncollated
Case   : /pfs/data5/home/kit/scc/nq7776/data/code/OBR/lidDrivenCavity3D/Variation_init/100/Variation_mesh/75/Variation_matrix_solver/IR_NoPrecond_CUDA/Variation_innerReductionFactor/0.05/1631705482
nProcs : 1
sigFpe : Enabling floating point exception trapping (FOAM_SIGFPE).
fileModificationChecking : Monitoring run-time modified files using timeStampMaster (fileModificationSkew 10)
allowSystemOperations : Allowing user-supplied system call operations

// * * * * * * * * * * * * * * * * * * * * * * * * * * * * * * * * * * * * * //
Create time

Create mesh for time = 0

Reading transportProperties

Reading field p

Reading field U

Reading/calculating face flux field phi


Starting time loop

Time = 0.00133333

Courant Number mean: 0.170873 max: 0.955248
DILUPBiCGStab:  Solving for Ux, Initial residual = 0.150945, Final residual = 8.53015e-05, No Iterations 5
DILUPBiCGStab:  Solving for Uy, Initial residual = 0.292287, Final residual = 0.000196272, No Iterations 5
DILUPBiCGStab:  Solving for Uz, Initial residual = 0.443155, Final residual = 0.000590488, No Iterations 5
linear solve U 435527
[OGL LOG] init_host_sparsity_pattern : 123 ms
[OGL LOG] matrix not stored update host matrix
[OGL LOG] update_host_mtx : 68 ms
[OGL LOG] matrix is not yet sorted, compute sorting idxs
[OGL LOG] compute_sort : 3794 ms
[OGL LOG] matrix is not yet sorted, sorting host matrix
[OGL LOG] sort_host_mtx_sparsity_pattern : 83 ms
[OGL LOG] sort_host_mtx : 50 ms
[OGL LOG] init_preconditioner : 0 ms
[OGL LOG] solve : 235 ms
nonecudaGKOIR:  Solving for p, Initial residual = 0.621595, Final residual = 5.18356e-08, No Iterations 6
linear solve p 5131214
time step continuity errors : sum local = 6.43333e-11, global = 1.56153e-22, cumulative = 1.56153e-22
[OGL LOG] init_preconditioner : 0 ms
[OGL LOG] solve : 219 ms
nonecudaGKOIR:  Solving for p, Initial residual = 0.292224, Final residual = 3.90385e-07, No Iterations 5
linear solve p 232555
time step continuity errors : sum local = 2.71676e-10, global = 1.20646e-20, cumulative = 1.22207e-20
ExecutionTime = 7.96 s  ClockTime = 8 s

Time = 0.00266667

Courant Number mean: 0.172833 max: 0.953296
DILUPBiCGStab:  Solving for Ux, Initial residual = 0.0063314, Final residual = 3.02549e-05, No Iterations 5
DILUPBiCGStab:  Solving for Uy, Initial residual = 0.015214, Final residual = 6.99146e-05, No Iterations 5
DILUPBiCGStab:  Solving for Uz, Initial residual = 0.0761693, Final residual = 0.000480893, No Iterations 5
linear solve U 405166
[OGL LOG] init_preconditioner : 0 ms
[OGL LOG] solve : 232 ms
nonecudaGKOIR:  Solving for p, Initial residual = 0.306072, Final residual = 2.41385e-07, No Iterations 5
linear solve p 246055
time step continuity errors : sum local = 1.63937e-07, global = -1.29307e-20, cumulative = -7.09974e-22
[OGL LOG] init_preconditioner : 0 ms
[OGL LOG] solve : 240 ms
nonecudaGKOIR:  Solving for p, Initial residual = 0.226013, Final residual = 1.56082e-07, No Iterations 5
linear solve p 253797
time step continuity errors : sum local = 1.58184e-07, global = 1.13696e-21, cumulative = 4.26985e-22
ExecutionTime = 9.14 s  ClockTime = 10 s

Time = 0.004

Courant Number mean: 0.174523 max: 0.954278
DILUPBiCGStab:  Solving for Ux, Initial residual = 0.00265329, Final residual = 1.6344e-05, No Iterations 5
DILUPBiCGStab:  Solving for Uy, Initial residual = 0.00797253, Final residual = 4.00536e-05, No Iterations 5
DILUPBiCGStab:  Solving for Uz, Initial residual = 0.0352939, Final residual = 0.000275925, No Iterations 5
linear solve U 399860
[OGL LOG] init_preconditioner : 0 ms
[OGL LOG] solve : 219 ms
nonecudaGKOIR:  Solving for p, Initial residual = 0.192303, Final residual = 1.17261e-07, No Iterations 5
linear solve p 232453
time step continuity errors : sum local = 1.60617e-07, global = 2.41939e-20, cumulative = 2.46208e-20
[OGL LOG] init_preconditioner : 0 ms
[OGL LOG] solve : 216 ms
nonecudaGKOIR:  Solving for p, Initial residual = 0.148948, Final residual = 9.70816e-08, No Iterations 5
linear solve p 229442
time step continuity errors : sum local = 1.57945e-07, global = -2.69418e-20, cumulative = -2.32091e-21
ExecutionTime = 10.23 s  ClockTime = 11 s

Time = 0.00533333

Courant Number mean: 0.176005 max: 0.954647
DILUPBiCGStab:  Solving for Ux, Initial residual = 0.00207787, Final residual = 1.18175e-05, No Iterations 5
DILUPBiCGStab:  Solving for Uy, Initial residual = 0.00644365, Final residual = 2.4521e-05, No Iterations 5
DILUPBiCGStab:  Solving for Uz, Initial residual = 0.023395, Final residual = 0.000159842, No Iterations 5
linear solve U 398536
[OGL LOG] init_preconditioner : 0 ms
[OGL LOG] solve : 231 ms
nonecudaGKOIR:  Solving for p, Initial residual = 0.142972, Final residual = 7.87235e-08, No Iterations 5
linear solve p 245447
time step continuity errors : sum local = 1.57107e-07, global = -1.93884e-20, cumulative = -2.17093e-20
[OGL LOG] init_preconditioner : 0 ms
[OGL LOG] solve : 221 ms
nonecudaGKOIR:  Solving for p, Initial residual = 0.114363, Final residual = 5.95644e-08, No Iterations 5
linear solve p 234680
time step continuity errors : sum local = 1.57776e-07, global = 2.10807e-20, cumulative = -6.286e-22
ExecutionTime = 11.36 s  ClockTime = 12 s

Time = 0.00666667

Courant Number mean: 0.177347 max: 0.955032
DILUPBiCGStab:  Solving for Ux, Initial residual = 0.00176723, Final residual = 9.5956e-06, No Iterations 5
DILUPBiCGStab:  Solving for Uy, Initial residual = 0.00540511, Final residual = 1.95425e-05, No Iterations 5
DILUPBiCGStab:  Solving for Uz, Initial residual = 0.0162633, Final residual = 0.000102897, No Iterations 5
linear solve U 398393
[OGL LOG] init_preconditioner : 0 ms
[OGL LOG] solve : 208 ms
nonecudaGKOIR:  Solving for p, Initial residual = 0.108081, Final residual = 5.84873e-08, No Iterations 5
linear solve p 221389
time step continuity errors : sum local = 1.59165e-07, global = 5.14203e-21, cumulative = 4.51343e-21
[OGL LOG] init_preconditioner : 0 ms
[OGL LOG] solve : 184 ms
nonecudaGKOIR:  Solving for p, Initial residual = 0.0863152, Final residual = 9.75253e-07, No Iterations 4
linear solve p 198208
time step continuity errors : sum local = 1.58147e-07, global = -4.25939e-20, cumulative = -3.80805e-20
ExecutionTime = 12.42 s  ClockTime = 13 s

Time = 0.008

Courant Number mean: 0.178568 max: 0.955457
DILUPBiCGStab:  Solving for Ux, Initial residual = 0.00153484, Final residual = 7.80244e-06, No Iterations 5
DILUPBiCGStab:  Solving for Uy, Initial residual = 0.0046874, Final residual = 1.38551e-05, No Iterations 5
DILUPBiCGStab:  Solving for Uz, Initial residual = 0.0134868, Final residual = 6.7034e-05, No Iterations 5
linear solve U 401693
[OGL LOG] init_preconditioner : 0 ms
[OGL LOG] solve : 183 ms
nonecudaGKOIR:  Solving for p, Initial residual = 0.0849192, Final residual = 8.54552e-07, No Iterations 4
linear solve p 196905
time step continuity errors : sum local = 1.57326e-07, global = -2.72769e-20, cumulative = -6.53573e-20
[OGL LOG] init_preconditioner : 0 ms
[OGL LOG] solve : 186 ms
nonecudaGKOIR:  Solving for p, Initial residual = 0.0685461, Final residual = 7.50717e-07, No Iterations 4
linear solve p 199301
time step continuity errors : sum local = 1.57918e-07, global = -2.81907e-20, cumulative = -9.3548e-20
ExecutionTime = 13.46 s  ClockTime = 14 s

Time = 0.00933333

Courant Number mean: 0.17967 max: 0.955718
DILUPBiCGStab:  Solving for Ux, Initial residual = 0.00135004, Final residual = 6.54093e-06, No Iterations 5
DILUPBiCGStab:  Solving for Uy, Initial residual = 0.00411448, Final residual = 1.15756e-05, No Iterations 5
DILUPBiCGStab:  Solving for Uz, Initial residual = 0.0103841, Final residual = 4.52456e-05, No Iterations 5
linear solve U 411949
[OGL LOG] init_preconditioner : 0 ms
[OGL LOG] solve : 181 ms
nonecudaGKOIR:  Solving for p, Initial residual = 0.0672326, Final residual = 6.80686e-07, No Iterations 4
linear solve p 194709
time step continuity errors : sum local = 1.58602e-07, global = 9.37068e-21, cumulative = -8.41773e-20
[OGL LOG] init_preconditioner : 0 ms
[OGL LOG] solve : 186 ms
nonecudaGKOIR:  Solving for p, Initial residual = 0.0542778, Final residual = 5.62609e-07, No Iterations 4
linear solve p 200180
time step continuity errors : sum local = 1.58008e-07, global = -2.81334e-20, cumulative = -1.12311e-19
ExecutionTime = 14.52 s  ClockTime = 15 s

Time = 0.0106667

Courant Number mean: 0.180675 max: 0.956053
DILUPBiCGStab:  Solving for Ux, Initial residual = 0.00120421, Final residual = 5.42771e-06, No Iterations 5
DILUPBiCGStab:  Solving for Uy, Initial residual = 0.00364521, Final residual = 8.93413e-06, No Iterations 5
DILUPBiCGStab:  Solving for Uz, Initial residual = 0.00898143, Final residual = 3.40058e-05, No Iterations 5
linear solve U 403112
[OGL LOG] init_preconditioner : 0 ms
[OGL LOG] solve : 110 ms
nonecudaGKOIR:  Solving for p, Initial residual = 0.0535938, Final residual = 5.22649e-07, No Iterations 4
linear solve p 124096
time step continuity errors : sum local = 1.57517e-07, global = 1.04207e-20, cumulative = -1.0189e-19
[OGL LOG] init_preconditioner : 0 ms
[OGL LOG] solve : 184 ms
nonecudaGKOIR:  Solving for p, Initial residual = 0.0434624, Final residual = 4.21812e-07, No Iterations 4
linear solve p 197338
time step continuity errors : sum local = 1.57871e-07, global = 8.9269e-21, cumulative = -9.29632e-20
ExecutionTime = 15.48 s  ClockTime = 16 s

Time = 0.012

Courant Number mean: 0.181586 max: 0.956269
DILUPBiCGStab:  Solving for Ux, Initial residual = 0.00107269, Final residual = 4.24475e-06, No Iterations 5
DILUPBiCGStab:  Solving for Uy, Initial residual = 0.00324657, Final residual = 7.89931e-06, No Iterations 5
DILUPBiCGStab:  Solving for Uz, Initial residual = 0.00732774, Final residual = 2.6619e-05, No Iterations 5
linear solve U 396554
[OGL LOG] init_preconditioner : 0 ms
[OGL LOG] solve : 176 ms
nonecudaGKOIR:  Solving for p, Initial residual = 0.0432842, Final residual = 3.91912e-07, No Iterations 4
linear solve p 189570
time step continuity errors : sum local = 1.58227e-07, global = -3.59346e-20, cumulative = -1.28898e-19
[OGL LOG] init_preconditioner : 0 ms
[OGL LOG] solve : 181 ms
nonecudaGKOIR:  Solving for p, Initial residual = 0.0351277, Final residual = 3.35194e-07, No Iterations 4
linear solve p 194771
time step continuity errors : sum local = 1.57933e-07, global = -1.49272e-20, cumulative = -1.43825e-19
ExecutionTime = 16.5 s  ClockTime = 17 s

Time = 0.0133333

Courant Number mean: 0.182419 max: 0.956526
DILUPBiCGStab:  Solving for Ux, Initial residual = 0.00096754, Final residual = 3.81323e-06, No Iterations 5
DILUPBiCGStab:  Solving for Uy, Initial residual = 0.00291412, Final residual = 6.31446e-06, No Iterations 5
DILUPBiCGStab:  Solving for Uz, Initial residual = 0.00649799, Final residual = 2.04026e-05, No Iterations 5
linear solve U 404520
[OGL LOG] init_preconditioner : 0 ms
[OGL LOG] solve : 174 ms
nonecudaGKOIR:  Solving for p, Initial residual = 0.0346829, Final residual = 3.40574e-07, No Iterations 4
linear solve p 187747
time step continuity errors : sum local = 1.57608e-07, global = -2.55154e-21, cumulative = -1.46377e-19
[OGL LOG] init_preconditioner : 0 ms
[OGL LOG] solve : 196 ms
nonecudaGKOIR:  Solving for p, Initial residual = 0.0282231, Final residual = 2.58434e-07, No Iterations 4
linear solve p 209703
time step continuity errors : sum local = 1.57857e-07, global = 4.21524e-21, cumulative = -1.42161e-19
ExecutionTime = 17.55 s  ClockTime = 18 s

End

