/*---------------------------------------------------------------------------*\
  =========                 |
  \\      /  F ield         | OpenFOAM: The Open Source CFD Toolbox
   \\    /   O peration     | Website:  https://openfoam.org
    \\  /    A nd           | Version:  8
     \\/     M anipulation  |
\*---------------------------------------------------------------------------*/
Build  : 8-ef60d22ea792
Exec   : icoFoam
Date   : Sep 15 2021
Time   : 13:34:11
Host   : "uc2n482.localdomain"
PID    : 3632334
I/O    : uncollated
Case   : /pfs/data5/home/kit/scc/nq7776/data/code/OBR/lidDrivenCavity3D/Variation_init/100/Variation_mesh/40/Variation_matrix_solver/CG_BJ_CUDA/Variation_maxBlockSize/8/1631705647
nProcs : 1
sigFpe : Enabling floating point exception trapping (FOAM_SIGFPE).
fileModificationChecking : Monitoring run-time modified files using timeStampMaster (fileModificationSkew 10)
allowSystemOperations : Allowing user-supplied system call operations

// * * * * * * * * * * * * * * * * * * * * * * * * * * * * * * * * * * * * * //
Create time

Create mesh for time = 0

Reading transportProperties

Reading field p

Reading field U

Reading/calculating face flux field phi


Starting time loop

Time = 0.0025

Courant Number mean: 0.170274 max: 0.898977
DILUPBiCGStab:  Solving for Ux, Initial residual = 0.0777941, Final residual = 5.00153e-06, No Iterations 5
DILUPBiCGStab:  Solving for Uy, Initial residual = 0.123446, Final residual = 1.39078e-05, No Iterations 5
DILUPBiCGStab:  Solving for Uz, Initial residual = 0.127456, Final residual = 2.53141e-05, No Iterations 5
linear solve U 53604
[OGL LOG] init_host_sparsity_pattern : 18 ms
[OGL LOG] matrix not stored update host matrix
[OGL LOG] update_host_mtx : 10 ms
[OGL LOG] matrix is not yet sorted, compute sorting idxs
[OGL LOG] compute_sort : 497 ms
[OGL LOG] matrix is not yet sorted, sorting host matrix
[OGL LOG] sort_host_mtx_sparsity_pattern : 12 ms
[OGL LOG] sort_host_mtx : 7 ms
[OGL LOG] init_preconditioner : 7 ms
[OGL LOG] solve : 36 ms
BJcudaGKOCG:  Solving for p, Initial residual = 0.406972, Final residual = 8.58902e-07, No Iterations 267
linear solve p 1341698
time step continuity errors : sum local = 2.05294e-09, global = -1.02953e-20, cumulative = -1.02953e-20
[OGL LOG] init_preconditioner : 0 ms
[OGL LOG] solve : 36 ms
BJcudaGKOCG:  Solving for p, Initial residual = 0.212572, Final residual = 9.66441e-07, No Iterations 265
linear solve p 38001
time step continuity errors : sum local = 1.85764e-09, global = 3.04241e-20, cumulative = 2.01288e-20
ExecutionTime = 1.77 s  ClockTime = 1 s

Time = 0.005

Courant Number mean: 0.173472 max: 0.913614
DILUPBiCGStab:  Solving for Ux, Initial residual = 0.00786557, Final residual = 6.97738e-06, No Iterations 5
DILUPBiCGStab:  Solving for Uy, Initial residual = 0.0156864, Final residual = 1.02457e-05, No Iterations 5
DILUPBiCGStab:  Solving for Uz, Initial residual = 0.0331153, Final residual = 1.79204e-05, No Iterations 5
linear solve U 47453
[OGL LOG] init_preconditioner : 0 ms
[OGL LOG] solve : 36 ms
BJcudaGKOCG:  Solving for p, Initial residual = 0.146661, Final residual = 9.70852e-07, No Iterations 263
linear solve p 37890
time step continuity errors : sum local = 6.66723e-07, global = 4.20213e-20, cumulative = 6.21501e-20
[OGL LOG] init_preconditioner : 0 ms
[OGL LOG] solve : 35 ms
BJcudaGKOCG:  Solving for p, Initial residual = 0.104784, Final residual = 9.45638e-07, No Iterations 261
linear solve p 37727
time step continuity errors : sum local = 6.28342e-07, global = -5.81999e-20, cumulative = 3.9502e-21
ExecutionTime = 1.92 s  ClockTime = 2 s

Time = 0.0075

Courant Number mean: 0.17602 max: 0.915376
DILUPBiCGStab:  Solving for Ux, Initial residual = 0.0034638, Final residual = 3.3083e-06, No Iterations 5
DILUPBiCGStab:  Solving for Uy, Initial residual = 0.00930357, Final residual = 5.91568e-06, No Iterations 5
DILUPBiCGStab:  Solving for Uz, Initial residual = 0.0178878, Final residual = 9.63495e-06, No Iterations 5
linear solve U 47338
[OGL LOG] init_preconditioner : 0 ms
[OGL LOG] solve : 34 ms
BJcudaGKOCG:  Solving for p, Initial residual = 0.0595666, Final residual = 9.82702e-07, No Iterations 258
linear solve p 36687
time step continuity errors : sum local = 6.17161e-07, global = 5.76659e-20, cumulative = 6.16161e-20
[OGL LOG] init_preconditioner : 0 ms
[OGL LOG] solve : 38 ms
BJcudaGKOCG:  Solving for p, Initial residual = 0.0435591, Final residual = 8.98741e-07, No Iterations 257
linear solve p 39789
time step continuity errors : sum local = 6.25597e-07, global = -8.29719e-20, cumulative = -2.13558e-20
ExecutionTime = 2.08 s  ClockTime = 2 s

Time = 0.01

Courant Number mean: 0.178224 max: 0.9168
DILUPBiCGStab:  Solving for Ux, Initial residual = 0.00264592, Final residual = 1.07533e-06, No Iterations 5
DILUPBiCGStab:  Solving for Uy, Initial residual = 0.00688021, Final residual = 2.61733e-06, No Iterations 5
DILUPBiCGStab:  Solving for Uz, Initial residual = 0.0130789, Final residual = 5.09778e-06, No Iterations 5
linear solve U 47615
[OGL LOG] init_preconditioner : 0 ms
[OGL LOG] solve : 34 ms
BJcudaGKOCG:  Solving for p, Initial residual = 0.0322266, Final residual = 9.80332e-07, No Iterations 253
linear solve p 36153
time step continuity errors : sum local = 6.28904e-07, global = 1.91699e-21, cumulative = -1.94389e-20
[OGL LOG] init_preconditioner : 0 ms
[OGL LOG] solve : 34 ms
BJcudaGKOCG:  Solving for p, Initial residual = 0.0246118, Final residual = 9.69355e-07, No Iterations 251
linear solve p 36423
time step continuity errors : sum local = 6.26217e-07, global = 8.42752e-20, cumulative = 6.48364e-20
ExecutionTime = 2.23 s  ClockTime = 2 s

Time = 0.0125

Courant Number mean: 0.180054 max: 0.917664
DILUPBiCGStab:  Solving for Ux, Initial residual = 0.00210909, Final residual = 6.87221e-07, No Iterations 5
DILUPBiCGStab:  Solving for Uy, Initial residual = 0.0054105, Final residual = 9.63142e-07, No Iterations 5
DILUPBiCGStab:  Solving for Uz, Initial residual = 0.00995361, Final residual = 2.78798e-06, No Iterations 5
linear solve U 47350
[OGL LOG] init_preconditioner : 0 ms
[OGL LOG] solve : 33 ms
BJcudaGKOCG:  Solving for p, Initial residual = 0.0202263, Final residual = 8.96369e-07, No Iterations 241
linear solve p 34900
time step continuity errors : sum local = 6.2523e-07, global = 7.094e-20, cumulative = 1.35776e-19
[OGL LOG] init_preconditioner : 0 ms
[OGL LOG] solve : 32 ms
BJcudaGKOCG:  Solving for p, Initial residual = 0.0155684, Final residual = 8.7267e-07, No Iterations 240
linear solve p 34768
time step continuity errors : sum local = 6.2601e-07, global = -3.21639e-20, cumulative = 1.03613e-19
ExecutionTime = 2.38 s  ClockTime = 2 s

Time = 0.015

Courant Number mean: 0.181609 max: 0.918509
DILUPBiCGStab:  Solving for Ux, Initial residual = 0.00174188, Final residual = 3.58532e-07, No Iterations 5
DILUPBiCGStab:  Solving for Uy, Initial residual = 0.00457551, Final residual = 8.59283e-07, No Iterations 5
DILUPBiCGStab:  Solving for Uz, Initial residual = 0.00838669, Final residual = 2.26819e-06, No Iterations 5
linear solve U 47481
[OGL LOG] init_preconditioner : 0 ms
[OGL LOG] solve : 33 ms
BJcudaGKOCG:  Solving for p, Initial residual = 0.0124375, Final residual = 9.95481e-07, No Iterations 244
linear solve p 35264
time step continuity errors : sum local = 6.26496e-07, global = 8.90563e-21, cumulative = 1.12518e-19
[OGL LOG] init_preconditioner : 0 ms
[OGL LOG] solve : 34 ms
BJcudaGKOCG:  Solving for p, Initial residual = 0.00997428, Final residual = 9.73782e-07, No Iterations 243
linear solve p 36364
time step continuity errors : sum local = 6.26127e-07, global = 6.09074e-20, cumulative = 1.73426e-19
ExecutionTime = 2.53 s  ClockTime = 2 s

Time = 0.0175

Courant Number mean: 0.182919 max: 0.919116
DILUPBiCGStab:  Solving for Ux, Initial residual = 0.0014591, Final residual = 2.82577e-07, No Iterations 5
DILUPBiCGStab:  Solving for Uy, Initial residual = 0.00377371, Final residual = 5.34856e-07, No Iterations 5
DILUPBiCGStab:  Solving for Uz, Initial residual = 0.00672565, Final residual = 1.32542e-06, No Iterations 5
linear solve U 47304
[OGL LOG] init_preconditioner : 0 ms
[OGL LOG] solve : 33 ms
BJcudaGKOCG:  Solving for p, Initial residual = 0.00873928, Final residual = 9.6403e-07, No Iterations 243
linear solve p 35125
time step continuity errors : sum local = 6.26021e-07, global = -1.37044e-19, cumulative = 3.63819e-20
[OGL LOG] init_preconditioner : 0 ms
[OGL LOG] solve : 33 ms
BJcudaGKOCG:  Solving for p, Initial residual = 0.00701651, Final residual = 9.48874e-07, No Iterations 242
linear solve p 35248
time step continuity errors : sum local = 6.26143e-07, global = 7.53975e-21, cumulative = 4.39216e-20
ExecutionTime = 2.68 s  ClockTime = 2 s

Time = 0.02

Courant Number mean: 0.184033 max: 0.919668
DILUPBiCGStab:  Solving for Ux, Initial residual = 0.00122816, Final residual = 1.57078e-07, No Iterations 5
DILUPBiCGStab:  Solving for Uy, Initial residual = 0.00323106, Final residual = 5.22115e-07, No Iterations 5
DILUPBiCGStab:  Solving for Uz, Initial residual = 0.00573436, Final residual = 1.18119e-06, No Iterations 5
linear solve U 47471
[OGL LOG] init_preconditioner : 0 ms
[OGL LOG] solve : 32 ms
BJcudaGKOCG:  Solving for p, Initial residual = 0.00585673, Final residual = 9.90225e-07, No Iterations 237
linear solve p 34141
time step continuity errors : sum local = 6.26179e-07, global = -8.34232e-20, cumulative = -3.95016e-20
[OGL LOG] init_preconditioner : 0 ms
[OGL LOG] solve : 32 ms
BJcudaGKOCG:  Solving for p, Initial residual = 0.00491723, Final residual = 9.68837e-07, No Iterations 236
linear solve p 33989
time step continuity errors : sum local = 6.26155e-07, global = -1.08774e-20, cumulative = -5.0379e-20
ExecutionTime = 2.82 s  ClockTime = 2 s

Time = 0.0225

Courant Number mean: 0.184978 max: 0.920092
DILUPBiCGStab:  Solving for Ux, Initial residual = 0.0010412, Final residual = 1.36355e-07, No Iterations 5
DILUPBiCGStab:  Solving for Uy, Initial residual = 0.00272322, Final residual = 3.77957e-07, No Iterations 5
DILUPBiCGStab:  Solving for Uz, Initial residual = 0.00472975, Final residual = 8.70921e-07, No Iterations 5
linear solve U 47411
[OGL LOG] init_preconditioner : 0 ms
[OGL LOG] solve : 32 ms
BJcudaGKOCG:  Solving for p, Initial residual = 0.00445778, Final residual = 9.20212e-07, No Iterations 240
linear solve p 34705
time step continuity errors : sum local = 6.26064e-07, global = 5.47397e-20, cumulative = 4.36068e-21
[OGL LOG] init_preconditioner : 0 ms
[OGL LOG] solve : 32 ms
BJcudaGKOCG:  Solving for p, Initial residual = 0.00379366, Final residual = 9.79457e-07, No Iterations 236
linear solve p 34283
time step continuity errors : sum local = 6.26152e-07, global = 3.2151e-20, cumulative = 3.65116e-20
ExecutionTime = 2.98 s  ClockTime = 3 s

Time = 0.025

Courant Number mean: 0.185785 max: 0.920464
DILUPBiCGStab:  Solving for Ux, Initial residual = 0.000884698, Final residual = 9.17994e-08, No Iterations 5
DILUPBiCGStab:  Solving for Uy, Initial residual = 0.00233887, Final residual = 4.80779e-07, No Iterations 5
DILUPBiCGStab:  Solving for Uz, Initial residual = 0.00401964, Final residual = 7.58315e-07, No Iterations 5
linear solve U 47180
[OGL LOG] init_preconditioner : 0 ms
[OGL LOG] solve : 31 ms
BJcudaGKOCG:  Solving for p, Initial residual = 0.00328379, Final residual = 9.7431e-07, No Iterations 232
linear solve p 32785
time step continuity errors : sum local = 6.26183e-07, global = -5.61185e-20, cumulative = -1.96069e-20
[OGL LOG] init_preconditioner : 0 ms
[OGL LOG] solve : 31 ms
BJcudaGKOCG:  Solving for p, Initial residual = 0.00288954, Final residual = 9.34364e-07, No Iterations 231
linear solve p 33084
time step continuity errors : sum local = 6.26139e-07, global = 1.36847e-20, cumulative = -5.9222e-21
ExecutionTime = 3.13 s  ClockTime = 3 s

End

