/*---------------------------------------------------------------------------*\
  =========                 |
  \\      /  F ield         | OpenFOAM: The Open Source CFD Toolbox
   \\    /   O peration     | Website:  https://openfoam.org
    \\  /    A nd           | Version:  8
     \\/     M anipulation  |
\*---------------------------------------------------------------------------*/
Build  : 8-ef60d22ea792
Exec   : icoFoam
Date   : Sep 15 2021
Time   : 13:47:51
Host   : "uc2n438.localdomain"
PID    : 3545090
I/O    : uncollated
Case   : /pfs/data5/home/kit/scc/nq7776/data/code/OBR/lidDrivenCavity3D/Variation_init/100/Variation_mesh/30/Variation_matrix_solver/BiCGStab_NoPrecond_Serial/1631706470
nProcs : 1
sigFpe : Enabling floating point exception trapping (FOAM_SIGFPE).
fileModificationChecking : Monitoring run-time modified files using timeStampMaster (fileModificationSkew 10)
allowSystemOperations : Allowing user-supplied system call operations

// * * * * * * * * * * * * * * * * * * * * * * * * * * * * * * * * * * * * * //
Create time

Create mesh for time = 0

Reading transportProperties

Reading field p

Reading field U

Reading/calculating face flux field phi


Starting time loop

Time = 0.00333333

Courant Number mean: 0.169907 max: 0.893517
DILUPBiCGStab:  Solving for Ux, Initial residual = 0.0911511, Final residual = 3.95829e-06, No Iterations 5
DILUPBiCGStab:  Solving for Uy, Initial residual = 0.158672, Final residual = 5.65407e-06, No Iterations 5
DILUPBiCGStab:  Solving for Uz, Initial residual = 0.266117, Final residual = 9.88141e-06, No Iterations 5
linear solve U 22766
nonePBiCGStab:  Solving for p, Initial residual = 0.542954, Final residual = 6.96196e-07, No Iterations 212
linear solve p 112160
time step continuity errors : sum local = 6.50726e-09, global = -5.68989e-20, cumulative = -5.68989e-20
nonePBiCGStab:  Solving for p, Initial residual = 0.318922, Final residual = 2.7066e-07, No Iterations 209
linear solve p 109754
time step continuity errors : sum local = 1.62662e-09, global = 3.32289e-20, cumulative = -2.367e-20
ExecutionTime = 0.42 s  ClockTime = 1 s

Time = 0.00666667

Courant Number mean: 0.173776 max: 0.888266
DILUPBiCGStab:  Solving for Ux, Initial residual = 0.0119479, Final residual = 2.97144e-06, No Iterations 5
DILUPBiCGStab:  Solving for Uy, Initial residual = 0.0223263, Final residual = 3.4014e-06, No Iterations 5
DILUPBiCGStab:  Solving for Uz, Initial residual = 0.0596848, Final residual = 5.2739e-06, No Iterations 5
linear solve U 18141
nonePBiCGStab:  Solving for p, Initial residual = 0.156727, Final residual = 9.40143e-07, No Iterations 211
linear solve p 110812
time step continuity errors : sum local = 3.89073e-09, global = -4.79702e-20, cumulative = -7.16402e-20
nonePBiCGStab:  Solving for p, Initial residual = 0.0960202, Final residual = 9.75106e-07, No Iterations 189
linear solve p 100024
time step continuity errors : sum local = 5.01746e-09, global = 6.94976e-20, cumulative = -2.14258e-21
ExecutionTime = 0.66 s  ClockTime = 1 s

Time = 0.01

Courant Number mean: 0.176716 max: 0.888542
DILUPBiCGStab:  Solving for Ux, Initial residual = 0.00409309, Final residual = 6.7027e-07, No Iterations 5
DILUPBiCGStab:  Solving for Uy, Initial residual = 0.00964123, Final residual = 1.18596e-06, No Iterations 5
DILUPBiCGStab:  Solving for Uz, Initial residual = 0.0232538, Final residual = 3.07178e-06, No Iterations 5
linear solve U 18416
nonePBiCGStab:  Solving for p, Initial residual = 0.0542676, Final residual = 8.1593e-07, No Iterations 183
linear solve p 96729
time step continuity errors : sum local = 4.80293e-09, global = 3.09633e-20, cumulative = 2.88207e-20
nonePBiCGStab:  Solving for p, Initial residual = 0.0362391, Final residual = 8.32283e-07, No Iterations 184
linear solve p 98917
time step continuity errors : sum local = 4.91877e-09, global = 1.13796e-20, cumulative = 4.02003e-20
ExecutionTime = 0.89 s  ClockTime = 1 s

Time = 0.0133333

Courant Number mean: 0.179156 max: 0.890256
DILUPBiCGStab:  Solving for Ux, Initial residual = 0.00297426, Final residual = 3.2581e-07, No Iterations 5
DILUPBiCGStab:  Solving for Uy, Initial residual = 0.0070415, Final residual = 6.19132e-07, No Iterations 5
DILUPBiCGStab:  Solving for Uz, Initial residual = 0.0128661, Final residual = 1.22545e-06, No Iterations 5
linear solve U 18229
nonePBiCGStab:  Solving for p, Initial residual = 0.0253507, Final residual = 9.31055e-07, No Iterations 179
linear solve p 94200
time step continuity errors : sum local = 5.41616e-09, global = 2.87916e-20, cumulative = 6.89919e-20
nonePBiCGStab:  Solving for p, Initial residual = 0.0181767, Final residual = 7.61268e-07, No Iterations 177
linear solve p 93912
time step continuity errors : sum local = 4.41907e-09, global = 6.57301e-20, cumulative = 1.34722e-19
ExecutionTime = 1.11 s  ClockTime = 2 s

Time = 0.0166667

Courant Number mean: 0.181129 max: 0.891457
DILUPBiCGStab:  Solving for Ux, Initial residual = 0.00228004, Final residual = 2.37276e-07, No Iterations 5
DILUPBiCGStab:  Solving for Uy, Initial residual = 0.00534532, Final residual = 4.68801e-07, No Iterations 5
DILUPBiCGStab:  Solving for Uz, Initial residual = 0.00929866, Final residual = 5.71904e-07, No Iterations 5
linear solve U 18201
nonePBiCGStab:  Solving for p, Initial residual = 0.0142896, Final residual = 8.19037e-07, No Iterations 174
linear solve p 91463
time step continuity errors : sum local = 4.76487e-09, global = -1.17194e-20, cumulative = 1.23003e-19
nonePBiCGStab:  Solving for p, Initial residual = 0.010476, Final residual = 8.32468e-07, No Iterations 168
linear solve p 88533
time step continuity errors : sum local = 4.85141e-09, global = 3.44366e-21, cumulative = 1.26446e-19
ExecutionTime = 1.32 s  ClockTime = 2 s

Time = 0.02

Courant Number mean: 0.182723 max: 0.892518
DILUPBiCGStab:  Solving for Ux, Initial residual = 0.00179149, Final residual = 1.43575e-07, No Iterations 5
DILUPBiCGStab:  Solving for Uy, Initial residual = 0.00435291, Final residual = 3.47266e-07, No Iterations 5
DILUPBiCGStab:  Solving for Uz, Initial residual = 0.0073743, Final residual = 4.47794e-07, No Iterations 5
linear solve U 18411
nonePBiCGStab:  Solving for p, Initial residual = 0.00821006, Final residual = 8.36686e-07, No Iterations 167
linear solve p 89417
time step continuity errors : sum local = 4.86338e-09, global = -4.8553e-20, cumulative = 7.78934e-20
nonePBiCGStab:  Solving for p, Initial residual = 0.00653783, Final residual = 8.97225e-07, No Iterations 166
linear solve p 88528
time step continuity errors : sum local = 5.21397e-09, global = 9.04819e-20, cumulative = 1.68375e-19
ExecutionTime = 1.52 s  ClockTime = 2 s

Time = 0.0233333

Courant Number mean: 0.184011 max: 0.893289
DILUPBiCGStab:  Solving for Ux, Initial residual = 0.00143609, Final residual = 1.09907e-07, No Iterations 5
DILUPBiCGStab:  Solving for Uy, Initial residual = 0.00348192, Final residual = 2.42771e-07, No Iterations 5
DILUPBiCGStab:  Solving for Uz, Initial residual = 0.00577189, Final residual = 2.70553e-07, No Iterations 5
linear solve U 18283
nonePBiCGStab:  Solving for p, Initial residual = 0.00545654, Final residual = 9.76933e-07, No Iterations 165
linear solve p 87077
time step continuity errors : sum local = 5.68268e-09, global = -2.38925e-20, cumulative = 1.44483e-19
nonePBiCGStab:  Solving for p, Initial residual = 0.00442902, Final residual = 9.85478e-07, No Iterations 157
linear solve p 82876
time step continuity errors : sum local = 5.73552e-09, global = -4.03e-20, cumulative = 1.04183e-19
ExecutionTime = 1.73 s  ClockTime = 2 s

Time = 0.0266667

Courant Number mean: 0.185057 max: 0.893926
DILUPBiCGStab:  Solving for Ux, Initial residual = 0.00115795, Final residual = 5.5901e-08, No Iterations 5
DILUPBiCGStab:  Solving for Uy, Initial residual = 0.00285818, Final residual = 1.88684e-07, No Iterations 5
DILUPBiCGStab:  Solving for Uz, Initial residual = 0.00467217, Final residual = 2.46373e-07, No Iterations 5
linear solve U 18492
nonePBiCGStab:  Solving for p, Initial residual = 0.00385968, Final residual = 9.16554e-07, No Iterations 83
linear solve p 43581
time step continuity errors : sum local = 3.80867e-09, global = 3.95725e-20, cumulative = 1.43755e-19
nonePBiCGStab:  Solving for p, Initial residual = 0.00327766, Final residual = 9.84902e-07, No Iterations 79
linear solve p 41648
time step continuity errors : sum local = 5.39166e-09, global = -3.69969e-23, cumulative = 1.43718e-19
ExecutionTime = 1.84 s  ClockTime = 2 s

Time = 0.03

Courant Number mean: 0.185908 max: 0.894414
DILUPBiCGStab:  Solving for Ux, Initial residual = 0.000941422, Final residual = 5.2742e-08, No Iterations 5
DILUPBiCGStab:  Solving for Uy, Initial residual = 0.00232758, Final residual = 1.38286e-07, No Iterations 5
DILUPBiCGStab:  Solving for Uz, Initial residual = 0.00372395, Final residual = 1.79329e-07, No Iterations 5
linear solve U 18325
nonePBiCGStab:  Solving for p, Initial residual = 0.00291957, Final residual = 9.93958e-07, No Iterations 80
linear solve p 42466
time step continuity errors : sum local = 5.14691e-09, global = 1.29044e-19, cumulative = 2.72762e-19
nonePBiCGStab:  Solving for p, Initial residual = 0.00251862, Final residual = 9.6098e-07, No Iterations 77
linear solve p 40549
time step continuity errors : sum local = 4.31044e-09, global = -9.56579e-20, cumulative = 1.77104e-19
ExecutionTime = 1.96 s  ClockTime = 2 s

Time = 0.0333333

Courant Number mean: 0.186602 max: 0.894809
DILUPBiCGStab:  Solving for Ux, Initial residual = 0.000766402, Final residual = 3.04058e-08, No Iterations 5
DILUPBiCGStab:  Solving for Uy, Initial residual = 0.00191727, Final residual = 1.26652e-07, No Iterations 5
DILUPBiCGStab:  Solving for Uz, Initial residual = 0.00300298, Final residual = 1.54167e-07, No Iterations 5
linear solve U 18700
nonePBiCGStab:  Solving for p, Initial residual = 0.0022589, Final residual = 9.66855e-07, No Iterations 78
linear solve p 41204
time step continuity errors : sum local = 3.76497e-09, global = -3.49674e-20, cumulative = 1.42137e-19
nonePBiCGStab:  Solving for p, Initial residual = 0.00198202, Final residual = 8.56367e-07, No Iterations 70
linear solve p 36876
time step continuity errors : sum local = 3.79758e-09, global = -8.76061e-20, cumulative = 5.45304e-20
ExecutionTime = 2.07 s  ClockTime = 3 s

End

