/*---------------------------------------------------------------------------*\
  =========                 |
  \\      /  F ield         | OpenFOAM: The Open Source CFD Toolbox
   \\    /   O peration     | Website:  https://openfoam.org
    \\  /    A nd           | Version:  8
     \\/     M anipulation  |
\*---------------------------------------------------------------------------*/
Build  : 8-ef60d22ea792
Exec   : icoFoam
Date   : Sep 15 2021
Time   : 13:27:45
Host   : "uc2n438.localdomain"
PID    : 3542470
I/O    : uncollated
Case   : /pfs/data5/home/kit/scc/nq7776/data/code/OBR/lidDrivenCavity3D/Variation_init/100/Variation_mesh/65/Variation_matrix_solver/CG_DIC_Serial/1631705257
nProcs : 1
sigFpe : Enabling floating point exception trapping (FOAM_SIGFPE).
fileModificationChecking : Monitoring run-time modified files using timeStampMaster (fileModificationSkew 10)
allowSystemOperations : Allowing user-supplied system call operations

// * * * * * * * * * * * * * * * * * * * * * * * * * * * * * * * * * * * * * //
Create time

Create mesh for time = 0

Reading transportProperties

Reading field p

Reading field U

Reading/calculating face flux field phi


Starting time loop

Time = 0.00153846

Courant Number mean: 0.17093 max: 0.953778
DILUPBiCGStab:  Solving for Ux, Initial residual = 0.112594, Final residual = 8.25037e-05, No Iterations 5
DILUPBiCGStab:  Solving for Uy, Initial residual = 0.214167, Final residual = 0.00019351, No Iterations 5
DILUPBiCGStab:  Solving for Uz, Initial residual = 0.265767, Final residual = 0.000360103, No Iterations 5
linear solve U 276001
DICPCG:  Solving for p, Initial residual = 0.554571, Final residual = 6.89757e-07, No Iterations 170
linear solve p 1066989
time step continuity errors : sum local = 9.17737e-10, global = -1.85774e-20, cumulative = -1.85774e-20
DICPCG:  Solving for p, Initial residual = 0.328964, Final residual = 8.79763e-07, No Iterations 170
linear solve p 1061333
time step continuity errors : sum local = 7.09613e-10, global = -2.00802e-20, cumulative = -3.86576e-20
ExecutionTime = 3.89 s  ClockTime = 4 s

Time = 0.00307692

Courant Number mean: 0.173153 max: 0.946981
DILUPBiCGStab:  Solving for Ux, Initial residual = 0.00646103, Final residual = 2.91065e-05, No Iterations 5
DILUPBiCGStab:  Solving for Uy, Initial residual = 0.0152954, Final residual = 6.58729e-05, No Iterations 5
DILUPBiCGStab:  Solving for Uz, Initial residual = 0.0410359, Final residual = 0.000215683, No Iterations 5
linear solve U 252168
DICPCG:  Solving for p, Initial residual = 0.25902, Final residual = 8.61013e-07, No Iterations 169
linear solve p 1055644
time step continuity errors : sum local = 6.87722e-10, global = -1.87764e-20, cumulative = -5.7434e-20
DICPCG:  Solving for p, Initial residual = 0.210446, Final residual = 7.11527e-07, No Iterations 169
linear solve p 1057536
time step continuity errors : sum local = 5.60021e-10, global = 1.47606e-20, cumulative = -4.26734e-20
ExecutionTime = 6.4 s  ClockTime = 7 s

Time = 0.00461538

Courant Number mean: 0.174968 max: 0.947843
DILUPBiCGStab:  Solving for Ux, Initial residual = 0.003311, Final residual = 1.28471e-05, No Iterations 5
DILUPBiCGStab:  Solving for Uy, Initial residual = 0.00810297, Final residual = 2.89735e-05, No Iterations 5
DILUPBiCGStab:  Solving for Uz, Initial residual = 0.0238031, Final residual = 0.000136601, No Iterations 5
linear solve U 248696
DICPCG:  Solving for p, Initial residual = 0.16804, Final residual = 7.84331e-07, No Iterations 168
linear solve p 1063691
time step continuity errors : sum local = 5.90748e-10, global = -3.51007e-20, cumulative = -7.7774e-20
DICPCG:  Solving for p, Initial residual = 0.135521, Final residual = 6.80499e-07, No Iterations 168
linear solve p 1058033
time step continuity errors : sum local = 5.1413e-10, global = -2.4553e-20, cumulative = -1.02327e-19
ExecutionTime = 8.94 s  ClockTime = 9 s

Time = 0.00615385

Courant Number mean: 0.176518 max: 0.947985
DILUPBiCGStab:  Solving for Ux, Initial residual = 0.00229886, Final residual = 8.48603e-06, No Iterations 5
DILUPBiCGStab:  Solving for Uy, Initial residual = 0.00670334, Final residual = 1.83242e-05, No Iterations 5
DILUPBiCGStab:  Solving for Uz, Initial residual = 0.0192838, Final residual = 8.4072e-05, No Iterations 5
linear solve U 250197
DICPCG:  Solving for p, Initial residual = 0.117475, Final residual = 7.71734e-07, No Iterations 167
linear solve p 1044488
time step continuity errors : sum local = 5.49259e-10, global = -5.45531e-20, cumulative = -1.5688e-19
DICPCG:  Solving for p, Initial residual = 0.0952301, Final residual = 8.98798e-07, No Iterations 166
linear solve p 1037892
time step continuity errors : sum local = 6.35056e-10, global = -4.11833e-20, cumulative = -1.98063e-19
ExecutionTime = 11.42 s  ClockTime = 12 s

Time = 0.00769231

Courant Number mean: 0.17797 max: 0.948443
DILUPBiCGStab:  Solving for Ux, Initial residual = 0.00194859, Final residual = 6.60148e-06, No Iterations 5
DILUPBiCGStab:  Solving for Uy, Initial residual = 0.00523601, Final residual = 1.35814e-05, No Iterations 5
DILUPBiCGStab:  Solving for Uz, Initial residual = 0.0137232, Final residual = 5.09395e-05, No Iterations 5
linear solve U 248860
DICPCG:  Solving for p, Initial residual = 0.0839293, Final residual = 9.99e-07, No Iterations 162
linear solve p 1016095
time step continuity errors : sum local = 6.99658e-10, global = -5.2017e-20, cumulative = -2.5008e-19
DICPCG:  Solving for p, Initial residual = 0.0673253, Final residual = 9.45405e-07, No Iterations 163
linear solve p 1017804
time step continuity errors : sum local = 6.63224e-10, global = 3.09875e-20, cumulative = -2.19093e-19
ExecutionTime = 13.86 s  ClockTime = 14 s

Time = 0.00923077

Courant Number mean: 0.179261 max: 0.948913
DILUPBiCGStab:  Solving for Ux, Initial residual = 0.00160216, Final residual = 5.24947e-06, No Iterations 5
DILUPBiCGStab:  Solving for Uy, Initial residual = 0.00455725, Final residual = 9.1711e-06, No Iterations 5
DILUPBiCGStab:  Solving for Uz, Initial residual = 0.0115554, Final residual = 3.5781e-05, No Iterations 5
linear solve U 248199
DICPCG:  Solving for p, Initial residual = 0.0613611, Final residual = 9.61365e-07, No Iterations 100
linear solve p 632286
time step continuity errors : sum local = 8.00984e-10, global = -5.77243e-20, cumulative = -2.76817e-19
DICPCG:  Solving for p, Initial residual = 0.0494909, Final residual = 9.27994e-07, No Iterations 97
linear solve p 612173
time step continuity errors : sum local = 6.75432e-10, global = 2.29337e-20, cumulative = -2.53883e-19
ExecutionTime = 15.51 s  ClockTime = 16 s

Time = 0.0107692

Courant Number mean: 0.180428 max: 0.949219
DILUPBiCGStab:  Solving for Ux, Initial residual = 0.00140673, Final residual = 4.23226e-06, No Iterations 5
DILUPBiCGStab:  Solving for Uy, Initial residual = 0.00391317, Final residual = 6.18837e-06, No Iterations 5
DILUPBiCGStab:  Solving for Uz, Initial residual = 0.00900328, Final residual = 2.49455e-05, No Iterations 5
linear solve U 249083
DICPCG:  Solving for p, Initial residual = 0.045372, Final residual = 7.71426e-07, No Iterations 161
linear solve p 1005602
time step continuity errors : sum local = 5.24051e-10, global = -1.90206e-20, cumulative = -2.72904e-19
DICPCG:  Solving for p, Initial residual = 0.0363203, Final residual = 9.06621e-07, No Iterations 160
linear solve p 998819
time step continuity errors : sum local = 6.16374e-10, global = 1.41564e-20, cumulative = -2.58748e-19
ExecutionTime = 17.91 s  ClockTime = 18 s

Time = 0.0123077

Courant Number mean: 0.181475 max: 0.949601
DILUPBiCGStab:  Solving for Ux, Initial residual = 0.0012189, Final residual = 3.14076e-06, No Iterations 5
DILUPBiCGStab:  Solving for Uy, Initial residual = 0.00346976, Final residual = 4.46746e-06, No Iterations 5
DILUPBiCGStab:  Solving for Uz, Initial residual = 0.00774486, Final residual = 1.96839e-05, No Iterations 5
linear solve U 246898
DICPCG:  Solving for p, Initial residual = 0.0338705, Final residual = 9.11926e-07, No Iterations 157
linear solve p 984950
time step continuity errors : sum local = 6.13116e-10, global = 8.69497e-21, cumulative = -2.50053e-19
DICPCG:  Solving for p, Initial residual = 0.0272764, Final residual = 8.47675e-07, No Iterations 157
linear solve p 979168
time step continuity errors : sum local = 5.69432e-10, global = -4.16344e-20, cumulative = -2.91687e-19
ExecutionTime = 20.29 s  ClockTime = 21 s

Time = 0.0138462

Courant Number mean: 0.182418 max: 0.949852
DILUPBiCGStab:  Solving for Ux, Initial residual = 0.00108408, Final residual = 2.39138e-06, No Iterations 5
DILUPBiCGStab:  Solving for Uy, Initial residual = 0.00306003, Final residual = 3.28828e-06, No Iterations 5
DILUPBiCGStab:  Solving for Uz, Initial residual = 0.00642885, Final residual = 1.61904e-05, No Iterations 5
linear solve U 246844
DICPCG:  Solving for p, Initial residual = 0.0254825, Final residual = 9.85013e-07, No Iterations 154
linear solve p 964789
time step continuity errors : sum local = 6.60165e-10, global = -7.76354e-21, cumulative = -2.99451e-19
DICPCG:  Solving for p, Initial residual = 0.0203984, Final residual = 9.9321e-07, No Iterations 153
linear solve p 961214
time step continuity errors : sum local = 6.6593e-10, global = -2.85757e-20, cumulative = -3.28026e-19
ExecutionTime = 22.61 s  ClockTime = 23 s

Time = 0.0153846

Courant Number mean: 0.183267 max: 0.95014
DILUPBiCGStab:  Solving for Ux, Initial residual = 0.000958911, Final residual = 1.63986e-06, No Iterations 5
DILUPBiCGStab:  Solving for Uy, Initial residual = 0.00274779, Final residual = 2.32724e-06, No Iterations 5
DILUPBiCGStab:  Solving for Uz, Initial residual = 0.00562695, Final residual = 1.26003e-05, No Iterations 5
linear solve U 249649
DICPCG:  Solving for p, Initial residual = 0.0193251, Final residual = 9.00399e-07, No Iterations 156
linear solve p 976634
time step continuity errors : sum local = 6.00257e-10, global = 3.19219e-20, cumulative = -2.96104e-19
DICPCG:  Solving for p, Initial residual = 0.0156211, Final residual = 8.407e-07, No Iterations 156
linear solve p 976792
time step continuity errors : sum local = 5.60303e-10, global = 3.50714e-20, cumulative = -2.61033e-19
ExecutionTime = 24.97 s  ClockTime = 25 s

End

