/*---------------------------------------------------------------------------*\
  =========                 |
  \\      /  F ield         | OpenFOAM: The Open Source CFD Toolbox
   \\    /   O peration     | Website:  https://openfoam.org
    \\  /    A nd           | Version:  8
     \\/     M anipulation  |
\*---------------------------------------------------------------------------*/
Build  : 8-ef60d22ea792
Exec   : icoFoam
Date   : Sep 15 2021
Time   : 13:36:08
Host   : "uc2n482.localdomain"
PID    : 3633821
I/O    : uncollated
Case   : /pfs/data5/home/kit/scc/nq7776/data/code/OBR/lidDrivenCavity3D/Variation_init/100/Variation_mesh/25/Variation_matrix_solver/CG_BJ_CUDA/Variation_maxBlockSize/1/1631705765
nProcs : 1
sigFpe : Enabling floating point exception trapping (FOAM_SIGFPE).
fileModificationChecking : Monitoring run-time modified files using timeStampMaster (fileModificationSkew 10)
allowSystemOperations : Allowing user-supplied system call operations

// * * * * * * * * * * * * * * * * * * * * * * * * * * * * * * * * * * * * * //
Create time

Create mesh for time = 0

Reading transportProperties

Reading field p

Reading field U

Reading/calculating face flux field phi


Starting time loop

Time = 0.004

Courant Number mean: 0.169656 max: 0.889609
DILUPBiCGStab:  Solving for Ux, Initial residual = 0.143151, Final residual = 1.76454e-06, No Iterations 5
DILUPBiCGStab:  Solving for Uy, Initial residual = 0.204592, Final residual = 1.77082e-06, No Iterations 5
DILUPBiCGStab:  Solving for Uz, Initial residual = 0.476047, Final residual = 3.97645e-06, No Iterations 5
linear solve U 11327
[OGL LOG] init_host_sparsity_pattern : 4 ms
[OGL LOG] matrix not stored update host matrix
[OGL LOG] update_host_mtx : 2 ms
[OGL LOG] matrix is not yet sorted, compute sorting idxs
[OGL LOG] compute_sort : 110 ms
[OGL LOG] matrix is not yet sorted, sorting host matrix
[OGL LOG] sort_host_mtx_sparsity_pattern : 3 ms
[OGL LOG] sort_host_mtx : 1 ms
[OGL LOG] init_preconditioner : 0 ms
[OGL LOG] solve : 27 ms
BJcudaGKOCG:  Solving for p, Initial residual = 0.578841, Final residual = 9.46148e-07, No Iterations 198
linear solve p 907415
time step continuity errors : sum local = 6.68465e-09, global = -4.57234e-21, cumulative = -4.57234e-21
[OGL LOG] init_preconditioner : 0 ms
[OGL LOG] solve : 28 ms
BJcudaGKOCG:  Solving for p, Initial residual = 0.27554, Final residual = 9.15513e-07, No Iterations 198
linear solve p 28772
time step continuity errors : sum local = 4.01061e-09, global = 2.81775e-20, cumulative = 2.36052e-20
ExecutionTime = 1.05 s  ClockTime = 1 s

Time = 0.008

Courant Number mean: 0.173868 max: 0.868145
DILUPBiCGStab:  Solving for Ux, Initial residual = 0.0151888, Final residual = 1.22593e-06, No Iterations 5
DILUPBiCGStab:  Solving for Uy, Initial residual = 0.0247674, Final residual = 1.80832e-06, No Iterations 5
DILUPBiCGStab:  Solving for Uz, Initial residual = 0.0887901, Final residual = 3.83182e-06, No Iterations 5
linear solve U 9852
[OGL LOG] init_preconditioner : 0 ms
[OGL LOG] solve : 26 ms
BJcudaGKOCG:  Solving for p, Initial residual = 0.17531, Final residual = 9.2189e-07, No Iterations 194
linear solve p 26677
time step continuity errors : sum local = 3.28489e-06, global = -2.33768e-19, cumulative = -2.10163e-19
[OGL LOG] init_preconditioner : 0 ms
[OGL LOG] solve : 25 ms
BJcudaGKOCG:  Solving for p, Initial residual = 0.103192, Final residual = 9.00267e-07, No Iterations 191
linear solve p 25970
time step continuity errors : sum local = 3.05909e-06, global = -7.00887e-20, cumulative = -2.80251e-19
ExecutionTime = 1.11 s  ClockTime = 1 s

Time = 0.012

Courant Number mean: 0.177048 max: 0.867817
DILUPBiCGStab:  Solving for Ux, Initial residual = 0.00469191, Final residual = 2.96388e-07, No Iterations 5
DILUPBiCGStab:  Solving for Uy, Initial residual = 0.0099877, Final residual = 4.81056e-07, No Iterations 5
DILUPBiCGStab:  Solving for Uz, Initial residual = 0.0313794, Final residual = 1.53393e-06, No Iterations 5
linear solve U 9870
[OGL LOG] init_preconditioner : 0 ms
[OGL LOG] solve : 25 ms
BJcudaGKOCG:  Solving for p, Initial residual = 0.0491935, Final residual = 8.78402e-07, No Iterations 188
linear solve p 25636
time step continuity errors : sum local = 3.01838e-06, global = -7.56291e-20, cumulative = -3.5588e-19
[OGL LOG] init_preconditioner : 0 ms
[OGL LOG] solve : 24 ms
BJcudaGKOCG:  Solving for p, Initial residual = 0.0326508, Final residual = 9.706e-07, No Iterations 185
linear solve p 25445
time step continuity errors : sum local = 3.04441e-06, global = -1.22271e-19, cumulative = -4.78151e-19
ExecutionTime = 1.19 s  ClockTime = 1 s

Time = 0.016

Courant Number mean: 0.179565 max: 0.869322
DILUPBiCGStab:  Solving for Ux, Initial residual = 0.00314077, Final residual = 1.45472e-07, No Iterations 5
DILUPBiCGStab:  Solving for Uy, Initial residual = 0.00681959, Final residual = 2.61105e-07, No Iterations 5
DILUPBiCGStab:  Solving for Uz, Initial residual = 0.0130994, Final residual = 5.57841e-07, No Iterations 5
linear solve U 10070
[OGL LOG] init_preconditioner : 0 ms
[OGL LOG] solve : 23 ms
BJcudaGKOCG:  Solving for p, Initial residual = 0.0194253, Final residual = 9.78884e-07, No Iterations 173
linear solve p 23663
time step continuity errors : sum local = 3.04932e-06, global = 9.59761e-20, cumulative = -3.82175e-19
[OGL LOG] init_preconditioner : 0 ms
[OGL LOG] solve : 22 ms
BJcudaGKOCG:  Solving for p, Initial residual = 0.0140351, Final residual = 9.82644e-07, No Iterations 171
linear solve p 23318
time step continuity errors : sum local = 3.04695e-06, global = -2.38857e-20, cumulative = -4.06061e-19
ExecutionTime = 1.24 s  ClockTime = 1 s

Time = 0.02

Courant Number mean: 0.181574 max: 0.870814
DILUPBiCGStab:  Solving for Ux, Initial residual = 0.00232735, Final residual = 9.81707e-08, No Iterations 5
DILUPBiCGStab:  Solving for Uy, Initial residual = 0.00517728, Final residual = 1.34696e-07, No Iterations 5
DILUPBiCGStab:  Solving for Uz, Initial residual = 0.00910534, Final residual = 2.66383e-07, No Iterations 5
linear solve U 9822
[OGL LOG] init_preconditioner : 0 ms
[OGL LOG] solve : 22 ms
BJcudaGKOCG:  Solving for p, Initial residual = 0.0100111, Final residual = 9.2738e-07, No Iterations 167
linear solve p 22784
time step continuity errors : sum local = 3.04278e-06, global = -1.56286e-19, cumulative = -5.62346e-19
[OGL LOG] init_preconditioner : 0 ms
[OGL LOG] solve : 26 ms
BJcudaGKOCG:  Solving for p, Initial residual = 0.0075131, Final residual = 8.86313e-07, No Iterations 165
linear solve p 26900
time step continuity errors : sum local = 3.04624e-06, global = 2.49114e-20, cumulative = -5.37435e-19
ExecutionTime = 1.31 s  ClockTime = 1 s

Time = 0.024

Courant Number mean: 0.183143 max: 0.871972
DILUPBiCGStab:  Solving for Ux, Initial residual = 0.00177553, Final residual = 5.93661e-08, No Iterations 5
DILUPBiCGStab:  Solving for Uy, Initial residual = 0.00408262, Final residual = 1.08539e-07, No Iterations 5
DILUPBiCGStab:  Solving for Uz, Initial residual = 0.00674884, Final residual = 1.93398e-07, No Iterations 5
linear solve U 9642
[OGL LOG] init_preconditioner : 0 ms
[OGL LOG] solve : 23 ms
BJcudaGKOCG:  Solving for p, Initial residual = 0.00619635, Final residual = 8.8973e-07, No Iterations 172
linear solve p 23500
time step continuity errors : sum local = 3.04469e-06, global = -7.01416e-20, cumulative = -6.07577e-19
[OGL LOG] init_preconditioner : 0 ms
[OGL LOG] solve : 23 ms
BJcudaGKOCG:  Solving for p, Initial residual = 0.00497386, Final residual = 9.43098e-07, No Iterations 170
linear solve p 23623
time step continuity errors : sum local = 3.04643e-06, global = -1.1916e-19, cumulative = -7.26737e-19
ExecutionTime = 1.37 s  ClockTime = 1 s

Time = 0.028

Courant Number mean: 0.184376 max: 0.872837
DILUPBiCGStab:  Solving for Ux, Initial residual = 0.00137932, Final residual = 4.356e-08, No Iterations 5
DILUPBiCGStab:  Solving for Uy, Initial residual = 0.00321232, Final residual = 3.22056e-08, No Iterations 5
DILUPBiCGStab:  Solving for Uz, Initial residual = 0.0051135, Final residual = 9.31739e-08, No Iterations 5
linear solve U 9968
[OGL LOG] init_preconditioner : 0 ms
[OGL LOG] solve : 22 ms
BJcudaGKOCG:  Solving for p, Initial residual = 0.00396861, Final residual = 9.16948e-07, No Iterations 163
linear solve p 22485
time step continuity errors : sum local = 3.04472e-06, global = -8.91403e-20, cumulative = -8.15877e-19
[OGL LOG] init_preconditioner : 0 ms
[OGL LOG] solve : 21 ms
BJcudaGKOCG:  Solving for p, Initial residual = 0.00329357, Final residual = 8.94008e-07, No Iterations 161
linear solve p 22025
time step continuity errors : sum local = 3.04617e-06, global = -1.5327e-19, cumulative = -9.69147e-19
ExecutionTime = 1.43 s  ClockTime = 1 s

Time = 0.032

Courant Number mean: 0.185344 max: 0.873502
DILUPBiCGStab:  Solving for Ux, Initial residual = 0.00107786, Final residual = 2.90215e-08, No Iterations 5
DILUPBiCGStab:  Solving for Uy, Initial residual = 0.00254842, Final residual = 2.92392e-08, No Iterations 5
DILUPBiCGStab:  Solving for Uz, Initial residual = 0.00394478, Final residual = 8.14396e-08, No Iterations 5
linear solve U 9597
[OGL LOG] init_preconditioner : 0 ms
[OGL LOG] solve : 21 ms
BJcudaGKOCG:  Solving for p, Initial residual = 0.00303554, Final residual = 9.53579e-07, No Iterations 160
linear solve p 22410
time step continuity errors : sum local = 3.04526e-06, global = 7.21831e-20, cumulative = -8.96964e-19
[OGL LOG] init_preconditioner : 0 ms
[OGL LOG] solve : 21 ms
BJcudaGKOCG:  Solving for p, Initial residual = 0.00256188, Final residual = 9.08092e-07, No Iterations 158
linear solve p 21952
time step continuity errors : sum local = 3.04621e-06, global = 9.51092e-20, cumulative = -8.01855e-19
ExecutionTime = 1.49 s  ClockTime = 1 s

Time = 0.036

Courant Number mean: 0.186107 max: 0.874008
DILUPBiCGStab:  Solving for Ux, Initial residual = 0.000848615, Final residual = 2.26628e-08, No Iterations 5
DILUPBiCGStab:  Solving for Uy, Initial residual = 0.00202243, Final residual = 1.52885e-08, No Iterations 5
DILUPBiCGStab:  Solving for Uz, Initial residual = 0.00304095, Final residual = 5.66092e-08, No Iterations 5
linear solve U 10151
[OGL LOG] init_preconditioner : 0 ms
[OGL LOG] solve : 20 ms
BJcudaGKOCG:  Solving for p, Initial residual = 0.00227522, Final residual = 9.40105e-07, No Iterations 154
linear solve p 21075
time step continuity errors : sum local = 3.04553e-06, global = -1.70159e-19, cumulative = -9.72014e-19
[OGL LOG] init_preconditioner : 0 ms
[OGL LOG] solve : 20 ms
BJcudaGKOCG:  Solving for p, Initial residual = 0.00193487, Final residual = 9.30258e-07, No Iterations 152
linear solve p 20807
time step continuity errors : sum local = 3.04629e-06, global = -7.84217e-20, cumulative = -1.05044e-18
ExecutionTime = 1.56 s  ClockTime = 1 s

Time = 0.04

Courant Number mean: 0.186709 max: 0.874399
DILUPBiCGStab:  Solving for Ux, Initial residual = 0.000670159, Final residual = 1.65798e-08, No Iterations 5
DILUPBiCGStab:  Solving for Uy, Initial residual = 0.00160976, Final residual = 1.26326e-08, No Iterations 5
DILUPBiCGStab:  Solving for Uz, Initial residual = 0.00235955, Final residual = 4.61708e-08, No Iterations 5
linear solve U 9774
[OGL LOG] init_preconditioner : 0 ms
[OGL LOG] solve : 20 ms
BJcudaGKOCG:  Solving for p, Initial residual = 0.00179041, Final residual = 8.5866e-07, No Iterations 151
linear solve p 20782
time step continuity errors : sum local = 3.04573e-06, global = 1.00221e-20, cumulative = -1.04041e-18
[OGL LOG] init_preconditioner : 0 ms
[OGL LOG] solve : 20 ms
BJcudaGKOCG:  Solving for p, Initial residual = 0.00153109, Final residual = 9.46536e-07, No Iterations 149
linear solve p 20986
time step continuity errors : sum local = 3.04623e-06, global = 1.45657e-19, cumulative = -8.94757e-19
ExecutionTime = 1.61 s  ClockTime = 1 s

End

