/*---------------------------------------------------------------------------*\
  =========                 |
  \\      /  F ield         | OpenFOAM: The Open Source CFD Toolbox
   \\    /   O peration     | Website:  https://openfoam.org
    \\  /    A nd           | Version:  8
     \\/     M anipulation  |
\*---------------------------------------------------------------------------*/
Build  : 8-ef60d22ea792
Exec   : icoFoam
Date   : Sep 15 2021
Time   : 13:07:47
Host   : "uc2n482.localdomain"
PID    : 3626424
I/O    : uncollated
Case   : /pfs/data5/home/kit/scc/nq7776/data/code/OBR/lidDrivenCavity3D/Variation_init/100/Variation_mesh/5/Variation_matrix_solver/CG_ILU_CUDA/1631704066
nProcs : 1
sigFpe : Enabling floating point exception trapping (FOAM_SIGFPE).
fileModificationChecking : Monitoring run-time modified files using timeStampMaster (fileModificationSkew 10)
allowSystemOperations : Allowing user-supplied system call operations

// * * * * * * * * * * * * * * * * * * * * * * * * * * * * * * * * * * * * * //
Create time

Create mesh for time = 0

Reading transportProperties

Reading field p

Reading field U

Reading/calculating face flux field phi


Starting time loop

Time = 0.02

Courant Number mean: 0.144178 max: 0.344046
DILUPBiCGStab:  Solving for Ux, Initial residual = 0.270102, Final residual = 1.39043e-14, No Iterations 5
DILUPBiCGStab:  Solving for Uy, Initial residual = 0.217087, Final residual = 1.19184e-13, No Iterations 5
DILUPBiCGStab:  Solving for Uz, Initial residual = 0.216079, Final residual = 2.72531e-14, No Iterations 5
linear solve U 203
[OGL LOG] init_host_sparsity_pattern : 0 ms
[OGL LOG] matrix not stored update host matrix
[OGL LOG] update_host_mtx : 0 ms
[OGL LOG] matrix is not yet sorted, compute sorting idxs
[OGL LOG] compute_sort : 0 ms
[OGL LOG] matrix is not yet sorted, sorting host matrix
[OGL LOG] sort_host_mtx_sparsity_pattern : 0 ms
[OGL LOG] sort_host_mtx : 0 ms
[OGL LOG] init_preconditioner : 3 ms
[OGL LOG] solve : 4 ms
ILUcudaGKOCG:  Solving for p, Initial residual = 0.599316, Final residual = 1.57302e-07, No Iterations 14
linear solve p 745299
time step continuity errors : sum local = 1.31139e-08, global = 1.67249e-18, cumulative = 1.67249e-18
[OGL LOG] init_preconditioner : 0 ms
[OGL LOG] solve : 2 ms
ILUcudaGKOCG:  Solving for p, Initial residual = 0.288319, Final residual = 5.56391e-07, No Iterations 13
linear solve p 3177
time step continuity errors : sum local = 2.45011e-08, global = -1.87962e-18, cumulative = -2.07126e-19
ExecutionTime = 0.77 s  ClockTime = 1 s

Time = 0.04

Courant Number mean: 0.143461 max: 0.370002
DILUPBiCGStab:  Solving for Ux, Initial residual = 0.0735166, Final residual = 6.10754e-14, No Iterations 5
DILUPBiCGStab:  Solving for Uy, Initial residual = 0.0725789, Final residual = 1.60317e-13, No Iterations 5
DILUPBiCGStab:  Solving for Uz, Initial residual = 0.17473, Final residual = 2.48415e-13, No Iterations 5
linear solve U 121
[OGL LOG] init_preconditioner : 0 ms
[OGL LOG] solve : 3 ms
ILUcudaGKOCG:  Solving for p, Initial residual = 0.212157, Final residual = 4.47096e-07, No Iterations 13
linear solve p 3167
time step continuity errors : sum local = 0.000264121, global = 3.36696e-19, cumulative = 1.2957e-19
[OGL LOG] init_preconditioner : 0 ms
[OGL LOG] solve : 2 ms
ILUcudaGKOCG:  Solving for p, Initial residual = 0.0746229, Final residual = 1.27123e-07, No Iterations 13
linear solve p 3104
time step continuity errors : sum local = 0.000237017, global = 9.21148e-19, cumulative = 1.05072e-18
ExecutionTime = 0.78 s  ClockTime = 1 s

Time = 0.06

Courant Number mean: 0.145501 max: 0.37555
DILUPBiCGStab:  Solving for Ux, Initial residual = 0.0154114, Final residual = 1.49249e-15, No Iterations 5
DILUPBiCGStab:  Solving for Uy, Initial residual = 0.0201049, Final residual = 2.28396e-14, No Iterations 5
DILUPBiCGStab:  Solving for Uz, Initial residual = 0.0978133, Final residual = 1.16414e-13, No Iterations 5
linear solve U 96
[OGL LOG] init_preconditioner : 0 ms
[OGL LOG] solve : 2 ms
ILUcudaGKOCG:  Solving for p, Initial residual = 0.0170455, Final residual = 6.67575e-07, No Iterations 11
linear solve p 2738
time step continuity errors : sum local = 0.000237521, global = 3.40931e-19, cumulative = 1.39165e-18
[OGL LOG] init_preconditioner : 0 ms
[OGL LOG] solve : 2 ms
ILUcudaGKOCG:  Solving for p, Initial residual = 0.00365012, Final residual = 1.69465e-07, No Iterations 11
linear solve p 2736
time step continuity errors : sum local = 0.00023743, global = -4.25634e-19, cumulative = 9.66015e-19
ExecutionTime = 0.79 s  ClockTime = 1 s

Time = 0.08

Courant Number mean: 0.147029 max: 0.378253
DILUPBiCGStab:  Solving for Ux, Initial residual = 0.00478799, Final residual = 3.38635e-15, No Iterations 5
DILUPBiCGStab:  Solving for Uy, Initial residual = 0.00642994, Final residual = 1.20376e-14, No Iterations 5
DILUPBiCGStab:  Solving for Uz, Initial residual = 0.0284298, Final residual = 4.44203e-14, No Iterations 5
linear solve U 95
[OGL LOG] init_preconditioner : 0 ms
[OGL LOG] solve : 2 ms
ILUcudaGKOCG:  Solving for p, Initial residual = 0.00482346, Final residual = 3.3574e-07, No Iterations 11
linear solve p 2737
time step continuity errors : sum local = 0.000237958, global = -3.34578e-19, cumulative = 6.31437e-19
[OGL LOG] init_preconditioner : 0 ms
[OGL LOG] solve : 2 ms
ILUcudaGKOCG:  Solving for p, Initial residual = 0.00114481, Final residual = 6.46132e-07, No Iterations 10
linear solve p 2530
time step continuity errors : sum local = 0.000237676, global = -4.97632e-19, cumulative = 1.33805e-19
ExecutionTime = 0.79 s  ClockTime = 1 s

Time = 0.1

Courant Number mean: 0.14778 max: 0.379477
DILUPBiCGStab:  Solving for Ux, Initial residual = 0.00171223, Final residual = 8.30611e-16, No Iterations 5
DILUPBiCGStab:  Solving for Uy, Initial residual = 0.00257353, Final residual = 2.28362e-15, No Iterations 5
DILUPBiCGStab:  Solving for Uz, Initial residual = 0.0107959, Final residual = 1.44942e-14, No Iterations 5
linear solve U 94
[OGL LOG] init_preconditioner : 0 ms
[OGL LOG] solve : 2 ms
ILUcudaGKOCG:  Solving for p, Initial residual = 0.00160392, Final residual = 6.58956e-07, No Iterations 10
linear solve p 2545
time step continuity errors : sum local = 0.000237719, global = 3.47284e-19, cumulative = 4.81088e-19
[OGL LOG] init_preconditioner : 0 ms
[OGL LOG] solve : 2 ms
ILUcudaGKOCG:  Solving for p, Initial residual = 0.000367483, Final residual = 8.64982e-07, No Iterations 9
linear solve p 2354
time step continuity errors : sum local = 0.000237673, global = 9.69853e-19, cumulative = 1.45094e-18
ExecutionTime = 0.8 s  ClockTime = 1 s

Time = 0.12

Courant Number mean: 0.148155 max: 0.380093
DILUPBiCGStab:  Solving for Ux, Initial residual = 0.000689986, Final residual = 3.07156e-16, No Iterations 5
DILUPBiCGStab:  Solving for Uy, Initial residual = 0.00109054, Final residual = 3.92314e-16, No Iterations 5
DILUPBiCGStab:  Solving for Uz, Initial residual = 0.00414277, Final residual = 5.02874e-15, No Iterations 5
linear solve U 94
[OGL LOG] init_preconditioner : 0 ms
[OGL LOG] solve : 2 ms
ILUcudaGKOCG:  Solving for p, Initial residual = 0.000679514, Final residual = 8.16257e-07, No Iterations 9
linear solve p 2377
time step continuity errors : sum local = 0.000237676, global = -1.35314e-18, cumulative = 9.78058e-20
[OGL LOG] init_preconditioner : 0 ms
[OGL LOG] solve : 2 ms
ILUcudaGKOCG:  Solving for p, Initial residual = 0.00016128, Final residual = 9.42791e-07, No Iterations 8
linear solve p 2161
time step continuity errors : sum local = 0.000237655, global = -3.69518e-19, cumulative = -2.71712e-19
ExecutionTime = 0.8 s  ClockTime = 1 s

Time = 0.14

Courant Number mean: 0.148339 max: 0.380409
DILUPBiCGStab:  Solving for Ux, Initial residual = 0.000300371, Final residual = 1.45377e-16, No Iterations 5
DILUPBiCGStab:  Solving for Uy, Initial residual = 0.00048878, Final residual = 2.1023e-16, No Iterations 5
DILUPBiCGStab:  Solving for Uz, Initial residual = 0.0016682, Final residual = 1.82992e-15, No Iterations 5
linear solve U 93
[OGL LOG] init_preconditioner : 0 ms
[OGL LOG] solve : 2 ms
ILUcudaGKOCG:  Solving for p, Initial residual = 0.000315368, Final residual = 8.62413e-07, No Iterations 8
linear solve p 2174
time step continuity errors : sum local = 0.000237648, global = -1.55642e-19, cumulative = -4.27355e-19
[OGL LOG] init_preconditioner : 0 ms
[OGL LOG] solve : 1 ms
ILUcudaGKOCG:  Solving for p, Initial residual = 7.19092e-05, Final residual = 7.17576e-07, No Iterations 4
linear solve p 1450
time step continuity errors : sum local = 0.00023767, global = 5.73865e-19, cumulative = 1.4651e-19
ExecutionTime = 0.81 s  ClockTime = 1 s

Time = 0.16

Courant Number mean: 0.148428 max: 0.380568
DILUPBiCGStab:  Solving for Ux, Initial residual = 0.000135328, Final residual = 6.77073e-17, No Iterations 5
DILUPBiCGStab:  Solving for Uy, Initial residual = 0.000229162, Final residual = 1.48154e-16, No Iterations 5
DILUPBiCGStab:  Solving for Uz, Initial residual = 0.000709768, Final residual = 6.3128e-16, No Iterations 5
linear solve U 101
[OGL LOG] init_preconditioner : 0 ms
[OGL LOG] solve : 1 ms
ILUcudaGKOCG:  Solving for p, Initial residual = 0.000149207, Final residual = 7.06419e-07, No Iterations 4
linear solve p 1500
time step continuity errors : sum local = 0.000237647, global = 8.44915e-19, cumulative = 9.91426e-19
[OGL LOG] init_preconditioner : 0 ms
[OGL LOG] solve : 1 ms
ILUcudaGKOCG:  Solving for p, Initial residual = 3.35336e-05, Final residual = 7.19319e-07, No Iterations 3
linear solve p 1236
time step continuity errors : sum local = 0.000237656, global = -1.49501e-18, cumulative = -5.03588e-19
ExecutionTime = 0.81 s  ClockTime = 1 s

Time = 0.18

Courant Number mean: 0.148472 max: 0.380648
DILUPBiCGStab:  Solving for Ux, Initial residual = 6.20635e-05, Final residual = 2.89669e-17, No Iterations 5
DILUPBiCGStab:  Solving for Uy, Initial residual = 0.000108526, Final residual = 7.71256e-17, No Iterations 5
DILUPBiCGStab:  Solving for Uz, Initial residual = 0.000313236, Final residual = 1.99457e-16, No Iterations 5
linear solve U 94
[OGL LOG] init_preconditioner : 0 ms
[OGL LOG] solve : 1 ms
ILUcudaGKOCG:  Solving for p, Initial residual = 7.09739e-05, Final residual = 8.0663e-07, No Iterations 3
linear solve p 1239
time step continuity errors : sum local = 0.000237637, global = 4.74338e-19, cumulative = -2.92491e-20
[OGL LOG] init_preconditioner : 0 ms
[OGL LOG] solve : 0 ms
ILUcudaGKOCG:  Solving for p, Initial residual = 1.5923e-05, Final residual = 6.76294e-07, No Iterations 2
linear solve p 1043
time step continuity errors : sum local = 0.000237633, global = -3.94929e-19, cumulative = -4.24178e-19
ExecutionTime = 0.81 s  ClockTime = 1 s

Time = 0.2

Courant Number mean: 0.148493 max: 0.380687
DILUPBiCGStab:  Solving for Ux, Initial residual = 2.85621e-05, Final residual = 1.11977e-17, No Iterations 5
DILUPBiCGStab:  Solving for Uy, Initial residual = 5.16845e-05, Final residual = 3.65251e-17, No Iterations 5
DILUPBiCGStab:  Solving for Uz, Initial residual = 0.000144952, Final residual = 5.31756e-17, No Iterations 5
linear solve U 94
[OGL LOG] init_preconditioner : 0 ms
[OGL LOG] solve : 0 ms
ILUcudaGKOCG:  Solving for p, Initial residual = 3.36392e-05, Final residual = 7.05054e-07, No Iterations 2
linear solve p 1011
time step continuity errors : sum local = 0.000237644, global = 1.73642e-19, cumulative = -2.50536e-19
[OGL LOG] init_preconditioner : 0 ms
[OGL LOG] solve : 0 ms
ILUcudaGKOCG:  Solving for p, Initial residual = 7.3633e-06, Final residual = 1.61056e-07, No Iterations 2
linear solve p 1073
time step continuity errors : sum local = 0.000237639, global = -3.36696e-19, cumulative = -5.87232e-19
ExecutionTime = 0.81 s  ClockTime = 1 s

End

