/*---------------------------------------------------------------------------*\
  =========                 |
  \\      /  F ield         | OpenFOAM: The Open Source CFD Toolbox
   \\    /   O peration     | Website:  https://openfoam.org
    \\  /    A nd           | Version:  8
     \\/     M anipulation  |
\*---------------------------------------------------------------------------*/
Build  : 8-ef60d22ea792
Exec   : icoFoam
Date   : Sep 15 2021
Time   : 14:21:20
Host   : "uc2n438.localdomain"
PID    : 3549334
I/O    : uncollated
Case   : /pfs/data5/home/kit/scc/nq7776/data/code/OBR/lidDrivenCavity3D/Variation_init/100/Variation_mesh/85/Variation_matrix_solver/CG_DIC_Serial/1631708458
nProcs : 1
sigFpe : Enabling floating point exception trapping (FOAM_SIGFPE).
fileModificationChecking : Monitoring run-time modified files using timeStampMaster (fileModificationSkew 10)
allowSystemOperations : Allowing user-supplied system call operations

// * * * * * * * * * * * * * * * * * * * * * * * * * * * * * * * * * * * * * //
Create time

Create mesh for time = 0

Reading transportProperties

Reading field p

Reading field U

Reading/calculating face flux field phi


Starting time loop

Time = 0.00117647

Courant Number mean: 0.17078 max: 0.958539
DILUPBiCGStab:  Solving for Ux, Initial residual = 0.08035, Final residual = 0.000200532, No Iterations 5
DILUPBiCGStab:  Solving for Uy, Initial residual = 0.159613, Final residual = 0.00056519, No Iterations 5
DILUPBiCGStab:  Solving for Uz, Initial residual = 0.222246, Final residual = 0.000790216, No Iterations 5
linear solve U 654253
DICPCG:  Solving for p, Initial residual = 0.643964, Final residual = 9.42406e-07, No Iterations 225
linear solve p 3385137
time step continuity errors : sum local = 7.5636e-10, global = -2.3859e-20, cumulative = -2.3859e-20
DICPCG:  Solving for p, Initial residual = 0.369996, Final residual = 8.89779e-07, No Iterations 225
linear solve p 3397026
time step continuity errors : sum local = 6.34776e-10, global = 2.05446e-20, cumulative = -3.31447e-21
ExecutionTime = 10.7 s  ClockTime = 11 s

Time = 0.00235294

Courant Number mean: 0.17242 max: 0.959521
DILUPBiCGStab:  Solving for Ux, Initial residual = 0.0066867, Final residual = 4.22365e-05, No Iterations 5
DILUPBiCGStab:  Solving for Uy, Initial residual = 0.0171906, Final residual = 0.000144527, No Iterations 5
DILUPBiCGStab:  Solving for Uz, Initial residual = 0.0433638, Final residual = 0.000582269, No Iterations 5
linear solve U 604918
DICPCG:  Solving for p, Initial residual = 0.435513, Final residual = 9.24428e-07, No Iterations 226
linear solve p 3386974
time step continuity errors : sum local = 5.32149e-10, global = -3.0313e-21, cumulative = -6.34577e-21
DICPCG:  Solving for p, Initial residual = 0.303853, Final residual = 8.58825e-07, No Iterations 226
linear solve p 3398043
time step continuity errors : sum local = 4.66189e-10, global = -2.2733e-20, cumulative = -2.90788e-20
ExecutionTime = 18.42 s  ClockTime = 18 s

Time = 0.00352941

Courant Number mean: 0.173894 max: 0.959456
DILUPBiCGStab:  Solving for Ux, Initial residual = 0.00333711, Final residual = 3.14702e-05, No Iterations 5
DILUPBiCGStab:  Solving for Uy, Initial residual = 0.00945607, Final residual = 8.96591e-05, No Iterations 5
DILUPBiCGStab:  Solving for Uz, Initial residual = 0.0306864, Final residual = 0.000410327, No Iterations 5
linear solve U 595309
DICPCG:  Solving for p, Initial residual = 0.299931, Final residual = 9.87893e-07, No Iterations 224
linear solve p 3378733
time step continuity errors : sum local = 5.11709e-10, global = 5.74658e-22, cumulative = -2.85041e-20
DICPCG:  Solving for p, Initial residual = 0.215687, Final residual = 9.15254e-07, No Iterations 224
linear solve p 3348392
time step continuity errors : sum local = 4.67859e-10, global = 2.80386e-20, cumulative = -4.65573e-22
ExecutionTime = 26.08 s  ClockTime = 26 s

Time = 0.00470588

Courant Number mean: 0.175264 max: 0.959792
DILUPBiCGStab:  Solving for Ux, Initial residual = 0.00248729, Final residual = 2.07248e-05, No Iterations 5
DILUPBiCGStab:  Solving for Uy, Initial residual = 0.00741675, Final residual = 5.77432e-05, No Iterations 5
DILUPBiCGStab:  Solving for Uz, Initial residual = 0.0248502, Final residual = 0.000346978, No Iterations 5
linear solve U 594188
DICPCG:  Solving for p, Initial residual = 0.231304, Final residual = 8.75003e-07, No Iterations 223
linear solve p 3403282
time step continuity errors : sum local = 4.01671e-10, global = -2.40937e-21, cumulative = -2.87494e-21
DICPCG:  Solving for p, Initial residual = 0.174238, Final residual = 9.28815e-07, No Iterations 222
linear solve p 3353399
time step continuity errors : sum local = 4.20605e-10, global = -9.1763e-21, cumulative = -1.20512e-20
ExecutionTime = 33.77 s  ClockTime = 34 s

Time = 0.00588235

Courant Number mean: 0.176537 max: 0.960088
DILUPBiCGStab:  Solving for Ux, Initial residual = 0.00205609, Final residual = 1.50306e-05, No Iterations 5
DILUPBiCGStab:  Solving for Uy, Initial residual = 0.00597115, Final residual = 3.61348e-05, No Iterations 5
DILUPBiCGStab:  Solving for Uz, Initial residual = 0.0198559, Final residual = 0.000272467, No Iterations 5
linear solve U 591507
DICPCG:  Solving for p, Initial residual = 0.174282, Final residual = 9.63473e-07, No Iterations 221
linear solve p 3348559
time step continuity errors : sum local = 4.33306e-10, global = 1.97683e-20, cumulative = 7.71708e-21
DICPCG:  Solving for p, Initial residual = 0.135149, Final residual = 8.62754e-07, No Iterations 221
linear solve p 3375373
time step continuity errors : sum local = 3.86349e-10, global = 1.47475e-20, cumulative = 2.24646e-20
ExecutionTime = 41.42 s  ClockTime = 42 s

Time = 0.00705882

Courant Number mean: 0.177704 max: 0.960428
DILUPBiCGStab:  Solving for Ux, Initial residual = 0.00174901, Final residual = 1.21879e-05, No Iterations 5
DILUPBiCGStab:  Solving for Uy, Initial residual = 0.00512423, Final residual = 2.67781e-05, No Iterations 5
DILUPBiCGStab:  Solving for Uz, Initial residual = 0.0165783, Final residual = 0.000216597, No Iterations 5
linear solve U 595622
DICPCG:  Solving for p, Initial residual = 0.141163, Final residual = 9.57172e-07, No Iterations 219
linear solve p 3275176
time step continuity errors : sum local = 4.08104e-10, global = 8.14133e-21, cumulative = 3.06059e-20
DICPCG:  Solving for p, Initial residual = 0.11233, Final residual = 9.71032e-07, No Iterations 218
linear solve p 3301615
time step continuity errors : sum local = 4.12254e-10, global = 1.87166e-21, cumulative = 3.24775e-20
ExecutionTime = 48.94 s  ClockTime = 49 s

Time = 0.00823529

Courant Number mean: 0.178771 max: 0.960686
DILUPBiCGStab:  Solving for Ux, Initial residual = 0.00151459, Final residual = 9.78543e-06, No Iterations 5
DILUPBiCGStab:  Solving for Uy, Initial residual = 0.00444482, Final residual = 2.00497e-05, No Iterations 5
DILUPBiCGStab:  Solving for Uz, Initial residual = 0.0136238, Final residual = 0.000162009, No Iterations 5
linear solve U 598964
DICPCG:  Solving for p, Initial residual = 0.113915, Final residual = 8.71804e-07, No Iterations 218
linear solve p 3327871
time step continuity errors : sum local = 3.69469e-10, global = 5.60496e-21, cumulative = 3.80825e-20
DICPCG:  Solving for p, Initial residual = 0.0918161, Final residual = 9.94037e-07, No Iterations 217
linear solve p 3293050
time step continuity errors : sum local = 4.20995e-10, global = -1.97358e-21, cumulative = 3.61089e-20
ExecutionTime = 56.5 s  ClockTime = 57 s

Time = 0.00941176

Courant Number mean: 0.179753 max: 0.960953
DILUPBiCGStab:  Solving for Ux, Initial residual = 0.00134493, Final residual = 8.39646e-06, No Iterations 5
DILUPBiCGStab:  Solving for Uy, Initial residual = 0.00391848, Final residual = 1.64947e-05, No Iterations 5
DILUPBiCGStab:  Solving for Uz, Initial residual = 0.0115659, Final residual = 0.000123255, No Iterations 5
linear solve U 596634
DICPCG:  Solving for p, Initial residual = 0.0945149, Final residual = 9.91083e-07, No Iterations 216
linear solve p 3237392
time step continuity errors : sum local = 4.0943e-10, global = -1.52566e-20, cumulative = 2.08523e-20
DICPCG:  Solving for p, Initial residual = 0.0770976, Final residual = 8.92066e-07, No Iterations 216
linear solve p 3272924
time step continuity errors : sum local = 3.67847e-10, global = -3.17944e-21, cumulative = 1.76729e-20
ExecutionTime = 63.94 s  ClockTime = 64 s

Time = 0.0105882

Courant Number mean: 0.180649 max: 0.961168
DILUPBiCGStab:  Solving for Ux, Initial residual = 0.00118523, Final residual = 6.9393e-06, No Iterations 5
DILUPBiCGStab:  Solving for Uy, Initial residual = 0.00349491, Final residual = 1.38715e-05, No Iterations 5
DILUPBiCGStab:  Solving for Uz, Initial residual = 0.00963721, Final residual = 8.71784e-05, No Iterations 5
linear solve U 602136
DICPCG:  Solving for p, Initial residual = 0.0786992, Final residual = 8.67943e-07, No Iterations 216
linear solve p 3255445
time step continuity errors : sum local = 3.57085e-10, global = 2.57098e-20, cumulative = 4.33827e-20
DICPCG:  Solving for p, Initial residual = 0.0644981, Final residual = 9.59919e-07, No Iterations 215
linear solve p 3122960
time step continuity errors : sum local = 3.94964e-10, global = 1.90231e-20, cumulative = 6.24058e-20
ExecutionTime = 71.41 s  ClockTime = 72 s

Time = 0.0117647

Courant Number mean: 0.181477 max: 0.961382
DILUPBiCGStab:  Solving for Ux, Initial residual = 0.00107346, Final residual = 6.1224e-06, No Iterations 5
DILUPBiCGStab:  Solving for Uy, Initial residual = 0.00312587, Final residual = 1.24614e-05, No Iterations 5
DILUPBiCGStab:  Solving for Uz, Initial residual = 0.00836432, Final residual = 6.596e-05, No Iterations 5
linear solve U 592441
DICPCG:  Solving for p, Initial residual = 0.0658927, Final residual = 8.88903e-07, No Iterations 209
linear solve p 3064241
time step continuity errors : sum local = 3.60921e-10, global = -1.28954e-20, cumulative = 4.95104e-20
DICPCG:  Solving for p, Initial residual = 0.0542651, Final residual = 8.16368e-07, No Iterations 209
linear solve p 3081268
time step continuity errors : sum local = 3.31158e-10, global = -9.15516e-21, cumulative = 4.03552e-20
ExecutionTime = 78.5 s  ClockTime = 79 s

End

