/*---------------------------------------------------------------------------*\
  =========                 |
  \\      /  F ield         | OpenFOAM: The Open Source CFD Toolbox
   \\    /   O peration     | Website:  https://openfoam.org
    \\  /    A nd           | Version:  8
     \\/     M anipulation  |
\*---------------------------------------------------------------------------*/
Build  : 8-ef60d22ea792
Exec   : icoFoam
Date   : Sep 15 2021
Time   : 15:04:51
Host   : "uc2n482.localdomain"
PID    : 3660247
I/O    : uncollated
Case   : /pfs/data5/home/kit/scc/nq7776/data/code/OBR/lidDrivenCavity3D/Variation_init/100/Variation_mesh/55/Variation_matrix_solver/IR_NoPrecond_CUDA/Variation_innerReductionFactor/0.1/1631711083
nProcs : 1
sigFpe : Enabling floating point exception trapping (FOAM_SIGFPE).
fileModificationChecking : Monitoring run-time modified files using timeStampMaster (fileModificationSkew 10)
allowSystemOperations : Allowing user-supplied system call operations

// * * * * * * * * * * * * * * * * * * * * * * * * * * * * * * * * * * * * * //
Create time

Create mesh for time = 0

Reading transportProperties

Reading field p

Reading field U

Reading/calculating face flux field phi


Starting time loop

Time = 0.00181818

Courant Number mean: 0.170885 max: 0.951813
DILUPBiCGStab:  Solving for Ux, Initial residual = 0.0617772, Final residual = 8.17367e-05, No Iterations 5
DILUPBiCGStab:  Solving for Uy, Initial residual = 0.127918, Final residual = 0.000176819, No Iterations 5
DILUPBiCGStab:  Solving for Uz, Initial residual = 0.177193, Final residual = 0.000215685, No Iterations 5
linear solve U 162095
[OGL LOG] init_host_sparsity_pattern : 49 ms
[OGL LOG] matrix not stored update host matrix
[OGL LOG] update_host_mtx : 26 ms
[OGL LOG] matrix is not yet sorted, compute sorting idxs
[OGL LOG] compute_sort : 1446 ms
[OGL LOG] matrix is not yet sorted, sorting host matrix
[OGL LOG] sort_host_mtx_sparsity_pattern : 34 ms
[OGL LOG] sort_host_mtx : 18 ms
[OGL LOG] init_preconditioner : 0 ms
[OGL LOG] solve : 97 ms
nonecudaGKOIR:  Solving for p, Initial residual = 0.614449, Final residual = 3.47525e-07, No Iterations 7
linear solve p 2446210
time step continuity errors : sum local = 5.72849e-10, global = -2.48523e-20, cumulative = -2.48523e-20
[OGL LOG] init_preconditioner : 0 ms
[OGL LOG] solve : 99 ms
nonecudaGKOIR:  Solving for p, Initial residual = 0.429359, Final residual = 2.25897e-07, No Iterations 7
linear solve p 104992
time step continuity errors : sum local = 2.60397e-10, global = 1.01579e-20, cumulative = -1.46944e-20
ExecutionTime = 3.57 s  ClockTime = 3 s

Time = 0.00363636

Courant Number mean: 0.173201 max: 0.938447
DILUPBiCGStab:  Solving for Ux, Initial residual = 0.008036, Final residual = 1.32171e-05, No Iterations 5
DILUPBiCGStab:  Solving for Uy, Initial residual = 0.0187993, Final residual = 2.49187e-05, No Iterations 5
DILUPBiCGStab:  Solving for Uz, Initial residual = 0.0434193, Final residual = 0.000133401, No Iterations 5
linear solve U 147450
[OGL LOG] init_preconditioner : 0 ms
[OGL LOG] solve : 96 ms
nonecudaGKOIR:  Solving for p, Initial residual = 0.309262, Final residual = 8.35721e-07, No Iterations 6
linear solve p 101666
time step continuity errors : sum local = 3.77465e-07, global = 2.28824e-20, cumulative = 8.18801e-21
[OGL LOG] init_preconditioner : 0 ms
[OGL LOG] solve : 89 ms
nonecudaGKOIR:  Solving for p, Initial residual = 0.196346, Final residual = 4.28991e-07, No Iterations 6
linear solve p 95056
time step continuity errors : sum local = 3.64554e-07, global = -1.35961e-19, cumulative = -1.27773e-19
ExecutionTime = 4.01 s  ClockTime = 4 s

Time = 0.00545455

Courant Number mean: 0.175253 max: 0.938256
DILUPBiCGStab:  Solving for Ux, Initial residual = 0.00374957, Final residual = 1.01144e-05, No Iterations 5
DILUPBiCGStab:  Solving for Uy, Initial residual = 0.00920304, Final residual = 1.43024e-05, No Iterations 5
DILUPBiCGStab:  Solving for Uz, Initial residual = 0.0232243, Final residual = 5.76208e-05, No Iterations 5
linear solve U 151856
[OGL LOG] init_preconditioner : 0 ms
[OGL LOG] solve : 95 ms
nonecudaGKOIR:  Solving for p, Initial residual = 0.17123, Final residual = 3.6103e-07, No Iterations 6
linear solve p 101112
time step continuity errors : sum local = 3.66304e-07, global = 5.87368e-20, cumulative = -6.90363e-20
[OGL LOG] init_preconditioner : 0 ms
[OGL LOG] solve : 96 ms
nonecudaGKOIR:  Solving for p, Initial residual = 0.116656, Final residual = 2.49123e-07, No Iterations 6
linear solve p 101975
time step continuity errors : sum local = 3.63137e-07, global = -2.45124e-20, cumulative = -9.35486e-20
ExecutionTime = 4.45 s  ClockTime = 4 s

Time = 0.00727273

Courant Number mean: 0.177048 max: 0.938779
DILUPBiCGStab:  Solving for Ux, Initial residual = 0.00266586, Final residual = 6.46365e-06, No Iterations 5
DILUPBiCGStab:  Solving for Uy, Initial residual = 0.00703995, Final residual = 1.01548e-05, No Iterations 5
DILUPBiCGStab:  Solving for Uz, Initial residual = 0.0168311, Final residual = 3.42175e-05, No Iterations 5
linear solve U 146818
[OGL LOG] init_preconditioner : 0 ms
[OGL LOG] solve : 95 ms
nonecudaGKOIR:  Solving for p, Initial residual = 0.103548, Final residual = 1.58419e-07, No Iterations 6
linear solve p 100790
time step continuity errors : sum local = 3.61193e-07, global = 6.56152e-21, cumulative = -8.69871e-20
[OGL LOG] init_preconditioner : 0 ms
[OGL LOG] solve : 95 ms
nonecudaGKOIR:  Solving for p, Initial residual = 0.072917, Final residual = 1.50131e-07, No Iterations 6
linear solve p 100166
time step continuity errors : sum local = 3.63064e-07, global = -2.57047e-20, cumulative = -1.12692e-19
ExecutionTime = 4.89 s  ClockTime = 4 s

Time = 0.00909091

Courant Number mean: 0.178659 max: 0.939358
DILUPBiCGStab:  Solving for Ux, Initial residual = 0.00214454, Final residual = 4.47707e-06, No Iterations 5
DILUPBiCGStab:  Solving for Uy, Initial residual = 0.00554028, Final residual = 7.69188e-06, No Iterations 5
DILUPBiCGStab:  Solving for Uz, Initial residual = 0.0120081, Final residual = 2.15332e-05, No Iterations 5
linear solve U 145285
[OGL LOG] init_preconditioner : 0 ms
[OGL LOG] solve : 94 ms
nonecudaGKOIR:  Solving for p, Initial residual = 0.0676794, Final residual = 1.20934e-07, No Iterations 6
linear solve p 100139
time step continuity errors : sum local = 3.64373e-07, global = 2.84249e-21, cumulative = -1.09849e-19
[OGL LOG] init_preconditioner : 0 ms
[OGL LOG] solve : 83 ms
nonecudaGKOIR:  Solving for p, Initial residual = 0.0494704, Final residual = 9.41584e-07, No Iterations 5
linear solve p 88452
time step continuity errors : sum local = 3.63529e-07, global = 1.26013e-20, cumulative = -9.7248e-20
ExecutionTime = 5.33 s  ClockTime = 5 s

Time = 0.0109091

Courant Number mean: 0.180069 max: 0.939963
DILUPBiCGStab:  Solving for Ux, Initial residual = 0.00177179, Final residual = 2.99532e-06, No Iterations 5
DILUPBiCGStab:  Solving for Uy, Initial residual = 0.00472599, Final residual = 5.80064e-06, No Iterations 5
DILUPBiCGStab:  Solving for Uz, Initial residual = 0.0101111, Final residual = 1.58978e-05, No Iterations 5
linear solve U 149580
[OGL LOG] init_preconditioner : 0 ms
[OGL LOG] solve : 84 ms
nonecudaGKOIR:  Solving for p, Initial residual = 0.0441861, Final residual = 7.89409e-07, No Iterations 5
linear solve p 89732
time step continuity errors : sum local = 3.62694e-07, global = 9.06336e-21, cumulative = -8.81846e-20
[OGL LOG] init_preconditioner : 0 ms
[OGL LOG] solve : 85 ms
nonecudaGKOIR:  Solving for p, Initial residual = 0.0330918, Final residual = 6.08861e-07, No Iterations 5
linear solve p 90275
time step continuity errors : sum local = 3.6326e-07, global = -1.60349e-20, cumulative = -1.0422e-19
ExecutionTime = 5.75 s  ClockTime = 5 s

Time = 0.0127273

Courant Number mean: 0.181311 max: 0.940375
DILUPBiCGStab:  Solving for Ux, Initial residual = 0.00150047, Final residual = 1.86631e-06, No Iterations 5
DILUPBiCGStab:  Solving for Uy, Initial residual = 0.0039784, Final residual = 3.93473e-06, No Iterations 5
DILUPBiCGStab:  Solving for Uz, Initial residual = 0.00797177, Final residual = 1.14661e-05, No Iterations 5
linear solve U 149644
[OGL LOG] init_preconditioner : 0 ms
[OGL LOG] solve : 80 ms
nonecudaGKOIR:  Solving for p, Initial residual = 0.0312975, Final residual = 4.92266e-07, No Iterations 5
linear solve p 85944
time step continuity errors : sum local = 3.63594e-07, global = 3.86291e-20, cumulative = -6.55904e-20
[OGL LOG] init_preconditioner : 0 ms
[OGL LOG] solve : 80 ms
nonecudaGKOIR:  Solving for p, Initial residual = 0.0239646, Final residual = 3.6739e-07, No Iterations 5
linear solve p 85825
time step continuity errors : sum local = 3.6323e-07, global = 1.91774e-20, cumulative = -4.6413e-20
ExecutionTime = 6.15 s  ClockTime = 6 s

Time = 0.0145455

Courant Number mean: 0.182406 max: 0.940818
DILUPBiCGStab:  Solving for Ux, Initial residual = 0.00128519, Final residual = 1.12757e-06, No Iterations 5
DILUPBiCGStab:  Solving for Uy, Initial residual = 0.00349043, Final residual = 2.55929e-06, No Iterations 5
DILUPBiCGStab:  Solving for Uz, Initial residual = 0.00694217, Final residual = 8.6877e-06, No Iterations 5
linear solve U 148755
[OGL LOG] init_preconditioner : 0 ms
[OGL LOG] solve : 80 ms
nonecudaGKOIR:  Solving for p, Initial residual = 0.0214645, Final residual = 3.30069e-07, No Iterations 5
linear solve p 85996
time step continuity errors : sum local = 3.62967e-07, global = -2.19466e-21, cumulative = -4.86076e-20
[OGL LOG] init_preconditioner : 0 ms
[OGL LOG] solve : 86 ms
nonecudaGKOIR:  Solving for p, Initial residual = 0.0167056, Final residual = 2.66937e-07, No Iterations 5
linear solve p 91704
time step continuity errors : sum local = 3.63151e-07, global = -2.50017e-20, cumulative = -7.36093e-20
ExecutionTime = 6.57 s  ClockTime = 6 s

Time = 0.0163636

Courant Number mean: 0.183372 max: 0.941134
DILUPBiCGStab:  Solving for Ux, Initial residual = 0.00111634, Final residual = 7.08792e-07, No Iterations 5
DILUPBiCGStab:  Solving for Uy, Initial residual = 0.00301004, Final residual = 1.58188e-06, No Iterations 5
DILUPBiCGStab:  Solving for Uz, Initial residual = 0.00577386, Final residual = 6.12642e-06, No Iterations 5
linear solve U 150379
[OGL LOG] init_preconditioner : 0 ms
[OGL LOG] solve : 83 ms
nonecudaGKOIR:  Solving for p, Initial residual = 0.0158733, Final residual = 2.52594e-07, No Iterations 5
linear solve p 88448
time step continuity errors : sum local = 3.63256e-07, global = 3.73484e-20, cumulative = -3.62609e-20
[OGL LOG] init_preconditioner : 0 ms
[OGL LOG] solve : 87 ms
nonecudaGKOIR:  Solving for p, Initial residual = 0.0125519, Final residual = 1.71885e-07, No Iterations 5
linear solve p 92029
time step continuity errors : sum local = 3.63146e-07, global = -3.40062e-20, cumulative = -7.02672e-20
ExecutionTime = 7 s  ClockTime = 7 s

Time = 0.0181818

Courant Number mean: 0.18423 max: 0.941454
DILUPBiCGStab:  Solving for Ux, Initial residual = 0.000969237, Final residual = 5.33078e-07, No Iterations 5
DILUPBiCGStab:  Solving for Uy, Initial residual = 0.00267677, Final residual = 1.09401e-06, No Iterations 5
DILUPBiCGStab:  Solving for Uz, Initial residual = 0.00508097, Final residual = 5.09054e-06, No Iterations 5
linear solve U 146802
[OGL LOG] init_preconditioner : 0 ms
[OGL LOG] solve : 86 ms
nonecudaGKOIR:  Solving for p, Initial residual = 0.0112643, Final residual = 1.76348e-07, No Iterations 5
linear solve p 92101
time step continuity errors : sum local = 3.63058e-07, global = 1.35146e-20, cumulative = -5.67525e-20
[OGL LOG] init_preconditioner : 0 ms
[OGL LOG] solve : 80 ms
nonecudaGKOIR:  Solving for p, Initial residual = 0.00902493, Final residual = 1.26336e-07, No Iterations 5
linear solve p 85219
time step continuity errors : sum local = 3.63117e-07, global = 7.59662e-21, cumulative = -4.91559e-20
ExecutionTime = 7.42 s  ClockTime = 7 s

End

