/*---------------------------------------------------------------------------*\
  =========                 |
  \\      /  F ield         | OpenFOAM: The Open Source CFD Toolbox
   \\    /   O peration     | Website:  https://openfoam.org
    \\  /    A nd           | Version:  8
     \\/     M anipulation  |
\*---------------------------------------------------------------------------*/
Build  : 8-ef60d22ea792
Exec   : icoFoam
Date   : Sep 15 2021
Time   : 13:47:54
Host   : "uc2n438.localdomain"
PID    : 3545164
I/O    : uncollated
Case   : /pfs/data5/home/kit/scc/nq7776/data/code/OBR/lidDrivenCavity3D/Variation_init/100/Variation_mesh/30/Variation_matrix_solver/CG_NoPrecond_Serial/1631706474
nProcs : 1
sigFpe : Enabling floating point exception trapping (FOAM_SIGFPE).
fileModificationChecking : Monitoring run-time modified files using timeStampMaster (fileModificationSkew 10)
allowSystemOperations : Allowing user-supplied system call operations

// * * * * * * * * * * * * * * * * * * * * * * * * * * * * * * * * * * * * * //
Create time

Create mesh for time = 0

Reading transportProperties

Reading field p

Reading field U

Reading/calculating face flux field phi


Starting time loop

Time = 0.00333333

Courant Number mean: 0.169907 max: 0.893517
DILUPBiCGStab:  Solving for Ux, Initial residual = 0.0911511, Final residual = 3.95829e-06, No Iterations 5
DILUPBiCGStab:  Solving for Uy, Initial residual = 0.158672, Final residual = 5.65407e-06, No Iterations 5
DILUPBiCGStab:  Solving for Uz, Initial residual = 0.266117, Final residual = 9.88141e-06, No Iterations 5
linear solve U 20929
nonePCG:  Solving for p, Initial residual = 0.542954, Final residual = 8.765e-07, No Iterations 250
linear solve p 62556
time step continuity errors : sum local = 4.09647e-09, global = 8.21288e-21, cumulative = 8.21288e-21
nonePCG:  Solving for p, Initial residual = 0.318921, Final residual = 9.22748e-07, No Iterations 249
linear solve p 62886
time step continuity errors : sum local = 2.83317e-09, global = -4.42551e-20, cumulative = -3.60423e-20
ExecutionTime = 0.32 s  ClockTime = 1 s

Time = 0.00666667

Courant Number mean: 0.173776 max: 0.888266
DILUPBiCGStab:  Solving for Ux, Initial residual = 0.0119482, Final residual = 2.97167e-06, No Iterations 5
DILUPBiCGStab:  Solving for Uy, Initial residual = 0.0223252, Final residual = 3.40217e-06, No Iterations 5
DILUPBiCGStab:  Solving for Uz, Initial residual = 0.0596879, Final residual = 5.25438e-06, No Iterations 5
linear solve U 19133
nonePCG:  Solving for p, Initial residual = 0.156725, Final residual = 8.82635e-07, No Iterations 243
linear solve p 62229
time step continuity errors : sum local = 2.64727e-09, global = 8.38856e-20, cumulative = 4.78433e-20
nonePCG:  Solving for p, Initial residual = 0.0960189, Final residual = 9.20004e-07, No Iterations 240
linear solve p 59925
time step continuity errors : sum local = 2.76197e-09, global = 3.13568e-20, cumulative = 7.92001e-20
ExecutionTime = 0.48 s  ClockTime = 1 s

Time = 0.01

Courant Number mean: 0.176716 max: 0.888542
DILUPBiCGStab:  Solving for Ux, Initial residual = 0.00409269, Final residual = 6.70162e-07, No Iterations 5
DILUPBiCGStab:  Solving for Uy, Initial residual = 0.00964184, Final residual = 1.18554e-06, No Iterations 5
DILUPBiCGStab:  Solving for Uz, Initial residual = 0.02324, Final residual = 3.07835e-06, No Iterations 5
linear solve U 18433
nonePCG:  Solving for p, Initial residual = 0.0542639, Final residual = 9.36857e-07, No Iterations 236
linear solve p 61350
time step continuity errors : sum local = 2.75752e-09, global = -1.9964e-20, cumulative = 5.92361e-20
nonePCG:  Solving for p, Initial residual = 0.036236, Final residual = 9.54415e-07, No Iterations 233
linear solve p 58988
time step continuity errors : sum local = 2.82071e-09, global = -2.14992e-20, cumulative = 3.77369e-20
ExecutionTime = 0.63 s  ClockTime = 1 s

Time = 0.0133333

Courant Number mean: 0.179156 max: 0.890256
DILUPBiCGStab:  Solving for Ux, Initial residual = 0.00297516, Final residual = 3.25937e-07, No Iterations 5
DILUPBiCGStab:  Solving for Uy, Initial residual = 0.00703794, Final residual = 6.19808e-07, No Iterations 5
DILUPBiCGStab:  Solving for Uz, Initial residual = 0.0128678, Final residual = 1.19845e-06, No Iterations 5
linear solve U 18778
nonePCG:  Solving for p, Initial residual = 0.0253438, Final residual = 8.98769e-07, No Iterations 231
linear solve p 58152
time step continuity errors : sum local = 2.61441e-09, global = -6.49177e-21, cumulative = 3.12451e-20
nonePCG:  Solving for p, Initial residual = 0.0181693, Final residual = 9.61913e-07, No Iterations 229
linear solve p 59335
time step continuity errors : sum local = 2.79202e-09, global = 4.66894e-21, cumulative = 3.59141e-20
ExecutionTime = 0.77 s  ClockTime = 1 s

Time = 0.0166667

Courant Number mean: 0.181129 max: 0.891457
DILUPBiCGStab:  Solving for Ux, Initial residual = 0.00228112, Final residual = 2.37425e-07, No Iterations 5
DILUPBiCGStab:  Solving for Uy, Initial residual = 0.0053428, Final residual = 4.69052e-07, No Iterations 5
DILUPBiCGStab:  Solving for Uz, Initial residual = 0.00928259, Final residual = 5.64919e-07, No Iterations 5
linear solve U 18774
nonePCG:  Solving for p, Initial residual = 0.0142901, Final residual = 8.72437e-07, No Iterations 227
linear solve p 57575
time step continuity errors : sum local = 2.53922e-09, global = -2.904e-20, cumulative = 6.87406e-21
nonePCG:  Solving for p, Initial residual = 0.0104768, Final residual = 9.00513e-07, No Iterations 225
linear solve p 56407
time step continuity errors : sum local = 2.62507e-09, global = -3.85729e-20, cumulative = -3.16989e-20
ExecutionTime = 0.92 s  ClockTime = 1 s

Time = 0.02

Courant Number mean: 0.182723 max: 0.892519
DILUPBiCGStab:  Solving for Ux, Initial residual = 0.00179239, Final residual = 1.43051e-07, No Iterations 5
DILUPBiCGStab:  Solving for Uy, Initial residual = 0.00435022, Final residual = 3.47733e-07, No Iterations 5
DILUPBiCGStab:  Solving for Uz, Initial residual = 0.00736121, Final residual = 4.40013e-07, No Iterations 5
linear solve U 18416
nonePCG:  Solving for p, Initial residual = 0.00820783, Final residual = 8.83229e-07, No Iterations 224
linear solve p 56335
time step continuity errors : sum local = 2.56761e-09, global = -9.48121e-20, cumulative = -1.26511e-19
nonePCG:  Solving for p, Initial residual = 0.00653623, Final residual = 9.67543e-07, No Iterations 222
linear solve p 56636
time step continuity errors : sum local = 2.81214e-09, global = -9.13286e-20, cumulative = -2.1784e-19
ExecutionTime = 1.06 s  ClockTime = 2 s

Time = 0.0233333

Courant Number mean: 0.184011 max: 0.893289
DILUPBiCGStab:  Solving for Ux, Initial residual = 0.00143713, Final residual = 1.09331e-07, No Iterations 5
DILUPBiCGStab:  Solving for Uy, Initial residual = 0.00347898, Final residual = 2.43316e-07, No Iterations 5
DILUPBiCGStab:  Solving for Uz, Initial residual = 0.00575626, Final residual = 2.57447e-07, No Iterations 5
linear solve U 18302
nonePCG:  Solving for p, Initial residual = 0.00545468, Final residual = 9.41248e-07, No Iterations 215
linear solve p 53918
time step continuity errors : sum local = 2.74187e-09, global = 1.07726e-19, cumulative = -1.10114e-19
nonePCG:  Solving for p, Initial residual = 0.00442702, Final residual = 9.00894e-07, No Iterations 213
linear solve p 53779
time step continuity errors : sum local = 2.62564e-09, global = -3.74577e-20, cumulative = -1.47571e-19
ExecutionTime = 1.2 s  ClockTime = 2 s

Time = 0.0266667

Courant Number mean: 0.185057 max: 0.893926
DILUPBiCGStab:  Solving for Ux, Initial residual = 0.00115893, Final residual = 5.42526e-08, No Iterations 5
DILUPBiCGStab:  Solving for Uy, Initial residual = 0.00285489, Final residual = 1.87702e-07, No Iterations 5
DILUPBiCGStab:  Solving for Uz, Initial residual = 0.00465599, Final residual = 2.31874e-07, No Iterations 5
linear solve U 18192
nonePCG:  Solving for p, Initial residual = 0.00385776, Final residual = 8.88161e-07, No Iterations 210
linear solve p 52673
time step continuity errors : sum local = 2.58426e-09, global = -9.45197e-20, cumulative = -2.42091e-19
nonePCG:  Solving for p, Initial residual = 0.00327617, Final residual = 8.46149e-07, No Iterations 209
linear solve p 52224
time step continuity errors : sum local = 2.46251e-09, global = -3.07445e-20, cumulative = -2.72835e-19
ExecutionTime = 1.34 s  ClockTime = 2 s

Time = 0.03

Courant Number mean: 0.185908 max: 0.894414
DILUPBiCGStab:  Solving for Ux, Initial residual = 0.00094261, Final residual = 5.13917e-08, No Iterations 5
DILUPBiCGStab:  Solving for Uy, Initial residual = 0.00232451, Final residual = 1.38013e-07, No Iterations 5
DILUPBiCGStab:  Solving for Uz, Initial residual = 0.00370666, Final residual = 1.7076e-07, No Iterations 5
linear solve U 18278
nonePCG:  Solving for p, Initial residual = 0.00291721, Final residual = 9.43129e-07, No Iterations 207
linear solve p 52326
time step continuity errors : sum local = 2.74427e-09, global = -2.42758e-19, cumulative = -5.15594e-19
nonePCG:  Solving for p, Initial residual = 0.00251603, Final residual = 8.58325e-07, No Iterations 206
linear solve p 51329
time step continuity errors : sum local = 2.49809e-09, global = -8.57901e-20, cumulative = -6.01384e-19
ExecutionTime = 1.47 s  ClockTime = 2 s

Time = 0.0333333

Courant Number mean: 0.186602 max: 0.894809
DILUPBiCGStab:  Solving for Ux, Initial residual = 0.000767521, Final residual = 2.95388e-08, No Iterations 5
DILUPBiCGStab:  Solving for Uy, Initial residual = 0.001914, Final residual = 1.2634e-07, No Iterations 5
DILUPBiCGStab:  Solving for Uz, Initial residual = 0.00299526, Final residual = 1.45872e-07, No Iterations 5
linear solve U 18427
nonePCG:  Solving for p, Initial residual = 0.0022569, Final residual = 9.65411e-07, No Iterations 203
linear solve p 51286
time step continuity errors : sum local = 2.81043e-09, global = -7.52159e-20, cumulative = -6.766e-19
nonePCG:  Solving for p, Initial residual = 0.0019804, Final residual = 9.75337e-07, No Iterations 199
linear solve p 50866
time step continuity errors : sum local = 2.8396e-09, global = 1.17246e-19, cumulative = -5.59354e-19
ExecutionTime = 1.6 s  ClockTime = 2 s

End

