/*---------------------------------------------------------------------------*\
  =========                 |
  \\      /  F ield         | OpenFOAM: The Open Source CFD Toolbox
   \\    /   O peration     | Website:  https://openfoam.org
    \\  /    A nd           | Version:  8
     \\/     M anipulation  |
\*---------------------------------------------------------------------------*/
Build  : 8-ef60d22ea792
Exec   : icoFoam
Date   : Sep 15 2021
Time   : 14:31:53
Host   : "uc2n438.localdomain"
PID    : 3550949
I/O    : uncollated
Case   : /pfs/data5/home/kit/scc/nq7776/data/code/OBR/lidDrivenCavity3D/Variation_init/100/Variation_mesh/50/Variation_matrix_solver/BiCGStab_DIC_Serial/1631709109
nProcs : 1
sigFpe : Enabling floating point exception trapping (FOAM_SIGFPE).
fileModificationChecking : Monitoring run-time modified files using timeStampMaster (fileModificationSkew 10)
allowSystemOperations : Allowing user-supplied system call operations

// * * * * * * * * * * * * * * * * * * * * * * * * * * * * * * * * * * * * * //
Create time

Create mesh for time = 0

Reading transportProperties

Reading field p

Reading field U

Reading/calculating face flux field phi


Starting time loop

Time = 0.002

Courant Number mean: 0.171832 max: 0.950949
DILUPBiCGStab:  Solving for Ux, Initial residual = 0.170437, Final residual = 6.82397e-05, No Iterations 5
DILUPBiCGStab:  Solving for Uy, Initial residual = 0.34992, Final residual = 0.000142663, No Iterations 5
DILUPBiCGStab:  Solving for Uz, Initial residual = 0.557699, Final residual = 0.000189983, No Iterations 5
linear solve U 118690
DICPBiCGStab:  Solving for p, Initial residual = 0.678275, Final residual = 8.47463e-07, No Iterations 95
linear solve p 505882
time step continuity errors : sum local = 2.57821e-09, global = 1.50082e-20, cumulative = 1.50082e-20
DICPBiCGStab:  Solving for p, Initial residual = 0.413581, Final residual = 7.65588e-07, No Iterations 96
linear solve p 513867
time step continuity errors : sum local = 1.35386e-09, global = -1.9752e-20, cumulative = -4.74382e-21
ExecutionTime = 1.79 s  ClockTime = 2 s

Time = 0.004

Courant Number mean: 0.174856 max: 0.932415
DILUPBiCGStab:  Solving for Ux, Initial residual = 0.0115938, Final residual = 2.67523e-05, No Iterations 5
DILUPBiCGStab:  Solving for Uy, Initial residual = 0.0268869, Final residual = 4.92452e-05, No Iterations 5
DILUPBiCGStab:  Solving for Uz, Initial residual = 0.112848, Final residual = 0.000158046, No Iterations 5
linear solve U 106972
DICPBiCGStab:  Solving for p, Initial residual = 0.327333, Final residual = 9.89308e-07, No Iterations 98
linear solve p 521686
time step continuity errors : sum local = 1.9472e-09, global = -8.16823e-20, cumulative = -8.64261e-20
DICPBiCGStab:  Solving for p, Initial residual = 0.243052, Final residual = 9.37699e-07, No Iterations 103
linear solve p 551926
time step continuity errors : sum local = 1.70596e-09, global = 2.40005e-20, cumulative = -6.24256e-20
ExecutionTime = 3.03 s  ClockTime = 3 s

Time = 0.006

Courant Number mean: 0.176822 max: 0.934845
DILUPBiCGStab:  Solving for Ux, Initial residual = 0.00529415, Final residual = 9.8509e-06, No Iterations 5
DILUPBiCGStab:  Solving for Uy, Initial residual = 0.0102213, Final residual = 2.29777e-05, No Iterations 5
DILUPBiCGStab:  Solving for Uz, Initial residual = 0.048521, Final residual = 7.72481e-05, No Iterations 5
linear solve U 105907
DICPBiCGStab:  Solving for p, Initial residual = 0.17444, Final residual = 7.52483e-07, No Iterations 105
linear solve p 562380
time step continuity errors : sum local = 9.57204e-10, global = -4.35651e-20, cumulative = -1.05991e-19
DICPBiCGStab:  Solving for p, Initial residual = 0.13308, Final residual = 7.43334e-07, No Iterations 99
linear solve p 532087
time step continuity errors : sum local = 1.09255e-09, global = 6.7244e-20, cumulative = -3.87468e-20
ExecutionTime = 4.29 s  ClockTime = 5 s

Time = 0.008

Courant Number mean: 0.178238 max: 0.93336
DILUPBiCGStab:  Solving for Ux, Initial residual = 0.00289624, Final residual = 5.56928e-06, No Iterations 5
DILUPBiCGStab:  Solving for Uy, Initial residual = 0.00786197, Final residual = 1.00854e-05, No Iterations 5
DILUPBiCGStab:  Solving for Uz, Initial residual = 0.0260408, Final residual = 3.95538e-05, No Iterations 5
linear solve U 106938
DICPBiCGStab:  Solving for p, Initial residual = 0.105333, Final residual = 9.25648e-07, No Iterations 96
linear solve p 508357
time step continuity errors : sum local = 1.14708e-09, global = 8.49502e-21, cumulative = -3.02517e-20
DICPBiCGStab:  Solving for p, Initial residual = 0.0812457, Final residual = 7.9743e-07, No Iterations 98
linear solve p 520690
time step continuity errors : sum local = 9.69971e-10, global = -2.88899e-20, cumulative = -5.91416e-20
ExecutionTime = 5.48 s  ClockTime = 6 s

Time = 0.01

Courant Number mean: 0.179753 max: 0.934099
DILUPBiCGStab:  Solving for Ux, Initial residual = 0.0022717, Final residual = 4.01325e-06, No Iterations 5
DILUPBiCGStab:  Solving for Uy, Initial residual = 0.00526767, Final residual = 5.88348e-06, No Iterations 5
DILUPBiCGStab:  Solving for Uz, Initial residual = 0.0148899, Final residual = 2.08008e-05, No Iterations 5
linear solve U 106315
DICPBiCGStab:  Solving for p, Initial residual = 0.0676296, Final residual = 9.21732e-07, No Iterations 99
linear solve p 526532
time step continuity errors : sum local = 1.07816e-09, global = -7.63606e-20, cumulative = -1.35502e-19
DICPBiCGStab:  Solving for p, Initial residual = 0.0517231, Final residual = 9.72944e-07, No Iterations 94
linear solve p 499871
time step continuity errors : sum local = 1.1223e-09, global = 4.83771e-20, cumulative = -8.71251e-20
ExecutionTime = 6.68 s  ClockTime = 7 s

Time = 0.012

Courant Number mean: 0.181051 max: 0.934597
DILUPBiCGStab:  Solving for Ux, Initial residual = 0.00175511, Final residual = 1.90439e-06, No Iterations 5
DILUPBiCGStab:  Solving for Uy, Initial residual = 0.00453368, Final residual = 4.02367e-06, No Iterations 5
DILUPBiCGStab:  Solving for Uz, Initial residual = 0.0115091, Final residual = 1.25779e-05, No Iterations 5
linear solve U 106141
DICPBiCGStab:  Solving for p, Initial residual = 0.0446864, Final residual = 7.42935e-07, No Iterations 94
linear solve p 499799
time step continuity errors : sum local = 8.56027e-10, global = 4.4919e-20, cumulative = -4.22061e-20
DICPBiCGStab:  Solving for p, Initial residual = 0.0343815, Final residual = 9.39444e-07, No Iterations 91
linear solve p 486612
time step continuity errors : sum local = 1.08305e-09, global = 3.14483e-20, cumulative = -1.07578e-20
ExecutionTime = 7.83 s  ClockTime = 8 s

Time = 0.014

Courant Number mean: 0.182225 max: 0.934959
DILUPBiCGStab:  Solving for Ux, Initial residual = 0.00149061, Final residual = 9.86661e-07, No Iterations 5
DILUPBiCGStab:  Solving for Uy, Initial residual = 0.00373637, Final residual = 1.80249e-06, No Iterations 5
DILUPBiCGStab:  Solving for Uz, Initial residual = 0.00819605, Final residual = 8.45511e-06, No Iterations 5
linear solve U 105049
DICPBiCGStab:  Solving for p, Initial residual = 0.0303523, Final residual = 3.12061e-07, No Iterations 81
linear solve p 435321
time step continuity errors : sum local = 3.94567e-10, global = -1.42248e-20, cumulative = -2.49825e-20
DICPBiCGStab:  Solving for p, Initial residual = 0.0232701, Final residual = 2.81456e-07, No Iterations 82
linear solve p 439800
time step continuity errors : sum local = 3.42278e-10, global = -4.11016e-20, cumulative = -6.60842e-20
ExecutionTime = 8.88 s  ClockTime = 9 s

Time = 0.016

Courant Number mean: 0.183255 max: 0.935383
DILUPBiCGStab:  Solving for Ux, Initial residual = 0.00125115, Final residual = 4.13985e-07, No Iterations 5
DILUPBiCGStab:  Solving for Uy, Initial residual = 0.00326813, Final residual = 1.01006e-06, No Iterations 5
DILUPBiCGStab:  Solving for Uz, Initial residual = 0.0068569, Final residual = 6.24937e-06, No Iterations 5
linear solve U 106471
DICPBiCGStab:  Solving for p, Initial residual = 0.0207061, Final residual = 6.55057e-07, No Iterations 73
linear solve p 391220
time step continuity errors : sum local = 1.24546e-09, global = 4.79937e-20, cumulative = -1.80905e-20
DICPBiCGStab:  Solving for p, Initial residual = 0.0160377, Final residual = 9.53536e-07, No Iterations 80
linear solve p 427016
time step continuity errors : sum local = 1.17193e-09, global = -8.79428e-20, cumulative = -1.06033e-19
ExecutionTime = 9.87 s  ClockTime = 10 s

Time = 0.018

Courant Number mean: 0.184168 max: 0.935681
DILUPBiCGStab:  Solving for Ux, Initial residual = 0.00108046, Final residual = 3.28403e-07, No Iterations 5
DILUPBiCGStab:  Solving for Uy, Initial residual = 0.00281309, Final residual = 1.01471e-06, No Iterations 5
DILUPBiCGStab:  Solving for Uz, Initial residual = 0.00553735, Final residual = 4.64506e-06, No Iterations 5
linear solve U 106170
DICPBiCGStab:  Solving for p, Initial residual = 0.014468, Final residual = 6.97649e-07, No Iterations 83
linear solve p 446840
time step continuity errors : sum local = 7.78995e-10, global = -4.8378e-20, cumulative = -1.54411e-19
DICPBiCGStab:  Solving for p, Initial residual = 0.0112169, Final residual = 9.58495e-07, No Iterations 75
linear solve p 401166
time step continuity errors : sum local = 1.11058e-09, global = 7.33071e-21, cumulative = -1.4708e-19
ExecutionTime = 10.88 s  ClockTime = 11 s

Time = 0.02

Courant Number mean: 0.184973 max: 0.935987
DILUPBiCGStab:  Solving for Ux, Initial residual = 0.000928504, Final residual = 1.8488e-07, No Iterations 5
DILUPBiCGStab:  Solving for Uy, Initial residual = 0.00248395, Final residual = 5.60931e-07, No Iterations 5
DILUPBiCGStab:  Solving for Uz, Initial residual = 0.00475396, Final residual = 3.35907e-06, No Iterations 5
linear solve U 107648
DICPBiCGStab:  Solving for p, Initial residual = 0.0101812, Final residual = 9.86936e-07, No Iterations 78
linear solve p 416891
time step continuity errors : sum local = 1.19233e-09, global = 6.66449e-21, cumulative = -1.40416e-19
DICPBiCGStab:  Solving for p, Initial residual = 0.00803679, Final residual = 5.88231e-07, No Iterations 86
linear solve p 456825
time step continuity errors : sum local = 6.58729e-10, global = 3.46055e-20, cumulative = -1.0581e-19
ExecutionTime = 11.92 s  ClockTime = 12 s

End

