/*---------------------------------------------------------------------------*\
  =========                 |
  \\      /  F ield         | OpenFOAM: The Open Source CFD Toolbox
   \\    /   O peration     | Website:  https://openfoam.org
    \\  /    A nd           | Version:  8
     \\/     M anipulation  |
\*---------------------------------------------------------------------------*/
Build  : 8-ef60d22ea792
Exec   : icoFoam
Date   : Sep 15 2021
Time   : 13:34:33
Host   : "uc2n482.localdomain"
PID    : 3632606
I/O    : uncollated
Case   : /pfs/data5/home/kit/scc/nq7776/data/code/OBR/lidDrivenCavity3D/Variation_init/100/Variation_mesh/40/Variation_matrix_solver/CG_BJ_CUDA/Variation_maxBlockSize/1/1631705669
nProcs : 1
sigFpe : Enabling floating point exception trapping (FOAM_SIGFPE).
fileModificationChecking : Monitoring run-time modified files using timeStampMaster (fileModificationSkew 10)
allowSystemOperations : Allowing user-supplied system call operations

// * * * * * * * * * * * * * * * * * * * * * * * * * * * * * * * * * * * * * //
Create time

Create mesh for time = 0

Reading transportProperties

Reading field p

Reading field U

Reading/calculating face flux field phi


Starting time loop

Time = 0.0025

Courant Number mean: 0.170274 max: 0.898977
DILUPBiCGStab:  Solving for Ux, Initial residual = 0.0777941, Final residual = 5.00153e-06, No Iterations 5
DILUPBiCGStab:  Solving for Uy, Initial residual = 0.123446, Final residual = 1.39078e-05, No Iterations 5
DILUPBiCGStab:  Solving for Uz, Initial residual = 0.127456, Final residual = 2.53141e-05, No Iterations 5
linear solve U 54378
[OGL LOG] init_host_sparsity_pattern : 17 ms
[OGL LOG] matrix not stored update host matrix
[OGL LOG] update_host_mtx : 9 ms
[OGL LOG] matrix is not yet sorted, compute sorting idxs
[OGL LOG] compute_sort : 500 ms
[OGL LOG] matrix is not yet sorted, sorting host matrix
[OGL LOG] sort_host_mtx_sparsity_pattern : 12 ms
[OGL LOG] sort_host_mtx : 7 ms
[OGL LOG] init_preconditioner : 0 ms
[OGL LOG] solve : 45 ms
BJcudaGKOCG:  Solving for p, Initial residual = 0.406972, Final residual = 9.14416e-07, No Iterations 317
linear solve p 1358932
time step continuity errors : sum local = 2.18579e-09, global = -7.44497e-20, cumulative = -7.44497e-20
[OGL LOG] init_preconditioner : 0 ms
[OGL LOG] solve : 44 ms
BJcudaGKOCG:  Solving for p, Initial residual = 0.212572, Final residual = 9.41018e-07, No Iterations 315
linear solve p 45867
time step continuity errors : sum local = 1.80898e-09, global = 9.59186e-20, cumulative = 2.14688e-20
ExecutionTime = 1.79 s  ClockTime = 2 s

Time = 0.005

Courant Number mean: 0.173472 max: 0.913614
DILUPBiCGStab:  Solving for Ux, Initial residual = 0.00786557, Final residual = 6.97738e-06, No Iterations 5
DILUPBiCGStab:  Solving for Uy, Initial residual = 0.0156864, Final residual = 1.02457e-05, No Iterations 5
DILUPBiCGStab:  Solving for Uz, Initial residual = 0.0331147, Final residual = 1.79202e-05, No Iterations 5
linear solve U 46584
[OGL LOG] init_preconditioner : 0 ms
[OGL LOG] solve : 44 ms
BJcudaGKOCG:  Solving for p, Initial residual = 0.14666, Final residual = 8.73803e-07, No Iterations 313
linear solve p 46025
time step continuity errors : sum local = 6.66657e-07, global = -4.02816e-20, cumulative = -1.88128e-20
[OGL LOG] init_preconditioner : 0 ms
[OGL LOG] solve : 43 ms
BJcudaGKOCG:  Solving for p, Initial residual = 0.104783, Final residual = 9.92173e-07, No Iterations 310
linear solve p 44903
time step continuity errors : sum local = 6.28441e-07, global = -8.9397e-20, cumulative = -1.0821e-19
ExecutionTime = 1.96 s  ClockTime = 2 s

Time = 0.0075

Courant Number mean: 0.17602 max: 0.915376
DILUPBiCGStab:  Solving for Ux, Initial residual = 0.00346379, Final residual = 3.3083e-06, No Iterations 5
DILUPBiCGStab:  Solving for Uy, Initial residual = 0.00930355, Final residual = 5.9157e-06, No Iterations 5
DILUPBiCGStab:  Solving for Uz, Initial residual = 0.0178885, Final residual = 9.63473e-06, No Iterations 5
linear solve U 45667
[OGL LOG] init_preconditioner : 0 ms
[OGL LOG] solve : 46 ms
BJcudaGKOCG:  Solving for p, Initial residual = 0.0595671, Final residual = 9.25325e-07, No Iterations 307
linear solve p 48758
time step continuity errors : sum local = 6.1708e-07, global = 6.48251e-20, cumulative = -4.33847e-20
[OGL LOG] init_preconditioner : 0 ms
[OGL LOG] solve : 42 ms
BJcudaGKOCG:  Solving for p, Initial residual = 0.0435591, Final residual = 9.03584e-07, No Iterations 305
linear solve p 44054
time step continuity errors : sum local = 6.2566e-07, global = 2.09483e-20, cumulative = -2.24364e-20
ExecutionTime = 2.13 s  ClockTime = 2 s

Time = 0.01

Courant Number mean: 0.178224 max: 0.9168
DILUPBiCGStab:  Solving for Ux, Initial residual = 0.00264592, Final residual = 1.07535e-06, No Iterations 5
DILUPBiCGStab:  Solving for Uy, Initial residual = 0.00688019, Final residual = 2.61731e-06, No Iterations 5
DILUPBiCGStab:  Solving for Uz, Initial residual = 0.0130781, Final residual = 5.09732e-06, No Iterations 5
linear solve U 48244
[OGL LOG] init_preconditioner : 0 ms
[OGL LOG] solve : 41 ms
BJcudaGKOCG:  Solving for p, Initial residual = 0.0322275, Final residual = 8.88197e-07, No Iterations 299
linear solve p 42868
time step continuity errors : sum local = 6.2881e-07, global = -2.36853e-20, cumulative = -4.61216e-20
[OGL LOG] init_preconditioner : 0 ms
[OGL LOG] solve : 40 ms
BJcudaGKOCG:  Solving for p, Initial residual = 0.0246124, Final residual = 9.16693e-07, No Iterations 297
linear solve p 42449
time step continuity errors : sum local = 6.26177e-07, global = -5.33071e-20, cumulative = -9.94288e-20
ExecutionTime = 2.3 s  ClockTime = 2 s

Time = 0.0125

Courant Number mean: 0.180054 max: 0.917664
DILUPBiCGStab:  Solving for Ux, Initial residual = 0.00210909, Final residual = 6.87231e-07, No Iterations 5
DILUPBiCGStab:  Solving for Uy, Initial residual = 0.00541049, Final residual = 9.63149e-07, No Iterations 5
DILUPBiCGStab:  Solving for Uz, Initial residual = 0.00995472, Final residual = 2.78767e-06, No Iterations 5
linear solve U 47667
[OGL LOG] init_preconditioner : 0 ms
[OGL LOG] solve : 40 ms
BJcudaGKOCG:  Solving for p, Initial residual = 0.0202267, Final residual = 8.36333e-07, No Iterations 287
linear solve p 41748
time step continuity errors : sum local = 6.25124e-07, global = -3.34739e-20, cumulative = -1.32903e-19
[OGL LOG] init_preconditioner : 0 ms
[OGL LOG] solve : 39 ms
BJcudaGKOCG:  Solving for p, Initial residual = 0.0155687, Final residual = 9.13979e-07, No Iterations 285
linear solve p 41444
time step continuity errors : sum local = 6.25989e-07, global = 3.43668e-20, cumulative = -9.85359e-20
ExecutionTime = 2.46 s  ClockTime = 2 s

Time = 0.015

Courant Number mean: 0.181609 max: 0.918509
DILUPBiCGStab:  Solving for Ux, Initial residual = 0.00174189, Final residual = 3.58532e-07, No Iterations 5
DILUPBiCGStab:  Solving for Uy, Initial residual = 0.0045755, Final residual = 8.59273e-07, No Iterations 5
DILUPBiCGStab:  Solving for Uz, Initial residual = 0.00838437, Final residual = 2.26863e-06, No Iterations 5
linear solve U 50628
[OGL LOG] init_preconditioner : 0 ms
[OGL LOG] solve : 40 ms
BJcudaGKOCG:  Solving for p, Initial residual = 0.0124375, Final residual = 9.58315e-07, No Iterations 285
linear solve p 42563
time step continuity errors : sum local = 6.26421e-07, global = -9.53222e-21, cumulative = -1.08068e-19
[OGL LOG] init_preconditioner : 0 ms
[OGL LOG] solve : 39 ms
BJcudaGKOCG:  Solving for p, Initial residual = 0.00997427, Final residual = 9.79679e-07, No Iterations 283
linear solve p 41033
time step continuity errors : sum local = 6.26142e-07, global = -3.54871e-20, cumulative = -1.43555e-19
ExecutionTime = 2.62 s  ClockTime = 3 s

Time = 0.0175

Courant Number mean: 0.182919 max: 0.919116
DILUPBiCGStab:  Solving for Ux, Initial residual = 0.0014591, Final residual = 2.82604e-07, No Iterations 5
DILUPBiCGStab:  Solving for Uy, Initial residual = 0.00377368, Final residual = 5.34905e-07, No Iterations 5
DILUPBiCGStab:  Solving for Uz, Initial residual = 0.00672712, Final residual = 1.3267e-06, No Iterations 5
linear solve U 47693
[OGL LOG] init_preconditioner : 0 ms
[OGL LOG] solve : 40 ms
BJcudaGKOCG:  Solving for p, Initial residual = 0.00873885, Final residual = 9.96449e-07, No Iterations 290
linear solve p 41715
time step continuity errors : sum local = 6.26034e-07, global = 2.01315e-20, cumulative = -1.23424e-19
[OGL LOG] init_preconditioner : 0 ms
[OGL LOG] solve : 39 ms
BJcudaGKOCG:  Solving for p, Initial residual = 0.00701607, Final residual = 9.4682e-07, No Iterations 289
linear solve p 40760
time step continuity errors : sum local = 6.26073e-07, global = -6.21874e-20, cumulative = -1.85611e-19
ExecutionTime = 2.79 s  ClockTime = 3 s

Time = 0.02

Courant Number mean: 0.184033 max: 0.919668
DILUPBiCGStab:  Solving for Ux, Initial residual = 0.00122818, Final residual = 1.57052e-07, No Iterations 5
DILUPBiCGStab:  Solving for Uy, Initial residual = 0.00323104, Final residual = 5.21894e-07, No Iterations 5
DILUPBiCGStab:  Solving for Uz, Initial residual = 0.00573411, Final residual = 1.18046e-06, No Iterations 5
linear solve U 47557
[OGL LOG] init_preconditioner : 0 ms
[OGL LOG] solve : 37 ms
BJcudaGKOCG:  Solving for p, Initial residual = 0.00585668, Final residual = 9.71862e-07, No Iterations 279
linear solve p 39652
time step continuity errors : sum local = 6.26197e-07, global = 4.86331e-21, cumulative = -1.80748e-19
[OGL LOG] init_preconditioner : 0 ms
[OGL LOG] solve : 40 ms
BJcudaGKOCG:  Solving for p, Initial residual = 0.00491693, Final residual = 9.77216e-07, No Iterations 277
linear solve p 42833
time step continuity errors : sum local = 6.26138e-07, global = -9.55187e-21, cumulative = -1.903e-19
ExecutionTime = 2.95 s  ClockTime = 3 s

Time = 0.0225

Courant Number mean: 0.184978 max: 0.920092
DILUPBiCGStab:  Solving for Ux, Initial residual = 0.0010412, Final residual = 1.36358e-07, No Iterations 5
DILUPBiCGStab:  Solving for Uy, Initial residual = 0.00272319, Final residual = 3.78229e-07, No Iterations 5
DILUPBiCGStab:  Solving for Uz, Initial residual = 0.00472912, Final residual = 8.71579e-07, No Iterations 5
linear solve U 47444
[OGL LOG] init_preconditioner : 0 ms
[OGL LOG] solve : 39 ms
BJcudaGKOCG:  Solving for p, Initial residual = 0.00445735, Final residual = 9.80655e-07, No Iterations 284
linear solve p 40748
time step continuity errors : sum local = 6.26132e-07, global = -1.27355e-20, cumulative = -2.03035e-19
[OGL LOG] init_preconditioner : 0 ms
[OGL LOG] solve : 38 ms
BJcudaGKOCG:  Solving for p, Initial residual = 0.00379331, Final residual = 9.29678e-07, No Iterations 283
linear solve p 40234
time step continuity errors : sum local = 6.26038e-07, global = -5.75004e-20, cumulative = -2.60536e-19
ExecutionTime = 3.11 s  ClockTime = 3 s

Time = 0.025

Courant Number mean: 0.185785 max: 0.920464
DILUPBiCGStab:  Solving for Ux, Initial residual = 0.000884709, Final residual = 9.17932e-08, No Iterations 5
DILUPBiCGStab:  Solving for Uy, Initial residual = 0.00233885, Final residual = 4.80339e-07, No Iterations 5
DILUPBiCGStab:  Solving for Uz, Initial residual = 0.00402002, Final residual = 7.57557e-07, No Iterations 5
linear solve U 47546
[OGL LOG] init_preconditioner : 0 ms
[OGL LOG] solve : 37 ms
BJcudaGKOCG:  Solving for p, Initial residual = 0.00328341, Final residual = 9.61089e-07, No Iterations 275
linear solve p 38863
time step continuity errors : sum local = 6.26159e-07, global = -3.34227e-20, cumulative = -2.93958e-19
[OGL LOG] init_preconditioner : 0 ms
[OGL LOG] solve : 37 ms
BJcudaGKOCG:  Solving for p, Initial residual = 0.00288907, Final residual = 9.34339e-07, No Iterations 274
linear solve p 39335
time step continuity errors : sum local = 6.26078e-07, global = 4.69135e-20, cumulative = -2.47045e-19
ExecutionTime = 3.27 s  ClockTime = 3 s

End

