/*---------------------------------------------------------------------------*\
  =========                 |
  \\      /  F ield         | OpenFOAM: The Open Source CFD Toolbox
   \\    /   O peration     | Website:  https://openfoam.org
    \\  /    A nd           | Version:  8
     \\/     M anipulation  |
\*---------------------------------------------------------------------------*/
Build  : 8-ef60d22ea792
Exec   : icoFoam
Date   : Sep 15 2021
Time   : 14:37:26
Host   : "uc2n438.localdomain"
PID    : 3552724
I/O    : uncollated
Case   : /pfs/data5/home/kit/scc/nq7776/data/code/OBR/lidDrivenCavity3D/Variation_init/100/Variation_mesh/45/Variation_matrix_solver/CG_DIC_Serial/1631709443
nProcs : 1
sigFpe : Enabling floating point exception trapping (FOAM_SIGFPE).
fileModificationChecking : Monitoring run-time modified files using timeStampMaster (fileModificationSkew 10)
allowSystemOperations : Allowing user-supplied system call operations

// * * * * * * * * * * * * * * * * * * * * * * * * * * * * * * * * * * * * * //
Create time

Create mesh for time = 0

Reading transportProperties

Reading field p

Reading field U

Reading/calculating face flux field phi


Starting time loop

Time = 0.00222222

Courant Number mean: 0.170285 max: 0.902434
DILUPBiCGStab:  Solving for Ux, Initial residual = 0.0600451, Final residual = 2.42115e-05, No Iterations 5
DILUPBiCGStab:  Solving for Uy, Initial residual = 0.101107, Final residual = 1.64927e-05, No Iterations 5
DILUPBiCGStab:  Solving for Uz, Initial residual = 0.144668, Final residual = 0.000113434, No Iterations 5
linear solve U 80946
DICPCG:  Solving for p, Initial residual = 0.445921, Final residual = 7.34876e-07, No Iterations 117
linear solve p 207391
time step continuity errors : sum local = 1.41769e-09, global = 8.54999e-20, cumulative = 8.54999e-20
DICPCG:  Solving for p, Initial residual = 0.209273, Final residual = 9.37735e-07, No Iterations 116
linear solve p 206483
time step continuity errors : sum local = 1.69678e-09, global = 1.73163e-20, cumulative = 1.02816e-19
ExecutionTime = 1 s  ClockTime = 1 s

Time = 0.00444444

Courant Number mean: 0.173241 max: 0.921781
DILUPBiCGStab:  Solving for Ux, Initial residual = 0.00744611, Final residual = 1.04882e-05, No Iterations 5
DILUPBiCGStab:  Solving for Uy, Initial residual = 0.0150051, Final residual = 1.68833e-05, No Iterations 5
DILUPBiCGStab:  Solving for Uz, Initial residual = 0.0406467, Final residual = 2.96347e-05, No Iterations 5
linear solve U 72050
DICPCG:  Solving for p, Initial residual = 0.233953, Final residual = 9.21147e-07, No Iterations 116
linear solve p 205419
time step continuity errors : sum local = 1.40696e-09, global = 9.01334e-21, cumulative = 1.1183e-19
DICPCG:  Solving for p, Initial residual = 0.158034, Final residual = 7.4787e-07, No Iterations 116
linear solve p 205370
time step continuity errors : sum local = 1.07837e-09, global = -5.03119e-20, cumulative = 6.15177e-20
ExecutionTime = 1.53 s  ClockTime = 1 s

Time = 0.00666667

Courant Number mean: 0.175661 max: 0.924366
DILUPBiCGStab:  Solving for Ux, Initial residual = 0.00368604, Final residual = 5.79921e-06, No Iterations 5
DILUPBiCGStab:  Solving for Uy, Initial residual = 0.0102538, Final residual = 7.95868e-06, No Iterations 5
DILUPBiCGStab:  Solving for Uz, Initial residual = 0.0226449, Final residual = 2.15054e-05, No Iterations 5
linear solve U 71026
DICPCG:  Solving for p, Initial residual = 0.106745, Final residual = 6.89031e-07, No Iterations 115
linear solve p 204445
time step continuity errors : sum local = 9.84146e-10, global = 3.2418e-20, cumulative = 9.39357e-20
DICPCG:  Solving for p, Initial residual = 0.0729871, Final residual = 8.7066e-07, No Iterations 114
linear solve p 204258
time step continuity errors : sum local = 1.25442e-09, global = 5.28309e-20, cumulative = 1.46767e-19
ExecutionTime = 2.05 s  ClockTime = 2 s

Time = 0.00888889

Courant Number mean: 0.177777 max: 0.925692
DILUPBiCGStab:  Solving for Ux, Initial residual = 0.00273591, Final residual = 3.43255e-06, No Iterations 5
DILUPBiCGStab:  Solving for Uy, Initial residual = 0.00710532, Final residual = 5.1715e-06, No Iterations 5
DILUPBiCGStab:  Solving for Uz, Initial residual = 0.0145875, Final residual = 1.12274e-05, No Iterations 5
linear solve U 72276
DICPCG:  Solving for p, Initial residual = 0.0560368, Final residual = 8.97723e-07, No Iterations 112
linear solve p 200036
time step continuity errors : sum local = 1.22515e-09, global = 1.07981e-20, cumulative = 1.57565e-19
DICPCG:  Solving for p, Initial residual = 0.0405408, Final residual = 7.52895e-07, No Iterations 112
linear solve p 200412
time step continuity errors : sum local = 1.01933e-09, global = -6.77269e-20, cumulative = 8.98377e-20
ExecutionTime = 2.57 s  ClockTime = 2 s

Time = 0.0111111

Courant Number mean: 0.17953 max: 0.926453
DILUPBiCGStab:  Solving for Ux, Initial residual = 0.00210454, Final residual = 1.66694e-06, No Iterations 5
DILUPBiCGStab:  Solving for Uy, Initial residual = 0.00555226, Final residual = 4.2744e-06, No Iterations 5
DILUPBiCGStab:  Solving for Uz, Initial residual = 0.010604, Final residual = 6.99901e-06, No Iterations 5
linear solve U 71000
DICPCG:  Solving for p, Initial residual = 0.0326097, Final residual = 9.03347e-07, No Iterations 110
linear solve p 195265
time step continuity errors : sum local = 1.22968e-09, global = 9.58589e-21, cumulative = 9.94236e-20
DICPCG:  Solving for p, Initial residual = 0.0239556, Final residual = 9.13487e-07, No Iterations 109
linear solve p 194305
time step continuity errors : sum local = 1.24771e-09, global = -2.36011e-20, cumulative = 7.58225e-20
ExecutionTime = 3.07 s  ClockTime = 3 s

Time = 0.0133333

Courant Number mean: 0.181052 max: 0.927195
DILUPBiCGStab:  Solving for Ux, Initial residual = 0.00174473, Final residual = 7.88448e-07, No Iterations 5
DILUPBiCGStab:  Solving for Uy, Initial residual = 0.0046706, Final residual = 2.53078e-06, No Iterations 5
DILUPBiCGStab:  Solving for Uz, Initial residual = 0.00888826, Final residual = 4.8738e-06, No Iterations 5
linear solve U 71361
DICPCG:  Solving for p, Initial residual = 0.019281, Final residual = 9.44314e-07, No Iterations 104
linear solve p 184216
time step continuity errors : sum local = 1.27508e-09, global = -6.89967e-20, cumulative = 6.82585e-21
DICPCG:  Solving for p, Initial residual = 0.0146893, Final residual = 8.95226e-07, No Iterations 102
linear solve p 181727
time step continuity errors : sum local = 1.20698e-09, global = 7.41307e-20, cumulative = 8.09566e-20
ExecutionTime = 3.55 s  ClockTime = 3 s

Time = 0.0155556

Courant Number mean: 0.182348 max: 0.927738
DILUPBiCGStab:  Solving for Ux, Initial residual = 0.00145624, Final residual = 5.98799e-07, No Iterations 5
DILUPBiCGStab:  Solving for Uy, Initial residual = 0.00386488, Final residual = 9.45889e-07, No Iterations 5
DILUPBiCGStab:  Solving for Uz, Initial residual = 0.00707129, Final residual = 3.08946e-06, No Iterations 5
linear solve U 70937
DICPCG:  Solving for p, Initial residual = 0.0129808, Final residual = 9.43385e-07, No Iterations 106
linear solve p 188462
time step continuity errors : sum local = 1.27395e-09, global = -4.40156e-20, cumulative = 3.69409e-20
DICPCG:  Solving for p, Initial residual = 0.0100511, Final residual = 8.38533e-07, No Iterations 106
linear solve p 188466
time step continuity errors : sum local = 1.13349e-09, global = -1.66134e-20, cumulative = 2.03275e-20
ExecutionTime = 4.05 s  ClockTime = 4 s

Time = 0.0177778

Courant Number mean: 0.183468 max: 0.928243
DILUPBiCGStab:  Solving for Ux, Initial residual = 0.00124484, Final residual = 3.91208e-07, No Iterations 5
DILUPBiCGStab:  Solving for Uy, Initial residual = 0.00335558, Final residual = 8.72115e-07, No Iterations 5
DILUPBiCGStab:  Solving for Uz, Initial residual = 0.0061273, Final residual = 2.50608e-06, No Iterations 5
linear solve U 71483
DICPCG:  Solving for p, Initial residual = 0.00832669, Final residual = 9.69921e-07, No Iterations 103
linear solve p 182554
time step continuity errors : sum local = 1.30674e-09, global = 9.46907e-21, cumulative = 2.97966e-20
DICPCG:  Solving for p, Initial residual = 0.00670231, Final residual = 8.85433e-07, No Iterations 103
linear solve p 183060
time step continuity errors : sum local = 1.19254e-09, global = -3.45954e-20, cumulative = -4.79886e-21
ExecutionTime = 4.53 s  ClockTime = 4 s

Time = 0.02

Courant Number mean: 0.184432 max: 0.928634
DILUPBiCGStab:  Solving for Ux, Initial residual = 0.00106309, Final residual = 2.55304e-07, No Iterations 5
DILUPBiCGStab:  Solving for Uy, Initial residual = 0.00285201, Final residual = 6.42359e-07, No Iterations 5
DILUPBiCGStab:  Solving for Uz, Initial residual = 0.00507726, Final residual = 1.71342e-06, No Iterations 5
linear solve U 71980
DICPCG:  Solving for p, Initial residual = 0.00625649, Final residual = 9.68003e-07, No Iterations 104
linear solve p 184783
time step continuity errors : sum local = 1.30522e-09, global = -4.10091e-20, cumulative = -4.5808e-20
DICPCG:  Solving for p, Initial residual = 0.00510633, Final residual = 8.66604e-07, No Iterations 104
linear solve p 185560
time step continuity errors : sum local = 1.16897e-09, global = -1.07211e-20, cumulative = -5.65291e-20
ExecutionTime = 5.01 s  ClockTime = 5 s

Time = 0.0222222

Courant Number mean: 0.185269 max: 0.928986
DILUPBiCGStab:  Solving for Ux, Initial residual = 0.00091942, Final residual = 1.84659e-07, No Iterations 5
DILUPBiCGStab:  Solving for Uy, Initial residual = 0.00248929, Final residual = 6.63722e-07, No Iterations 5
DILUPBiCGStab:  Solving for Uz, Initial residual = 0.00439856, Final residual = 1.47827e-06, No Iterations 5
linear solve U 71091
DICPCG:  Solving for p, Initial residual = 0.00426509, Final residual = 9.89303e-07, No Iterations 102
linear solve p 181054
time step continuity errors : sum local = 1.33303e-09, global = -1.92874e-20, cumulative = -7.58165e-20
DICPCG:  Solving for p, Initial residual = 0.00363078, Final residual = 9.10703e-07, No Iterations 102
linear solve p 181571
time step continuity errors : sum local = 1.22708e-09, global = 2.10639e-20, cumulative = -5.47526e-20
ExecutionTime = 5.49 s  ClockTime = 5 s

End

