/*---------------------------------------------------------------------------*\
  =========                 |
  \\      /  F ield         | OpenFOAM: The Open Source CFD Toolbox
   \\    /   O peration     | Website:  https://openfoam.org
    \\  /    A nd           | Version:  8
     \\/     M anipulation  |
\*---------------------------------------------------------------------------*/
Build  : 8-ef60d22ea792
Exec   : icoFoam
Date   : Sep 15 2021
Time   : 14:19:20
Host   : "uc2n438.localdomain"
PID    : 3549070
I/O    : uncollated
Case   : /pfs/data5/home/kit/scc/nq7776/data/code/OBR/lidDrivenCavity3D/Variation_init/100/Variation_mesh/80/Variation_matrix_solver/CG_NoPrecond_Serial/1631708335
nProcs : 1
sigFpe : Enabling floating point exception trapping (FOAM_SIGFPE).
fileModificationChecking : Monitoring run-time modified files using timeStampMaster (fileModificationSkew 10)
allowSystemOperations : Allowing user-supplied system call operations

// * * * * * * * * * * * * * * * * * * * * * * * * * * * * * * * * * * * * * //
Create time

Create mesh for time = 0

Reading transportProperties

Reading field p

Reading field U

Reading/calculating face flux field phi


Starting time loop

Time = 0.00125

Courant Number mean: 0.170872 max: 0.956305
DILUPBiCGStab:  Solving for Ux, Initial residual = 0.0907333, Final residual = 0.00013873, No Iterations 5
DILUPBiCGStab:  Solving for Uy, Initial residual = 0.175752, Final residual = 0.000395244, No Iterations 5
DILUPBiCGStab:  Solving for Uz, Initial residual = 0.2223, Final residual = 0.000391641, No Iterations 5
linear solve U 535941
nonePCG:  Solving for p, Initial residual = 0.619793, Final residual = 9.75393e-07, No Iterations 661
linear solve p 4374343
time step continuity errors : sum local = 8.05541e-10, global = 3.23786e-20, cumulative = 3.23786e-20
nonePCG:  Solving for p, Initial residual = 0.305886, Final residual = 9.24472e-07, No Iterations 661
linear solve p 4702968
time step continuity errors : sum local = 6.0963e-10, global = 1.9416e-20, cumulative = 5.17946e-20
ExecutionTime = 12.2 s  ClockTime = 12 s

Time = 0.0025

Courant Number mean: 0.172587 max: 0.956625
DILUPBiCGStab:  Solving for Ux, Initial residual = 0.00609836, Final residual = 2.52818e-05, No Iterations 5
DILUPBiCGStab:  Solving for Uy, Initial residual = 0.0152778, Final residual = 8.344e-05, No Iterations 5
DILUPBiCGStab:  Solving for Uz, Initial residual = 0.0343273, Final residual = 0.00045514, No Iterations 5
linear solve U 487089
nonePCG:  Solving for p, Initial residual = 0.304274, Final residual = 9.85067e-07, No Iterations 662
linear solve p 4728526
time step continuity errors : sum local = 5.32602e-10, global = 6.14905e-21, cumulative = 5.79437e-20
nonePCG:  Solving for p, Initial residual = 0.186322, Final residual = 9.64435e-07, No Iterations 660
linear solve p 4689868
time step continuity errors : sum local = 4.88246e-10, global = 2.65213e-20, cumulative = 8.4465e-20
ExecutionTime = 22.38 s  ClockTime = 23 s

Time = 0.00375

Courant Number mean: 0.174167 max: 0.956979
DILUPBiCGStab:  Solving for Ux, Initial residual = 0.00272598, Final residual = 1.98755e-05, No Iterations 5
DILUPBiCGStab:  Solving for Uy, Initial residual = 0.00797024, Final residual = 4.87061e-05, No Iterations 5
DILUPBiCGStab:  Solving for Uz, Initial residual = 0.0231325, Final residual = 0.000236733, No Iterations 5
linear solve U 492244
nonePCG:  Solving for p, Initial residual = 0.175567, Final residual = 9.89168e-07, No Iterations 659
linear solve p 4691143
time step continuity errors : sum local = 4.94278e-10, global = 2.38414e-20, cumulative = 1.08306e-19
nonePCG:  Solving for p, Initial residual = 0.12846, Final residual = 9.67958e-07, No Iterations 656
linear solve p 4688450
time step continuity errors : sum local = 4.79535e-10, global = -5.42965e-21, cumulative = 1.02877e-19
ExecutionTime = 32.52 s  ClockTime = 33 s

Time = 0.005

Courant Number mean: 0.175607 max: 0.957347
DILUPBiCGStab:  Solving for Ux, Initial residual = 0.00209246, Final residual = 1.42153e-05, No Iterations 5
DILUPBiCGStab:  Solving for Uy, Initial residual = 0.00664966, Final residual = 3.32688e-05, No Iterations 5
DILUPBiCGStab:  Solving for Uz, Initial residual = 0.0198728, Final residual = 0.000186908, No Iterations 5
linear solve U 493252
nonePCG:  Solving for p, Initial residual = 0.131212, Final residual = 9.6016e-07, No Iterations 649
linear solve p 4615031
time step continuity errors : sum local = 4.48683e-10, global = 2.20934e-21, cumulative = 1.05086e-19
nonePCG:  Solving for p, Initial residual = 0.103887, Final residual = 9.48562e-07, No Iterations 647
linear solve p 4572183
time step continuity errors : sum local = 4.39794e-10, global = -3.15572e-20, cumulative = 7.35289e-20
ExecutionTime = 42.46 s  ClockTime = 43 s

Time = 0.00625

Courant Number mean: 0.176919 max: 0.957715
DILUPBiCGStab:  Solving for Ux, Initial residual = 0.00180829, Final residual = 1.12386e-05, No Iterations 5
DILUPBiCGStab:  Solving for Uy, Initial residual = 0.00546609, Final residual = 2.38204e-05, No Iterations 5
DILUPBiCGStab:  Solving for Uz, Initial residual = 0.0155364, Final residual = 0.000136073, No Iterations 5
linear solve U 486476
nonePCG:  Solving for p, Initial residual = 0.102549, Final residual = 9.91921e-07, No Iterations 644
linear solve p 4601006
time step continuity errors : sum local = 4.65207e-10, global = -8.6911e-21, cumulative = 6.48378e-20
nonePCG:  Solving for p, Initial residual = 0.0820802, Final residual = 9.54833e-07, No Iterations 642
linear solve p 4560729
time step continuity errors : sum local = 4.49316e-10, global = 3.21939e-20, cumulative = 9.70317e-20
ExecutionTime = 52.38 s  ClockTime = 53 s

Time = 0.0075

Courant Number mean: 0.178117 max: 0.95808
DILUPBiCGStab:  Solving for Ux, Initial residual = 0.00156866, Final residual = 9.33987e-06, No Iterations 5
DILUPBiCGStab:  Solving for Uy, Initial residual = 0.00480638, Final residual = 1.8335e-05, No Iterations 5
DILUPBiCGStab:  Solving for Uz, Initial residual = 0.0133349, Final residual = 9.97632e-05, No Iterations 5
linear solve U 492071
nonePCG:  Solving for p, Initial residual = 0.0841114, Final residual = 9.77538e-07, No Iterations 638
linear solve p 4546700
time step continuity errors : sum local = 4.47393e-10, global = -2.75382e-20, cumulative = 6.94935e-20
nonePCG:  Solving for p, Initial residual = 0.068229, Final residual = 9.43857e-07, No Iterations 636
linear solve p 4546996
time step continuity errors : sum local = 4.30604e-10, global = -4.2798e-20, cumulative = 2.66956e-20
ExecutionTime = 62.23 s  ClockTime = 63 s

Time = 0.00875

Courant Number mean: 0.179203 max: 0.958354
DILUPBiCGStab:  Solving for Ux, Initial residual = 0.00137905, Final residual = 7.58936e-06, No Iterations 5
DILUPBiCGStab:  Solving for Uy, Initial residual = 0.00418592, Final residual = 1.4932e-05, No Iterations 5
DILUPBiCGStab:  Solving for Uz, Initial residual = 0.0107642, Final residual = 6.68957e-05, No Iterations 5
linear solve U 492223
nonePCG:  Solving for p, Initial residual = 0.0688162, Final residual = 9.41352e-07, No Iterations 602
linear solve p 4282246
time step continuity errors : sum local = 4.31403e-10, global = -6.36906e-21, cumulative = 2.03265e-20
nonePCG:  Solving for p, Initial residual = 0.0558649, Final residual = 9.38588e-07, No Iterations 602
linear solve p 4252246
time step continuity errors : sum local = 4.30868e-10, global = 4.89098e-21, cumulative = 2.52175e-20
ExecutionTime = 71.54 s  ClockTime = 72 s

Time = 0.01

Courant Number mean: 0.180199 max: 0.958646
DILUPBiCGStab:  Solving for Ux, Initial residual = 0.00123653, Final residual = 6.64432e-06, No Iterations 5
DILUPBiCGStab:  Solving for Uy, Initial residual = 0.00372444, Final residual = 1.06854e-05, No Iterations 5
DILUPBiCGStab:  Solving for Uz, Initial residual = 0.00938484, Final residual = 5.1163e-05, No Iterations 5
linear solve U 483940
nonePCG:  Solving for p, Initial residual = 0.0568375, Final residual = 9.68844e-07, No Iterations 630
linear solve p 4495573
time step continuity errors : sum local = 4.38197e-10, global = 6.6649e-21, cumulative = 3.18824e-20
nonePCG:  Solving for p, Initial residual = 0.0464033, Final residual = 9.56041e-07, No Iterations 628
linear solve p 4459995
time step continuity errors : sum local = 4.31748e-10, global = -1.45841e-20, cumulative = 1.72983e-20
ExecutionTime = 81.24 s  ClockTime = 82 s

Time = 0.01125

Courant Number mean: 0.181104 max: 0.958866
DILUPBiCGStab:  Solving for Ux, Initial residual = 0.00109737, Final residual = 5.11556e-06, No Iterations 5
DILUPBiCGStab:  Solving for Uy, Initial residual = 0.0033212, Final residual = 9.68111e-06, No Iterations 5
DILUPBiCGStab:  Solving for Uz, Initial residual = 0.00777921, Final residual = 3.55572e-05, No Iterations 5
linear solve U 492876
nonePCG:  Solving for p, Initial residual = 0.0472001, Final residual = 9.74741e-07, No Iterations 628
linear solve p 4472975
time step continuity errors : sum local = 4.40474e-10, global = -1.98959e-20, cumulative = -2.59758e-21
nonePCG:  Solving for p, Initial residual = 0.0385707, Final residual = 9.35958e-07, No Iterations 627
linear solve p 4478761
time step continuity errors : sum local = 4.23255e-10, global = 2.48554e-20, cumulative = 2.22578e-20
ExecutionTime = 90.96 s  ClockTime = 91 s

Time = 0.0125

Courant Number mean: 0.181936 max: 0.959099
DILUPBiCGStab:  Solving for Ux, Initial residual = 0.000997482, Final residual = 4.78155e-06, No Iterations 5
DILUPBiCGStab:  Solving for Uy, Initial residual = 0.00298584, Final residual = 6.76258e-06, No Iterations 5
DILUPBiCGStab:  Solving for Uz, Initial residual = 0.0069085, Final residual = 2.93966e-05, No Iterations 5
linear solve U 492450
nonePCG:  Solving for p, Initial residual = 0.0390476, Final residual = 9.91766e-07, No Iterations 366
linear solve p 2607314
time step continuity errors : sum local = 4.45634e-10, global = -1.48508e-20, cumulative = 7.40696e-21
nonePCG:  Solving for p, Initial residual = 0.0320096, Final residual = 9.75883e-07, No Iterations 365
linear solve p 2586450
time step continuity errors : sum local = 4.61858e-10, global = 1.54491e-20, cumulative = 2.2856e-20
ExecutionTime = 96.92 s  ClockTime = 97 s

End

