/*---------------------------------------------------------------------------*\
  =========                 |
  \\      /  F ield         | OpenFOAM: The Open Source CFD Toolbox
   \\    /   O peration     | Website:  https://openfoam.org
    \\  /    A nd           | Version:  8
     \\/     M anipulation  |
\*---------------------------------------------------------------------------*/
Build  : 8-ef60d22ea792
Exec   : icoFoam
Date   : Sep 15 2021
Time   : 13:41:06
Host   : "uc2n482.localdomain"
PID    : 3635739
I/O    : uncollated
Case   : /pfs/data5/home/kit/scc/nq7776/data/code/OBR/lidDrivenCavity3D/Variation_init/100/Variation_mesh/65/Variation_matrix_solver/IR_NoPrecond_CUDA/Variation_innerReductionFactor/0.01/1631706054
nProcs : 1
sigFpe : Enabling floating point exception trapping (FOAM_SIGFPE).
fileModificationChecking : Monitoring run-time modified files using timeStampMaster (fileModificationSkew 10)
allowSystemOperations : Allowing user-supplied system call operations

// * * * * * * * * * * * * * * * * * * * * * * * * * * * * * * * * * * * * * //
Create time

Create mesh for time = 0

Reading transportProperties

Reading field p

Reading field U

Reading/calculating face flux field phi


Starting time loop

Time = 0.00153846

Courant Number mean: 0.17093 max: 0.953778
DILUPBiCGStab:  Solving for Ux, Initial residual = 0.112594, Final residual = 8.25037e-05, No Iterations 5
DILUPBiCGStab:  Solving for Uy, Initial residual = 0.214167, Final residual = 0.00019351, No Iterations 5
DILUPBiCGStab:  Solving for Uz, Initial residual = 0.265767, Final residual = 0.000360103, No Iterations 5
linear solve U 275805
[OGL LOG] init_host_sparsity_pattern : 76 ms
[OGL LOG] matrix not stored update host matrix
[OGL LOG] update_host_mtx : 43 ms
[OGL LOG] matrix is not yet sorted, compute sorting idxs
[OGL LOG] compute_sort : 2478 ms
[OGL LOG] matrix is not yet sorted, sorting host matrix
[OGL LOG] sort_host_mtx_sparsity_pattern : 54 ms
[OGL LOG] sort_host_mtx : 29 ms
[OGL LOG] init_preconditioner : 0 ms
[OGL LOG] solve : 132 ms
nonecudaGKOIR:  Solving for p, Initial residual = 0.554571, Final residual = 3.5028e-08, No Iterations 4
linear solve p 3579851
time step continuity errors : sum local = 4.66205e-11, global = -3.54303e-21, cumulative = -3.54303e-21
[OGL LOG] init_preconditioner : 0 ms
[OGL LOG] solve : 143 ms
nonecudaGKOIR:  Solving for p, Initial residual = 0.328964, Final residual = 1.36617e-08, No Iterations 4
linear solve p 151565
time step continuity errors : sum local = 1.10205e-11, global = 7.20639e-21, cumulative = 3.66335e-21
ExecutionTime = 5.46 s  ClockTime = 5 s

Time = 0.00307692

Courant Number mean: 0.173153 max: 0.946981
DILUPBiCGStab:  Solving for Ux, Initial residual = 0.00646103, Final residual = 2.91066e-05, No Iterations 5
DILUPBiCGStab:  Solving for Uy, Initial residual = 0.0152954, Final residual = 6.5873e-05, No Iterations 5
DILUPBiCGStab:  Solving for Uz, Initial residual = 0.0410357, Final residual = 0.000215681, No Iterations 5
linear solve U 257888
[OGL LOG] init_preconditioner : 0 ms
[OGL LOG] solve : 129 ms
nonecudaGKOIR:  Solving for p, Initial residual = 0.25902, Final residual = 5.30985e-07, No Iterations 3
linear solve p 137956
time step continuity errors : sum local = 2.5799e-07, global = -7.61563e-22, cumulative = 2.90179e-21
[OGL LOG] init_preconditioner : 0 ms
[OGL LOG] solve : 123 ms
nonecudaGKOIR:  Solving for p, Initial residual = 0.210446, Final residual = 4.12129e-07, No Iterations 3
linear solve p 132027
time step continuity errors : sum local = 2.4733e-07, global = -1.149e-20, cumulative = -8.58823e-21
ExecutionTime = 6.14 s  ClockTime = 6 s

Time = 0.00461538

Courant Number mean: 0.174968 max: 0.947843
DILUPBiCGStab:  Solving for Ux, Initial residual = 0.00331102, Final residual = 1.28476e-05, No Iterations 5
DILUPBiCGStab:  Solving for Uy, Initial residual = 0.00810303, Final residual = 2.89735e-05, No Iterations 5
DILUPBiCGStab:  Solving for Uz, Initial residual = 0.0238032, Final residual = 0.000136602, No Iterations 5
linear solve U 253809
[OGL LOG] init_preconditioner : 0 ms
[OGL LOG] solve : 127 ms
nonecudaGKOIR:  Solving for p, Initial residual = 0.16804, Final residual = 2.75235e-07, No Iterations 3
linear solve p 135479
time step continuity errors : sum local = 2.46869e-07, global = -1.21587e-20, cumulative = -2.07469e-20
[OGL LOG] init_preconditioner : 0 ms
[OGL LOG] solve : 127 ms
nonecudaGKOIR:  Solving for p, Initial residual = 0.135522, Final residual = 1.97511e-07, No Iterations 3
linear solve p 135683
time step continuity errors : sum local = 2.46144e-07, global = -4.6383e-21, cumulative = -2.53852e-20
ExecutionTime = 6.83 s  ClockTime = 6 s

Time = 0.00615385

Courant Number mean: 0.176518 max: 0.947985
DILUPBiCGStab:  Solving for Ux, Initial residual = 0.00229887, Final residual = 8.4857e-06, No Iterations 5
DILUPBiCGStab:  Solving for Uy, Initial residual = 0.00670342, Final residual = 1.83237e-05, No Iterations 5
DILUPBiCGStab:  Solving for Uz, Initial residual = 0.0192841, Final residual = 8.40693e-05, No Iterations 5
linear solve U 253989
[OGL LOG] init_preconditioner : 0 ms
[OGL LOG] solve : 138 ms
nonecudaGKOIR:  Solving for p, Initial residual = 0.117474, Final residual = 1.75867e-07, No Iterations 3
linear solve p 147331
time step continuity errors : sum local = 2.46481e-07, global = -3.0039e-20, cumulative = -5.54242e-20
[OGL LOG] init_preconditioner : 0 ms
[OGL LOG] solve : 132 ms
nonecudaGKOIR:  Solving for p, Initial residual = 0.0952295, Final residual = 1.30801e-07, No Iterations 3
linear solve p 142393
time step continuity errors : sum local = 2.46341e-07, global = 1.14453e-20, cumulative = -4.39789e-20
ExecutionTime = 7.54 s  ClockTime = 7 s

Time = 0.00769231

Courant Number mean: 0.17797 max: 0.948443
DILUPBiCGStab:  Solving for Ux, Initial residual = 0.0019486, Final residual = 6.60081e-06, No Iterations 5
DILUPBiCGStab:  Solving for Uy, Initial residual = 0.00523607, Final residual = 1.35818e-05, No Iterations 5
DILUPBiCGStab:  Solving for Uz, Initial residual = 0.013723, Final residual = 5.09393e-05, No Iterations 5
linear solve U 257387
[OGL LOG] init_preconditioner : 0 ms
[OGL LOG] solve : 124 ms
nonecudaGKOIR:  Solving for p, Initial residual = 0.0839282, Final residual = 1.02558e-07, No Iterations 3
linear solve p 133308
time step continuity errors : sum local = 2.46544e-07, global = -9.65304e-21, cumulative = -5.36319e-20
[OGL LOG] init_preconditioner : 0 ms
[OGL LOG] solve : 123 ms
nonecudaGKOIR:  Solving for p, Initial residual = 0.0673243, Final residual = 9.08844e-08, No Iterations 3
linear solve p 131823
time step continuity errors : sum local = 2.46266e-07, global = -1.54275e-20, cumulative = -6.90594e-20
ExecutionTime = 8.23 s  ClockTime = 8 s

Time = 0.00923077

Courant Number mean: 0.179261 max: 0.948913
DILUPBiCGStab:  Solving for Ux, Initial residual = 0.00160216, Final residual = 5.24918e-06, No Iterations 5
DILUPBiCGStab:  Solving for Uy, Initial residual = 0.00455729, Final residual = 9.17102e-06, No Iterations 5
DILUPBiCGStab:  Solving for Uz, Initial residual = 0.0115546, Final residual = 3.5779e-05, No Iterations 5
linear solve U 255691
[OGL LOG] init_preconditioner : 0 ms
[OGL LOG] solve : 131 ms
nonecudaGKOIR:  Solving for p, Initial residual = 0.0613603, Final residual = 7.92048e-08, No Iterations 3
linear solve p 139605
time step continuity errors : sum local = 2.46266e-07, global = -2.74338e-21, cumulative = -7.18028e-20
[OGL LOG] init_preconditioner : 0 ms
[OGL LOG] solve : 133 ms
nonecudaGKOIR:  Solving for p, Initial residual = 0.0494897, Final residual = 6.00912e-08, No Iterations 3
linear solve p 142310
time step continuity errors : sum local = 2.46273e-07, global = -2.8988e-20, cumulative = -1.00791e-19
ExecutionTime = 8.93 s  ClockTime = 9 s

Time = 0.0107692

Courant Number mean: 0.180428 max: 0.949219
DILUPBiCGStab:  Solving for Ux, Initial residual = 0.00140692, Final residual = 4.23214e-06, No Iterations 5
DILUPBiCGStab:  Solving for Uy, Initial residual = 0.00391279, Final residual = 6.18743e-06, No Iterations 5
DILUPBiCGStab:  Solving for Uz, Initial residual = 0.00900981, Final residual = 2.49628e-05, No Iterations 5
linear solve U 256520
[OGL LOG] init_preconditioner : 0 ms
[OGL LOG] solve : 131 ms
nonecudaGKOIR:  Solving for p, Initial residual = 0.0453743, Final residual = 5.50844e-08, No Iterations 3
linear solve p 139851
time step continuity errors : sum local = 2.46313e-07, global = -2.76338e-20, cumulative = -1.28425e-19
[OGL LOG] init_preconditioner : 0 ms
[OGL LOG] solve : 129 ms
nonecudaGKOIR:  Solving for p, Initial residual = 0.0363228, Final residual = 4.63268e-08, No Iterations 3
linear solve p 138419
time step continuity errors : sum local = 2.46263e-07, global = -2.07455e-20, cumulative = -1.4917e-19
ExecutionTime = 9.63 s  ClockTime = 9 s

Time = 0.0123077

Courant Number mean: 0.181475 max: 0.949601
DILUPBiCGStab:  Solving for Ux, Initial residual = 0.00121897, Final residual = 3.14195e-06, No Iterations 5
DILUPBiCGStab:  Solving for Uy, Initial residual = 0.00347009, Final residual = 4.46724e-06, No Iterations 5
DILUPBiCGStab:  Solving for Uz, Initial residual = 0.00774256, Final residual = 1.96909e-05, No Iterations 5
linear solve U 255771
[OGL LOG] init_preconditioner : 0 ms
[OGL LOG] solve : 127 ms
nonecudaGKOIR:  Solving for p, Initial residual = 0.033873, Final residual = 4.07724e-08, No Iterations 3
linear solve p 135602
time step continuity errors : sum local = 2.46269e-07, global = 2.02102e-20, cumulative = -1.2896e-19
[OGL LOG] init_preconditioner : 0 ms
[OGL LOG] solve : 129 ms
nonecudaGKOIR:  Solving for p, Initial residual = 0.0272785, Final residual = 3.13801e-08, No Iterations 3
linear solve p 138648
time step continuity errors : sum local = 2.4626e-07, global = 6.75989e-21, cumulative = -1.222e-19
ExecutionTime = 10.33 s  ClockTime = 10 s

Time = 0.0138462

Courant Number mean: 0.182418 max: 0.949852
DILUPBiCGStab:  Solving for Ux, Initial residual = 0.00108409, Final residual = 2.39064e-06, No Iterations 5
DILUPBiCGStab:  Solving for Uy, Initial residual = 0.00306008, Final residual = 3.28909e-06, No Iterations 5
DILUPBiCGStab:  Solving for Uz, Initial residual = 0.00643075, Final residual = 1.61838e-05, No Iterations 5
linear solve U 270126
[OGL LOG] init_preconditioner : 0 ms
[OGL LOG] solve : 127 ms
nonecudaGKOIR:  Solving for p, Initial residual = 0.025484, Final residual = 2.9026e-08, No Iterations 3
linear solve p 137519
time step continuity errors : sum local = 2.46261e-07, global = 5.06656e-20, cumulative = -7.15344e-20
[OGL LOG] init_preconditioner : 0 ms
[OGL LOG] solve : 126 ms
nonecudaGKOIR:  Solving for p, Initial residual = 0.0203995, Final residual = 2.3592e-08, No Iterations 3
linear solve p 135251
time step continuity errors : sum local = 2.46258e-07, global = 1.70943e-20, cumulative = -5.44401e-20
ExecutionTime = 11.05 s  ClockTime = 11 s

Time = 0.0153846

Courant Number mean: 0.183267 max: 0.95014
DILUPBiCGStab:  Solving for Ux, Initial residual = 0.000958928, Final residual = 1.64038e-06, No Iterations 5
DILUPBiCGStab:  Solving for Uy, Initial residual = 0.00274784, Final residual = 2.3266e-06, No Iterations 5
DILUPBiCGStab:  Solving for Uz, Initial residual = 0.00562536, Final residual = 1.26017e-05, No Iterations 5
linear solve U 290095
[OGL LOG] init_preconditioner : 0 ms
[OGL LOG] solve : 126 ms
nonecudaGKOIR:  Solving for p, Initial residual = 0.0193263, Final residual = 2.35901e-08, No Iterations 3
linear solve p 135638
time step continuity errors : sum local = 2.46261e-07, global = -4.15229e-20, cumulative = -9.5963e-20
[OGL LOG] init_preconditioner : 0 ms
[OGL LOG] solve : 127 ms
nonecudaGKOIR:  Solving for p, Initial residual = 0.0156221, Final residual = 1.73126e-08, No Iterations 3
linear solve p 136276
time step continuity errors : sum local = 2.46256e-07, global = 1.58207e-20, cumulative = -8.01423e-20
ExecutionTime = 11.79 s  ClockTime = 11 s

End

