/*---------------------------------------------------------------------------*\
  =========                 |
  \\      /  F ield         | OpenFOAM: The Open Source CFD Toolbox
   \\    /   O peration     | Website:  https://openfoam.org
    \\  /    A nd           | Version:  8
     \\/     M anipulation  |
\*---------------------------------------------------------------------------*/
Build  : 8-ef60d22ea792
Exec   : icoFoam
Date   : Sep 15 2021
Time   : 13:27:37
Host   : "uc2n438.localdomain"
PID    : 3542368
I/O    : uncollated
Case   : /pfs/data5/home/kit/scc/nq7776/data/code/OBR/lidDrivenCavity3D/Variation_init/100/Variation_mesh/25/Variation_matrix_solver/CG_NoPrecond_Serial/1631705256
nProcs : 1
sigFpe : Enabling floating point exception trapping (FOAM_SIGFPE).
fileModificationChecking : Monitoring run-time modified files using timeStampMaster (fileModificationSkew 10)
allowSystemOperations : Allowing user-supplied system call operations

// * * * * * * * * * * * * * * * * * * * * * * * * * * * * * * * * * * * * * //
Create time

Create mesh for time = 0

Reading transportProperties

Reading field p

Reading field U

Reading/calculating face flux field phi


Starting time loop

Time = 0.004

Courant Number mean: 0.169656 max: 0.889609
DILUPBiCGStab:  Solving for Ux, Initial residual = 0.143151, Final residual = 1.76454e-06, No Iterations 5
DILUPBiCGStab:  Solving for Uy, Initial residual = 0.204592, Final residual = 1.77082e-06, No Iterations 5
DILUPBiCGStab:  Solving for Uz, Initial residual = 0.476047, Final residual = 3.97645e-06, No Iterations 5
linear solve U 12165
nonePCG:  Solving for p, Initial residual = 0.578841, Final residual = 9.4639e-07, No Iterations 208
linear solve p 29509
time step continuity errors : sum local = 6.68777e-09, global = 1.41307e-19, cumulative = 1.41307e-19
nonePCG:  Solving for p, Initial residual = 0.27554, Final residual = 8.76507e-07, No Iterations 208
linear solve p 29370
time step continuity errors : sum local = 3.83985e-09, global = -2.91187e-20, cumulative = 1.12188e-19
ExecutionTime = 0.19 s  ClockTime = 0 s

Time = 0.008

Courant Number mean: 0.173868 max: 0.868145
DILUPBiCGStab:  Solving for Ux, Initial residual = 0.0151888, Final residual = 1.22594e-06, No Iterations 5
DILUPBiCGStab:  Solving for Uy, Initial residual = 0.0247674, Final residual = 1.80832e-06, No Iterations 5
DILUPBiCGStab:  Solving for Uz, Initial residual = 0.0887898, Final residual = 3.83175e-06, No Iterations 5
linear solve U 10274
nonePCG:  Solving for p, Initial residual = 0.175259, Final residual = 8.74128e-07, No Iterations 204
linear solve p 28782
time step continuity errors : sum local = 3.73833e-09, global = 4.27409e-20, cumulative = 1.54929e-19
nonePCG:  Solving for p, Initial residual = 0.103203, Final residual = 8.40642e-07, No Iterations 201
linear solve p 29046
time step continuity errors : sum local = 3.57057e-09, global = 2.03675e-19, cumulative = 3.58604e-19
ExecutionTime = 0.26 s  ClockTime = 0 s

Time = 0.012

Courant Number mean: 0.177048 max: 0.867817
DILUPBiCGStab:  Solving for Ux, Initial residual = 0.004692, Final residual = 2.96362e-07, No Iterations 5
DILUPBiCGStab:  Solving for Uy, Initial residual = 0.00998768, Final residual = 4.8143e-07, No Iterations 5
DILUPBiCGStab:  Solving for Uz, Initial residual = 0.0313763, Final residual = 1.53349e-06, No Iterations 5
linear solve U 10405
nonePCG:  Solving for p, Initial residual = 0.0491986, Final residual = 8.44116e-07, No Iterations 197
linear solve p 28299
time step continuity errors : sum local = 3.47272e-09, global = -4.14537e-20, cumulative = 3.1715e-19
nonePCG:  Solving for p, Initial residual = 0.0326556, Final residual = 9.6604e-07, No Iterations 194
linear solve p 28092
time step continuity errors : sum local = 3.98021e-09, global = -3.56149e-20, cumulative = 2.81536e-19
ExecutionTime = 0.34 s  ClockTime = 0 s

Time = 0.016

Courant Number mean: 0.179565 max: 0.869322
DILUPBiCGStab:  Solving for Ux, Initial residual = 0.00314092, Final residual = 1.45463e-07, No Iterations 5
DILUPBiCGStab:  Solving for Uy, Initial residual = 0.00681968, Final residual = 2.60871e-07, No Iterations 5
DILUPBiCGStab:  Solving for Uz, Initial residual = 0.0130987, Final residual = 5.578e-07, No Iterations 5
linear solve U 10371
nonePCG:  Solving for p, Initial residual = 0.0194296, Final residual = 9.73832e-07, No Iterations 179
linear solve p 25432
time step continuity errors : sum local = 3.97834e-09, global = -7.72557e-21, cumulative = 2.7381e-19
nonePCG:  Solving for p, Initial residual = 0.0140387, Final residual = 8.78118e-07, No Iterations 177
linear solve p 25477
time step continuity errors : sum local = 3.58394e-09, global = 1.52313e-19, cumulative = 4.26122e-19
ExecutionTime = 0.4 s  ClockTime = 0 s

Time = 0.02

Courant Number mean: 0.181574 max: 0.870815
DILUPBiCGStab:  Solving for Ux, Initial residual = 0.00232724, Final residual = 9.8182e-08, No Iterations 5
DILUPBiCGStab:  Solving for Uy, Initial residual = 0.00517765, Final residual = 1.35015e-07, No Iterations 5
DILUPBiCGStab:  Solving for Uz, Initial residual = 0.00910617, Final residual = 2.66434e-07, No Iterations 5
linear solve U 10363
nonePCG:  Solving for p, Initial residual = 0.0100117, Final residual = 9.09472e-07, No Iterations 174
linear solve p 25003
time step continuity errors : sum local = 3.71328e-09, global = 4.63646e-20, cumulative = 4.72487e-19
nonePCG:  Solving for p, Initial residual = 0.00751382, Final residual = 9.98987e-07, No Iterations 172
linear solve p 24708
time step continuity errors : sum local = 4.08327e-09, global = -1.84015e-20, cumulative = 4.54086e-19
ExecutionTime = 0.47 s  ClockTime = 0 s

Time = 0.024

Courant Number mean: 0.183143 max: 0.871972
DILUPBiCGStab:  Solving for Ux, Initial residual = 0.0017756, Final residual = 5.93794e-08, No Iterations 5
DILUPBiCGStab:  Solving for Uy, Initial residual = 0.00408246, Final residual = 1.08552e-07, No Iterations 5
DILUPBiCGStab:  Solving for Uz, Initial residual = 0.00675026, Final residual = 1.93359e-07, No Iterations 5
linear solve U 10234
nonePCG:  Solving for p, Initial residual = 0.00619783, Final residual = 8.7263e-07, No Iterations 178
linear solve p 25207
time step continuity errors : sum local = 3.56472e-09, global = -1.30315e-19, cumulative = 3.2377e-19
nonePCG:  Solving for p, Initial residual = 0.00497495, Final residual = 9.29991e-07, No Iterations 176
linear solve p 24937
time step continuity errors : sum local = 3.79963e-09, global = -1.21174e-19, cumulative = 2.02597e-19
ExecutionTime = 0.54 s  ClockTime = 0 s

Time = 0.028

Courant Number mean: 0.184376 max: 0.872837
DILUPBiCGStab:  Solving for Ux, Initial residual = 0.00137931, Final residual = 4.3564e-08, No Iterations 5
DILUPBiCGStab:  Solving for Uy, Initial residual = 0.00321231, Final residual = 3.22475e-08, No Iterations 5
DILUPBiCGStab:  Solving for Uz, Initial residual = 0.00511336, Final residual = 9.32558e-08, No Iterations 5
linear solve U 10131
nonePCG:  Solving for p, Initial residual = 0.0039681, Final residual = 8.48816e-07, No Iterations 171
linear solve p 24256
time step continuity errors : sum local = 3.47009e-09, global = -1.33866e-19, cumulative = 6.8731e-20
nonePCG:  Solving for p, Initial residual = 0.00329325, Final residual = 9.39567e-07, No Iterations 167
linear solve p 23663
time step continuity errors : sum local = 3.84162e-09, global = -8.80217e-20, cumulative = -1.92907e-20
ExecutionTime = 0.6 s  ClockTime = 0 s

Time = 0.032

Courant Number mean: 0.185344 max: 0.873502
DILUPBiCGStab:  Solving for Ux, Initial residual = 0.00107786, Final residual = 2.90228e-08, No Iterations 5
DILUPBiCGStab:  Solving for Uy, Initial residual = 0.00254841, Final residual = 2.92418e-08, No Iterations 5
DILUPBiCGStab:  Solving for Uz, Initial residual = 0.00394617, Final residual = 8.13642e-08, No Iterations 5
linear solve U 10434
nonePCG:  Solving for p, Initial residual = 0.00303654, Final residual = 9.14326e-07, No Iterations 166
linear solve p 25460
time step continuity errors : sum local = 3.73831e-09, global = -1.54085e-19, cumulative = -1.73375e-19
nonePCG:  Solving for p, Initial residual = 0.0025627, Final residual = 9.80012e-07, No Iterations 161
linear solve p 22785
time step continuity errors : sum local = 4.00791e-09, global = 1.47836e-20, cumulative = -1.58592e-19
ExecutionTime = 0.67 s  ClockTime = 0 s

Time = 0.036

Courant Number mean: 0.186106 max: 0.874008
DILUPBiCGStab:  Solving for Ux, Initial residual = 0.000848618, Final residual = 2.26664e-08, No Iterations 5
DILUPBiCGStab:  Solving for Uy, Initial residual = 0.00202241, Final residual = 1.53007e-08, No Iterations 5
DILUPBiCGStab:  Solving for Uz, Initial residual = 0.0030408, Final residual = 5.66574e-08, No Iterations 5
linear solve U 10273
nonePCG:  Solving for p, Initial residual = 0.00227521, Final residual = 8.74899e-07, No Iterations 159
linear solve p 22627
time step continuity errors : sum local = 3.57766e-09, global = -2.03535e-19, cumulative = -3.62127e-19
nonePCG:  Solving for p, Initial residual = 0.00193481, Final residual = 9.50419e-07, No Iterations 157
linear solve p 22501
time step continuity errors : sum local = 3.88615e-09, global = 1.29733e-21, cumulative = -3.60829e-19
ExecutionTime = 0.73 s  ClockTime = 0 s

Time = 0.04

Courant Number mean: 0.186708 max: 0.874399
DILUPBiCGStab:  Solving for Ux, Initial residual = 0.000670141, Final residual = 1.65755e-08, No Iterations 5
DILUPBiCGStab:  Solving for Uy, Initial residual = 0.00160979, Final residual = 1.26356e-08, No Iterations 5
DILUPBiCGStab:  Solving for Uz, Initial residual = 0.002359, Final residual = 4.60568e-08, No Iterations 5
linear solve U 10233
nonePCG:  Solving for p, Initial residual = 0.00178967, Final residual = 9.80148e-07, No Iterations 156
linear solve p 22175
time step continuity errors : sum local = 4.00817e-09, global = 2.71699e-20, cumulative = -3.33659e-19
nonePCG:  Solving for p, Initial residual = 0.00153036, Final residual = 9.73618e-07, No Iterations 154
linear solve p 22063
time step continuity errors : sum local = 3.98147e-09, global = 1.63039e-19, cumulative = -1.7062e-19
ExecutionTime = 0.79 s  ClockTime = 0 s

End

