/*---------------------------------------------------------------------------*\
  =========                 |
  \\      /  F ield         | OpenFOAM: The Open Source CFD Toolbox
   \\    /   O peration     | Website:  https://openfoam.org
    \\  /    A nd           | Version:  8
     \\/     M anipulation  |
\*---------------------------------------------------------------------------*/
Build  : 8-ef60d22ea792
Exec   : icoFoam
Date   : Sep 15 2021
Time   : 15:02:34
Host   : "uc2n482.localdomain"
PID    : 3659351
I/O    : uncollated
Case   : /pfs/data5/home/kit/scc/nq7776/data/code/OBR/lidDrivenCavity3D/Variation_init/100/Variation_mesh/55/Variation_matrix_solver/CG_BJ_CUDA/Variation_maxBlockSize/16/1631710945
nProcs : 1
sigFpe : Enabling floating point exception trapping (FOAM_SIGFPE).
fileModificationChecking : Monitoring run-time modified files using timeStampMaster (fileModificationSkew 10)
allowSystemOperations : Allowing user-supplied system call operations

// * * * * * * * * * * * * * * * * * * * * * * * * * * * * * * * * * * * * * //
Create time

Create mesh for time = 0

Reading transportProperties

Reading field p

Reading field U

Reading/calculating face flux field phi


Starting time loop

Time = 0.00181818

Courant Number mean: 0.170885 max: 0.951813
DILUPBiCGStab:  Solving for Ux, Initial residual = 0.0617772, Final residual = 8.17367e-05, No Iterations 5
DILUPBiCGStab:  Solving for Uy, Initial residual = 0.127918, Final residual = 0.000176819, No Iterations 5
DILUPBiCGStab:  Solving for Uz, Initial residual = 0.177193, Final residual = 0.000215685, No Iterations 5
linear solve U 163295
[OGL LOG] init_host_sparsity_pattern : 46 ms
[OGL LOG] matrix not stored update host matrix
[OGL LOG] update_host_mtx : 26 ms
[OGL LOG] matrix is not yet sorted, compute sorting idxs
[OGL LOG] compute_sort : 1433 ms
[OGL LOG] matrix is not yet sorted, sorting host matrix
[OGL LOG] sort_host_mtx_sparsity_pattern : 33 ms
[OGL LOG] sort_host_mtx : 17 ms
[OGL LOG] init_preconditioner : 17 ms
[OGL LOG] solve : 129 ms
BJcudaGKOCG:  Solving for p, Initial residual = 0.614449, Final residual = 9.9426e-07, No Iterations 373
linear solve p 2473794
time step continuity errors : sum local = 1.63689e-09, global = 1.00943e-20, cumulative = 1.00943e-20
[OGL LOG] init_preconditioner : 0 ms
[OGL LOG] solve : 128 ms
BJcudaGKOCG:  Solving for p, Initial residual = 0.429359, Final residual = 9.52194e-07, No Iterations 376
linear solve p 133136
time step continuity errors : sum local = 1.09746e-09, global = -3.19559e-20, cumulative = -2.18616e-20
ExecutionTime = 3.65 s  ClockTime = 3 s

Time = 0.00363636

Courant Number mean: 0.173201 max: 0.938447
DILUPBiCGStab:  Solving for Ux, Initial residual = 0.00803602, Final residual = 1.32171e-05, No Iterations 5
DILUPBiCGStab:  Solving for Uy, Initial residual = 0.0187993, Final residual = 2.49193e-05, No Iterations 5
DILUPBiCGStab:  Solving for Uz, Initial residual = 0.04342, Final residual = 0.000133404, No Iterations 5
linear solve U 148321
[OGL LOG] init_preconditioner : 0 ms
[OGL LOG] solve : 138 ms
BJcudaGKOCG:  Solving for p, Initial residual = 0.309262, Final residual = 9.7999e-07, No Iterations 405
linear solve p 143013
time step continuity errors : sum local = 3.77549e-07, global = 3.55027e-20, cumulative = 1.36411e-20
[OGL LOG] init_preconditioner : 0 ms
[OGL LOG] solve : 142 ms
BJcudaGKOCG:  Solving for p, Initial residual = 0.196346, Final residual = 9.89058e-07, No Iterations 403
linear solve p 147918
time step continuity errors : sum local = 3.64855e-07, global = 3.0976e-21, cumulative = 1.67387e-20
ExecutionTime = 4.2 s  ClockTime = 4 s

Time = 0.00545455

Courant Number mean: 0.175253 max: 0.938256
DILUPBiCGStab:  Solving for Ux, Initial residual = 0.00374963, Final residual = 1.01145e-05, No Iterations 5
DILUPBiCGStab:  Solving for Uy, Initial residual = 0.00920306, Final residual = 1.43022e-05, No Iterations 5
DILUPBiCGStab:  Solving for Uz, Initial residual = 0.0232233, Final residual = 5.76202e-05, No Iterations 5
linear solve U 149484
[OGL LOG] init_preconditioner : 0 ms
[OGL LOG] solve : 128 ms
BJcudaGKOCG:  Solving for p, Initial residual = 0.171231, Final residual = 9.69404e-07, No Iterations 375
linear solve p 133406
time step continuity errors : sum local = 3.66594e-07, global = 1.81284e-21, cumulative = 1.85516e-20
[OGL LOG] init_preconditioner : 0 ms
[OGL LOG] solve : 129 ms
BJcudaGKOCG:  Solving for p, Initial residual = 0.116657, Final residual = 9.34774e-07, No Iterations 374
linear solve p 134402
time step continuity errors : sum local = 3.63457e-07, global = 1.92432e-21, cumulative = 2.04759e-20
ExecutionTime = 4.7 s  ClockTime = 4 s

Time = 0.00727273

Courant Number mean: 0.177048 max: 0.938779
DILUPBiCGStab:  Solving for Ux, Initial residual = 0.00266585, Final residual = 6.46368e-06, No Iterations 5
DILUPBiCGStab:  Solving for Uy, Initial residual = 0.00703997, Final residual = 1.01549e-05, No Iterations 5
DILUPBiCGStab:  Solving for Uz, Initial residual = 0.016832, Final residual = 3.42215e-05, No Iterations 5
linear solve U 150570
[OGL LOG] init_preconditioner : 0 ms
[OGL LOG] solve : 124 ms
BJcudaGKOCG:  Solving for p, Initial residual = 0.103548, Final residual = 9.60639e-07, No Iterations 359
linear solve p 129258
time step continuity errors : sum local = 3.61546e-07, global = -8.09208e-21, cumulative = 1.23838e-20
[OGL LOG] init_preconditioner : 0 ms
[OGL LOG] solve : 125 ms
BJcudaGKOCG:  Solving for p, Initial residual = 0.072917, Final residual = 9.48924e-07, No Iterations 358
linear solve p 132091
time step continuity errors : sum local = 3.63408e-07, global = -4.02272e-20, cumulative = -2.78434e-20
ExecutionTime = 5.2 s  ClockTime = 5 s

Time = 0.00909091

Courant Number mean: 0.178659 max: 0.939357
DILUPBiCGStab:  Solving for Ux, Initial residual = 0.00214454, Final residual = 4.47709e-06, No Iterations 5
DILUPBiCGStab:  Solving for Uy, Initial residual = 0.00554029, Final residual = 7.69156e-06, No Iterations 5
DILUPBiCGStab:  Solving for Uz, Initial residual = 0.0120088, Final residual = 2.1527e-05, No Iterations 5
linear solve U 151500
[OGL LOG] init_preconditioner : 0 ms
[OGL LOG] solve : 123 ms
BJcudaGKOCG:  Solving for p, Initial residual = 0.0676787, Final residual = 9.33293e-07, No Iterations 357
linear solve p 128596
time step continuity errors : sum local = 3.64706e-07, global = 5.23295e-21, cumulative = -2.26104e-20
[OGL LOG] init_preconditioner : 0 ms
[OGL LOG] solve : 122 ms
BJcudaGKOCG:  Solving for p, Initial residual = 0.0494692, Final residual = 9.26941e-07, No Iterations 356
linear solve p 127275
time step continuity errors : sum local = 3.6353e-07, global = -4.35291e-20, cumulative = -6.61395e-20
ExecutionTime = 5.71 s  ClockTime = 5 s

Time = 0.0109091

Courant Number mean: 0.180069 max: 0.939963
DILUPBiCGStab:  Solving for Ux, Initial residual = 0.00177178, Final residual = 2.99536e-06, No Iterations 5
DILUPBiCGStab:  Solving for Uy, Initial residual = 0.00472598, Final residual = 5.80059e-06, No Iterations 5
DILUPBiCGStab:  Solving for Uz, Initial residual = 0.0101092, Final residual = 1.58976e-05, No Iterations 5
linear solve U 147917
[OGL LOG] init_preconditioner : 0 ms
[OGL LOG] solve : 120 ms
BJcudaGKOCG:  Solving for p, Initial residual = 0.0441856, Final residual = 9.15543e-07, No Iterations 352
linear solve p 125255
time step continuity errors : sum local = 3.62759e-07, global = -1.88143e-20, cumulative = -8.49538e-20
[OGL LOG] init_preconditioner : 0 ms
[OGL LOG] solve : 120 ms
BJcudaGKOCG:  Solving for p, Initial residual = 0.0330914, Final residual = 9.19113e-07, No Iterations 351
linear solve p 125347
time step continuity errors : sum local = 3.63412e-07, global = 5.22355e-21, cumulative = -7.97303e-20
ExecutionTime = 6.2 s  ClockTime = 6 s

Time = 0.0127273

Courant Number mean: 0.181311 max: 0.940375
DILUPBiCGStab:  Solving for Ux, Initial residual = 0.00150047, Final residual = 1.86619e-06, No Iterations 5
DILUPBiCGStab:  Solving for Uy, Initial residual = 0.00397846, Final residual = 3.93478e-06, No Iterations 5
DILUPBiCGStab:  Solving for Uz, Initial residual = 0.00797135, Final residual = 1.14647e-05, No Iterations 5
linear solve U 150737
[OGL LOG] init_preconditioner : 0 ms
[OGL LOG] solve : 122 ms
BJcudaGKOCG:  Solving for p, Initial residual = 0.0312973, Final residual = 9.88038e-07, No Iterations 349
linear solve p 127531
time step continuity errors : sum local = 3.63821e-07, global = -1.12877e-20, cumulative = -9.1018e-20
[OGL LOG] init_preconditioner : 0 ms
[OGL LOG] solve : 119 ms
BJcudaGKOCG:  Solving for p, Initial residual = 0.0239642, Final residual = 9.90453e-07, No Iterations 345
linear solve p 124462
time step continuity errors : sum local = 3.63507e-07, global = -4.70634e-20, cumulative = -1.38081e-19
ExecutionTime = 6.71 s  ClockTime = 6 s

Time = 0.0145455

Courant Number mean: 0.182406 max: 0.940818
DILUPBiCGStab:  Solving for Ux, Initial residual = 0.0012852, Final residual = 1.12757e-06, No Iterations 5
DILUPBiCGStab:  Solving for Uy, Initial residual = 0.00349041, Final residual = 2.55911e-06, No Iterations 5
DILUPBiCGStab:  Solving for Uz, Initial residual = 0.00694088, Final residual = 8.68614e-06, No Iterations 5
linear solve U 150000
[OGL LOG] init_preconditioner : 0 ms
[OGL LOG] solve : 115 ms
BJcudaGKOCG:  Solving for p, Initial residual = 0.0214639, Final residual = 9.8949e-07, No Iterations 335
linear solve p 120869
time step continuity errors : sum local = 3.6326e-07, global = -3.34021e-21, cumulative = -1.41422e-19
[OGL LOG] init_preconditioner : 0 ms
[OGL LOG] solve : 116 ms
BJcudaGKOCG:  Solving for p, Initial residual = 0.0167048, Final residual = 9.4871e-07, No Iterations 335
linear solve p 121790
time step continuity errors : sum local = 3.63432e-07, global = -4.17831e-20, cumulative = -1.83205e-19
ExecutionTime = 7.19 s  ClockTime = 7 s

Time = 0.0163636

Courant Number mean: 0.183372 max: 0.941134
DILUPBiCGStab:  Solving for Ux, Initial residual = 0.00111633, Final residual = 7.08689e-07, No Iterations 5
DILUPBiCGStab:  Solving for Uy, Initial residual = 0.00301006, Final residual = 1.58222e-06, No Iterations 5
DILUPBiCGStab:  Solving for Uz, Initial residual = 0.00577581, Final residual = 6.12461e-06, No Iterations 5
linear solve U 149871
[OGL LOG] init_preconditioner : 0 ms
[OGL LOG] solve : 117 ms
BJcudaGKOCG:  Solving for p, Initial residual = 0.0158734, Final residual = 9.46668e-07, No Iterations 340
linear solve p 122424
time step continuity errors : sum local = 3.63557e-07, global = -2.30891e-20, cumulative = -2.06294e-19
[OGL LOG] init_preconditioner : 0 ms
[OGL LOG] solve : 116 ms
BJcudaGKOCG:  Solving for p, Initial residual = 0.0125517, Final residual = 9.2044e-07, No Iterations 339
linear solve p 121768
time step continuity errors : sum local = 3.63459e-07, global = 3.66394e-21, cumulative = -2.0263e-19
ExecutionTime = 7.68 s  ClockTime = 7 s

Time = 0.0181818

Courant Number mean: 0.18423 max: 0.941454
DILUPBiCGStab:  Solving for Ux, Initial residual = 0.000969243, Final residual = 5.33214e-07, No Iterations 5
DILUPBiCGStab:  Solving for Uy, Initial residual = 0.00267677, Final residual = 1.09401e-06, No Iterations 5
DILUPBiCGStab:  Solving for Uz, Initial residual = 0.00507949, Final residual = 5.09002e-06, No Iterations 5
linear solve U 151031
[OGL LOG] init_preconditioner : 0 ms
[OGL LOG] solve : 111 ms
BJcudaGKOCG:  Solving for p, Initial residual = 0.0112633, Final residual = 9.84155e-07, No Iterations 327
linear solve p 116806
time step continuity errors : sum local = 3.63384e-07, global = 7.04288e-20, cumulative = -1.32201e-19
[OGL LOG] init_preconditioner : 0 ms
[OGL LOG] solve : 111 ms
BJcudaGKOCG:  Solving for p, Initial residual = 0.00902365, Final residual = 9.6477e-07, No Iterations 326
linear solve p 116565
time step continuity errors : sum local = 3.63458e-07, global = -4.93303e-20, cumulative = -1.81531e-19
ExecutionTime = 8.15 s  ClockTime = 8 s

End

