/*---------------------------------------------------------------------------*\
  =========                 |
  \\      /  F ield         | OpenFOAM: The Open Source CFD Toolbox
   \\    /   O peration     | Website:  https://openfoam.org
    \\  /    A nd           | Version:  8
     \\/     M anipulation  |
\*---------------------------------------------------------------------------*/
Build  : 8-ef60d22ea792
Exec   : icoFoam
Date   : Sep 15 2021
Time   : 13:37:28
Host   : "uc2n482.localdomain"
PID    : 3634793
I/O    : uncollated
Case   : /pfs/data5/home/kit/scc/nq7776/data/code/OBR/lidDrivenCavity3D/Variation_init/100/Variation_mesh/65/Variation_matrix_solver/CG_BJ_CUDA/Variation_maxBlockSize/8/1631705836
nProcs : 1
sigFpe : Enabling floating point exception trapping (FOAM_SIGFPE).
fileModificationChecking : Monitoring run-time modified files using timeStampMaster (fileModificationSkew 10)
allowSystemOperations : Allowing user-supplied system call operations

// * * * * * * * * * * * * * * * * * * * * * * * * * * * * * * * * * * * * * //
Create time

Create mesh for time = 0

Reading transportProperties

Reading field p

Reading field U

Reading/calculating face flux field phi


Starting time loop

Time = 0.00153846

Courant Number mean: 0.17093 max: 0.953778
DILUPBiCGStab:  Solving for Ux, Initial residual = 0.112594, Final residual = 8.25037e-05, No Iterations 5
DILUPBiCGStab:  Solving for Uy, Initial residual = 0.214167, Final residual = 0.00019351, No Iterations 5
DILUPBiCGStab:  Solving for Uz, Initial residual = 0.265767, Final residual = 0.000360103, No Iterations 5
linear solve U 282263
[OGL LOG] init_host_sparsity_pattern : 74 ms
[OGL LOG] matrix not stored update host matrix
[OGL LOG] update_host_mtx : 43 ms
[OGL LOG] matrix is not yet sorted, compute sorting idxs
[OGL LOG] compute_sort : 2481 ms
[OGL LOG] matrix is not yet sorted, sorting host matrix
[OGL LOG] sort_host_mtx_sparsity_pattern : 54 ms
[OGL LOG] sort_host_mtx : 29 ms
[OGL LOG] init_preconditioner : 30 ms
[OGL LOG] solve : 236 ms
BJcudaGKOCG:  Solving for p, Initial residual = 0.554571, Final residual = 9.98936e-07, No Iterations 457
linear solve p 3721910
time step continuity errors : sum local = 1.32926e-09, global = -1.27496e-20, cumulative = -1.27496e-20
[OGL LOG] init_preconditioner : 0 ms
[OGL LOG] solve : 239 ms
BJcudaGKOCG:  Solving for p, Initial residual = 0.328964, Final residual = 9.88681e-07, No Iterations 474
linear solve p 248171
time step continuity errors : sum local = 7.97492e-10, global = -1.87105e-21, cumulative = -1.46207e-20
ExecutionTime = 5.71 s  ClockTime = 6 s

Time = 0.00307692

Courant Number mean: 0.173153 max: 0.946981
DILUPBiCGStab:  Solving for Ux, Initial residual = 0.00646101, Final residual = 2.91066e-05, No Iterations 5
DILUPBiCGStab:  Solving for Uy, Initial residual = 0.0152954, Final residual = 6.58732e-05, No Iterations 5
DILUPBiCGStab:  Solving for Uz, Initial residual = 0.0410355, Final residual = 0.000215683, No Iterations 5
linear solve U 261613
[OGL LOG] init_preconditioner : 0 ms
[OGL LOG] solve : 249 ms
BJcudaGKOCG:  Solving for p, Initial residual = 0.259021, Final residual = 9.82941e-07, No Iterations 491
linear solve p 258306
time step continuity errors : sum local = 2.58229e-07, global = 6.808e-20, cumulative = 5.34593e-20
[OGL LOG] init_preconditioner : 0 ms
[OGL LOG] solve : 248 ms
BJcudaGKOCG:  Solving for p, Initial residual = 0.210447, Final residual = 9.9182e-07, No Iterations 489
linear solve p 256679
time step continuity errors : sum local = 2.47636e-07, global = 1.81862e-20, cumulative = 7.16455e-20
ExecutionTime = 6.64 s  ClockTime = 7 s

Time = 0.00461538

Courant Number mean: 0.174968 max: 0.947843
DILUPBiCGStab:  Solving for Ux, Initial residual = 0.00331102, Final residual = 1.28476e-05, No Iterations 5
DILUPBiCGStab:  Solving for Uy, Initial residual = 0.0081031, Final residual = 2.89739e-05, No Iterations 5
DILUPBiCGStab:  Solving for Uz, Initial residual = 0.0238044, Final residual = 0.000136599, No Iterations 5
linear solve U 255187
[OGL LOG] init_preconditioner : 0 ms
[OGL LOG] solve : 223 ms
BJcudaGKOCG:  Solving for p, Initial residual = 0.16804, Final residual = 9.98096e-07, No Iterations 443
linear solve p 231784
time step continuity errors : sum local = 2.47195e-07, global = -2.59774e-20, cumulative = 4.56681e-20
[OGL LOG] init_preconditioner : 0 ms
[OGL LOG] solve : 223 ms
BJcudaGKOCG:  Solving for p, Initial residual = 0.135523, Final residual = 9.86685e-07, No Iterations 442
linear solve p 232246
time step continuity errors : sum local = 2.46527e-07, global = -2.97681e-20, cumulative = 1.59001e-20
ExecutionTime = 7.52 s  ClockTime = 8 s

Time = 0.00615385

Courant Number mean: 0.176518 max: 0.947985
DILUPBiCGStab:  Solving for Ux, Initial residual = 0.00229886, Final residual = 8.48564e-06, No Iterations 5
DILUPBiCGStab:  Solving for Uy, Initial residual = 0.00670339, Final residual = 1.83237e-05, No Iterations 5
DILUPBiCGStab:  Solving for Uz, Initial residual = 0.0192846, Final residual = 8.40747e-05, No Iterations 5
linear solve U 258393
[OGL LOG] init_preconditioner : 0 ms
[OGL LOG] solve : 224 ms
BJcudaGKOCG:  Solving for p, Initial residual = 0.117474, Final residual = 9.88174e-07, No Iterations 441
linear solve p 233100
time step continuity errors : sum local = 2.46847e-07, global = -1.2013e-20, cumulative = 3.887e-21
[OGL LOG] init_preconditioner : 0 ms
[OGL LOG] solve : 226 ms
BJcudaGKOCG:  Solving for p, Initial residual = 0.0952296, Final residual = 9.58081e-07, No Iterations 440
linear solve p 235648
time step continuity errors : sum local = 2.46704e-07, global = -3.456e-20, cumulative = -3.0673e-20
ExecutionTime = 8.42 s  ClockTime = 9 s

Time = 0.00769231

Courant Number mean: 0.17797 max: 0.948443
DILUPBiCGStab:  Solving for Ux, Initial residual = 0.00194859, Final residual = 6.60091e-06, No Iterations 5
DILUPBiCGStab:  Solving for Uy, Initial residual = 0.0052361, Final residual = 1.35815e-05, No Iterations 5
DILUPBiCGStab:  Solving for Uz, Initial residual = 0.0137229, Final residual = 5.09343e-05, No Iterations 5
linear solve U 259089
[OGL LOG] init_preconditioner : 0 ms
[OGL LOG] solve : 212 ms
BJcudaGKOCG:  Solving for p, Initial residual = 0.0839272, Final residual = 9.49847e-07, No Iterations 420
linear solve p 221212
time step continuity errors : sum local = 2.46903e-07, global = -1.11948e-20, cumulative = -4.18679e-20
[OGL LOG] init_preconditioner : 0 ms
[OGL LOG] solve : 210 ms
BJcudaGKOCG:  Solving for p, Initial residual = 0.0673232, Final residual = 9.92286e-07, No Iterations 418
linear solve p 218905
time step continuity errors : sum local = 2.46663e-07, global = -1.24573e-20, cumulative = -5.43252e-20
ExecutionTime = 9.29 s  ClockTime = 10 s

Time = 0.00923077

Courant Number mean: 0.179261 max: 0.948913
DILUPBiCGStab:  Solving for Ux, Initial residual = 0.00160216, Final residual = 5.24919e-06, No Iterations 5
DILUPBiCGStab:  Solving for Uy, Initial residual = 0.00455725, Final residual = 9.17107e-06, No Iterations 5
DILUPBiCGStab:  Solving for Uz, Initial residual = 0.011555, Final residual = 3.57813e-05, No Iterations 5
linear solve U 256184
[OGL LOG] init_preconditioner : 0 ms
[OGL LOG] solve : 213 ms
BJcudaGKOCG:  Solving for p, Initial residual = 0.0613604, Final residual = 9.93747e-07, No Iterations 422
linear solve p 221712
time step continuity errors : sum local = 2.46657e-07, global = -3.77003e-21, cumulative = -5.80952e-20
[OGL LOG] init_preconditioner : 0 ms
[OGL LOG] solve : 213 ms
BJcudaGKOCG:  Solving for p, Initial residual = 0.0494898, Final residual = 9.74726e-07, No Iterations 421
linear solve p 221979
time step continuity errors : sum local = 2.46656e-07, global = -3.90465e-20, cumulative = -9.71417e-20
ExecutionTime = 10.15 s  ClockTime = 10 s

Time = 0.0107692

Courant Number mean: 0.180428 max: 0.949219
DILUPBiCGStab:  Solving for Ux, Initial residual = 0.00140692, Final residual = 4.23208e-06, No Iterations 5
DILUPBiCGStab:  Solving for Uy, Initial residual = 0.00391282, Final residual = 6.18739e-06, No Iterations 5
DILUPBiCGStab:  Solving for Uz, Initial residual = 0.00901045, Final residual = 2.49614e-05, No Iterations 5
linear solve U 256903
[OGL LOG] init_preconditioner : 0 ms
[OGL LOG] solve : 208 ms
BJcudaGKOCG:  Solving for p, Initial residual = 0.0453745, Final residual = 9.46223e-07, No Iterations 409
linear solve p 217250
time step continuity errors : sum local = 2.46682e-07, global = 2.87883e-22, cumulative = -9.68538e-20
[OGL LOG] init_preconditioner : 0 ms
[OGL LOG] solve : 207 ms
BJcudaGKOCG:  Solving for p, Initial residual = 0.0363229, Final residual = 9.5151e-07, No Iterations 408
linear solve p 215981
time step continuity errors : sum local = 2.46642e-07, global = 3.93806e-21, cumulative = -9.29157e-20
ExecutionTime = 11 s  ClockTime = 11 s

Time = 0.0123077

Courant Number mean: 0.181475 max: 0.949601
DILUPBiCGStab:  Solving for Ux, Initial residual = 0.00121897, Final residual = 3.14205e-06, No Iterations 5
DILUPBiCGStab:  Solving for Uy, Initial residual = 0.00347008, Final residual = 4.46725e-06, No Iterations 5
DILUPBiCGStab:  Solving for Uz, Initial residual = 0.00774317, Final residual = 1.96917e-05, No Iterations 5
linear solve U 256343
[OGL LOG] init_preconditioner : 0 ms
[OGL LOG] solve : 209 ms
BJcudaGKOCG:  Solving for p, Initial residual = 0.0338734, Final residual = 9.30045e-07, No Iterations 416
linear solve p 218185
time step continuity errors : sum local = 2.46633e-07, global = 1.39475e-20, cumulative = -7.89682e-20
[OGL LOG] init_preconditioner : 0 ms
[OGL LOG] solve : 209 ms
BJcudaGKOCG:  Solving for p, Initial residual = 0.0272788, Final residual = 9.91062e-07, No Iterations 414
linear solve p 217368
time step continuity errors : sum local = 2.46654e-07, global = 6.19233e-20, cumulative = -1.70449e-20
ExecutionTime = 11.85 s  ClockTime = 12 s

Time = 0.0138462

Courant Number mean: 0.182418 max: 0.949852
DILUPBiCGStab:  Solving for Ux, Initial residual = 0.00108408, Final residual = 2.3905e-06, No Iterations 5
DILUPBiCGStab:  Solving for Uy, Initial residual = 0.00306009, Final residual = 3.28879e-06, No Iterations 5
DILUPBiCGStab:  Solving for Uz, Initial residual = 0.00643003, Final residual = 1.61796e-05, No Iterations 5
linear solve U 259839
[OGL LOG] init_preconditioner : 0 ms
[OGL LOG] solve : 205 ms
BJcudaGKOCG:  Solving for p, Initial residual = 0.0254839, Final residual = 9.69368e-07, No Iterations 398
linear solve p 215361
time step continuity errors : sum local = 2.46642e-07, global = -1.26286e-20, cumulative = -2.96735e-20
[OGL LOG] init_preconditioner : 0 ms
[OGL LOG] solve : 201 ms
BJcudaGKOCG:  Solving for p, Initial residual = 0.0203996, Final residual = 9.8587e-07, No Iterations 396
linear solve p 209904
time step continuity errors : sum local = 2.46648e-07, global = 3.35748e-21, cumulative = -2.63161e-20
ExecutionTime = 12.7 s  ClockTime = 13 s

Time = 0.0153846

Courant Number mean: 0.183267 max: 0.95014
DILUPBiCGStab:  Solving for Ux, Initial residual = 0.000958929, Final residual = 1.64031e-06, No Iterations 5
DILUPBiCGStab:  Solving for Uy, Initial residual = 0.00274785, Final residual = 2.32649e-06, No Iterations 5
DILUPBiCGStab:  Solving for Uz, Initial residual = 0.00562827, Final residual = 1.25972e-05, No Iterations 5
linear solve U 258919
[OGL LOG] init_preconditioner : 0 ms
[OGL LOG] solve : 200 ms
BJcudaGKOCG:  Solving for p, Initial residual = 0.0193256, Final residual = 9.96723e-07, No Iterations 393
linear solve p 208633
time step continuity errors : sum local = 2.46656e-07, global = -2.53681e-20, cumulative = -5.16842e-20
[OGL LOG] init_preconditioner : 0 ms
[OGL LOG] solve : 198 ms
BJcudaGKOCG:  Solving for p, Initial residual = 0.0156213, Final residual = 9.85188e-07, No Iterations 392
linear solve p 206809
time step continuity errors : sum local = 2.46649e-07, global = -3.61459e-20, cumulative = -8.78301e-20
ExecutionTime = 13.55 s  ClockTime = 14 s

End

