/*---------------------------------------------------------------------------*\
  =========                 |
  \\      /  F ield         | OpenFOAM: The Open Source CFD Toolbox
   \\    /   O peration     | Website:  https://openfoam.org
    \\  /    A nd           | Version:  8
     \\/     M anipulation  |
\*---------------------------------------------------------------------------*/
Build  : 8-ef60d22ea792
Exec   : icoFoam
Date   : Sep 15 2021
Time   : 13:08:31
Host   : "uc2n482.localdomain"
PID    : 3627489
I/O    : uncollated
Case   : /pfs/data5/home/kit/scc/nq7776/data/code/OBR/lidDrivenCavity3D/Variation_init/100/Variation_mesh/15/Variation_matrix_solver/IR_NoPrecond_CUDA/Variation_innerReductionFactor/0.001/1631704109
nProcs : 1
sigFpe : Enabling floating point exception trapping (FOAM_SIGFPE).
fileModificationChecking : Monitoring run-time modified files using timeStampMaster (fileModificationSkew 10)
allowSystemOperations : Allowing user-supplied system call operations

// * * * * * * * * * * * * * * * * * * * * * * * * * * * * * * * * * * * * * //
Create time

Create mesh for time = 0

Reading transportProperties

Reading field p

Reading field U

Reading/calculating face flux field phi


Starting time loop

Time = 0.00666667

Courant Number mean: 0.166422 max: 0.762393
DILUPBiCGStab:  Solving for Ux, Initial residual = 0.0879544, Final residual = 2.84443e-08, No Iterations 5
DILUPBiCGStab:  Solving for Uy, Initial residual = 0.126984, Final residual = 8.95339e-08, No Iterations 5
DILUPBiCGStab:  Solving for Uz, Initial residual = 0.181802, Final residual = 6.74481e-08, No Iterations 5
linear solve U 2359
[OGL LOG] init_host_sparsity_pattern : 0 ms
[OGL LOG] matrix not stored update host matrix
[OGL LOG] update_host_mtx : 0 ms
[OGL LOG] matrix is not yet sorted, compute sorting idxs
[OGL LOG] compute_sort : 21 ms
[OGL LOG] matrix is not yet sorted, sorting host matrix
[OGL LOG] sort_host_mtx_sparsity_pattern : 0 ms
[OGL LOG] sort_host_mtx : 0 ms
[OGL LOG] init_preconditioner : 0 ms
[OGL LOG] solve : 22 ms
nonecudaGKOIR:  Solving for p, Initial residual = 0.516107, Final residual = 1.16982e-09, No Iterations 3
linear solve p 788069
time step continuity errors : sum local = 1.61465e-11, global = 2.22413e-19, cumulative = 2.22413e-19
[OGL LOG] init_preconditioner : 0 ms
[OGL LOG] solve : 16 ms
nonecudaGKOIR:  Solving for p, Initial residual = 0.271044, Final residual = 5.77759e-07, No Iterations 2
linear solve p 16832
time step continuity errors : sum local = 5.48523e-09, global = 2.14764e-19, cumulative = 4.37177e-19
ExecutionTime = 0.86 s  ClockTime = 0 s

Time = 0.0133333

Courant Number mean: 0.171844 max: 0.7773
DILUPBiCGStab:  Solving for Ux, Initial residual = 0.021091, Final residual = 3.34889e-08, No Iterations 5
DILUPBiCGStab:  Solving for Uy, Initial residual = 0.0294977, Final residual = 2.90935e-08, No Iterations 5
DILUPBiCGStab:  Solving for Uz, Initial residual = 0.0732076, Final residual = 9.43989e-08, No Iterations 5
linear solve U 1986
[OGL LOG] init_preconditioner : 0 ms
[OGL LOG] solve : 16 ms
nonecudaGKOIR:  Solving for p, Initial residual = 0.145576, Final residual = 2.57034e-07, No Iterations 2
linear solve p 16999
time step continuity errors : sum local = 1.32872e-05, global = 7.30434e-19, cumulative = 1.16761e-18
[OGL LOG] init_preconditioner : 0 ms
[OGL LOG] solve : 16 ms
nonecudaGKOIR:  Solving for p, Initial residual = 0.0851821, Final residual = 1.37719e-07, No Iterations 2
linear solve p 17066
time step continuity errors : sum local = 1.20389e-05, global = -9.91734e-20, cumulative = 1.06844e-18
ExecutionTime = 0.9 s  ClockTime = 1 s

Time = 0.02

Courant Number mean: 0.175686 max: 0.781333
DILUPBiCGStab:  Solving for Ux, Initial residual = 0.00574942, Final residual = 1.22876e-08, No Iterations 5
DILUPBiCGStab:  Solving for Uy, Initial residual = 0.0110708, Final residual = 1.81277e-08, No Iterations 5
DILUPBiCGStab:  Solving for Uz, Initial residual = 0.0200856, Final residual = 1.31277e-08, No Iterations 5
linear solve U 1823
[OGL LOG] init_preconditioner : 0 ms
[OGL LOG] solve : 20 ms
nonecudaGKOIR:  Solving for p, Initial residual = 0.0224854, Final residual = 2.93012e-08, No Iterations 2
linear solve p 20825
time step continuity errors : sum local = 1.18757e-05, global = 1.91994e-19, cumulative = 1.26043e-18
[OGL LOG] init_preconditioner : 0 ms
[OGL LOG] solve : 15 ms
nonecudaGKOIR:  Solving for p, Initial residual = 0.0139035, Final residual = 1.58913e-08, No Iterations 2
linear solve p 15858
time step continuity errors : sum local = 1.19736e-05, global = 1.05879e-21, cumulative = 1.26149e-18
ExecutionTime = 0.94 s  ClockTime = 1 s

Time = 0.0266667

Courant Number mean: 0.178552 max: 0.784986
DILUPBiCGStab:  Solving for Ux, Initial residual = 0.00342738, Final residual = 5.12939e-09, No Iterations 5
DILUPBiCGStab:  Solving for Uy, Initial residual = 0.00658328, Final residual = 1.15543e-08, No Iterations 5
DILUPBiCGStab:  Solving for Uz, Initial residual = 0.00949861, Final residual = 9.6023e-09, No Iterations 5
linear solve U 1921
[OGL LOG] init_preconditioner : 0 ms
[OGL LOG] solve : 16 ms
nonecudaGKOIR:  Solving for p, Initial residual = 0.0101077, Final residual = 1.03774e-08, No Iterations 2
linear solve p 17091
time step continuity errors : sum local = 1.19894e-05, global = -2.51904e-19, cumulative = 1.00959e-18
[OGL LOG] init_preconditioner : 0 ms
[OGL LOG] solve : 16 ms
nonecudaGKOIR:  Solving for p, Initial residual = 0.00719417, Final residual = 6.37653e-09, No Iterations 2
linear solve p 16922
time step continuity errors : sum local = 1.19788e-05, global = 4.0834e-19, cumulative = 1.41793e-18
ExecutionTime = 0.98 s  ClockTime = 1 s

Time = 0.0333333

Courant Number mean: 0.180502 max: 0.787346
DILUPBiCGStab:  Solving for Ux, Initial residual = 0.00221543, Final residual = 1.91313e-09, No Iterations 5
DILUPBiCGStab:  Solving for Uy, Initial residual = 0.00448403, Final residual = 2.89438e-09, No Iterations 5
DILUPBiCGStab:  Solving for Uz, Initial residual = 0.00628878, Final residual = 3.22792e-09, No Iterations 5
linear solve U 1828
[OGL LOG] init_preconditioner : 0 ms
[OGL LOG] solve : 15 ms
nonecudaGKOIR:  Solving for p, Initial residual = 0.00453719, Final residual = 3.25562e-09, No Iterations 2
linear solve p 16096
time step continuity errors : sum local = 1.1976e-05, global = 2.53206e-19, cumulative = 1.67113e-18
[OGL LOG] init_preconditioner : 0 ms
[OGL LOG] solve : 15 ms
nonecudaGKOIR:  Solving for p, Initial residual = 0.00321816, Final residual = 2.90081e-09, No Iterations 2
linear solve p 15826
time step continuity errors : sum local = 1.19782e-05, global = -1.27386e-19, cumulative = 1.54375e-18
ExecutionTime = 1.01 s  ClockTime = 1 s

Time = 0.04

Courant Number mean: 0.181846 max: 0.788821
DILUPBiCGStab:  Solving for Ux, Initial residual = 0.00152159, Final residual = 8.48328e-10, No Iterations 5
DILUPBiCGStab:  Solving for Uy, Initial residual = 0.00314058, Final residual = 2.02412e-09, No Iterations 5
DILUPBiCGStab:  Solving for Uz, Initial residual = 0.00421538, Final residual = 2.101e-09, No Iterations 5
linear solve U 1829
[OGL LOG] init_preconditioner : 0 ms
[OGL LOG] solve : 15 ms
nonecudaGKOIR:  Solving for p, Initial residual = 0.00332464, Final residual = 2.38463e-09, No Iterations 2
linear solve p 15957
time step continuity errors : sum local = 1.19771e-05, global = 3.22005e-19, cumulative = 1.86575e-18
[OGL LOG] init_preconditioner : 0 ms
[OGL LOG] solve : 15 ms
nonecudaGKOIR:  Solving for p, Initial residual = 0.00243762, Final residual = 2.48662e-09, No Iterations 2
linear solve p 15864
time step continuity errors : sum local = 1.1978e-05, global = -5.56307e-20, cumulative = 1.81012e-18
ExecutionTime = 1.05 s  ClockTime = 1 s

Time = 0.0466667

Courant Number mean: 0.182778 max: 0.78982
DILUPBiCGStab:  Solving for Ux, Initial residual = 0.00104887, Final residual = 5.72147e-10, No Iterations 5
DILUPBiCGStab:  Solving for Uy, Initial residual = 0.00219916, Final residual = 1.09413e-09, No Iterations 5
DILUPBiCGStab:  Solving for Uz, Initial residual = 0.00292418, Final residual = 1.37851e-09, No Iterations 5
linear solve U 1911
[OGL LOG] init_preconditioner : 0 ms
[OGL LOG] solve : 16 ms
nonecudaGKOIR:  Solving for p, Initial residual = 0.00216745, Final residual = 1.53837e-09, No Iterations 2
linear solve p 16553
time step continuity errors : sum local = 1.19773e-05, global = -1.97817e-19, cumulative = 1.6123e-18
[OGL LOG] init_preconditioner : 0 ms
[OGL LOG] solve : 15 ms
nonecudaGKOIR:  Solving for p, Initial residual = 0.00157942, Final residual = 1.74973e-09, No Iterations 2
linear solve p 16049
time step continuity errors : sum local = 1.19779e-05, global = -2.15486e-19, cumulative = 1.39682e-18
ExecutionTime = 1.08 s  ClockTime = 1 s

Time = 0.0533333

Courant Number mean: 0.183428 max: 0.790487
DILUPBiCGStab:  Solving for Ux, Initial residual = 0.00073082, Final residual = 3.54065e-10, No Iterations 5
DILUPBiCGStab:  Solving for Uy, Initial residual = 0.00154854, Final residual = 6.38702e-10, No Iterations 5
DILUPBiCGStab:  Solving for Uz, Initial residual = 0.00201404, Final residual = 9.65435e-10, No Iterations 5
linear solve U 1824
[OGL LOG] init_preconditioner : 0 ms
[OGL LOG] solve : 15 ms
nonecudaGKOIR:  Solving for p, Initial residual = 0.00152849, Final residual = 1.5817e-09, No Iterations 2
linear solve p 16071
time step continuity errors : sum local = 1.19775e-05, global = 7.28801e-20, cumulative = 1.4697e-18
[OGL LOG] init_preconditioner : 0 ms
[OGL LOG] solve : 15 ms
nonecudaGKOIR:  Solving for p, Initial residual = 0.00111786, Final residual = 1.06916e-09, No Iterations 2
linear solve p 15872
time step continuity errors : sum local = 1.19779e-05, global = 2.53272e-19, cumulative = 1.72297e-18
ExecutionTime = 1.12 s  ClockTime = 1 s

Time = 0.06

Courant Number mean: 0.183882 max: 0.790942
DILUPBiCGStab:  Solving for Ux, Initial residual = 0.000512669, Final residual = 2.40612e-10, No Iterations 5
DILUPBiCGStab:  Solving for Uy, Initial residual = 0.00109138, Final residual = 3.8246e-10, No Iterations 5
DILUPBiCGStab:  Solving for Uz, Initial residual = 0.00139023, Final residual = 6.77955e-10, No Iterations 5
linear solve U 1823
[OGL LOG] init_preconditioner : 0 ms
[OGL LOG] solve : 10 ms
nonecudaGKOIR:  Solving for p, Initial residual = 0.0010586, Final residual = 8.64999e-07, No Iterations 1
linear solve p 10787
time step continuity errors : sum local = 1.19784e-05, global = -1.69715e-19, cumulative = 1.55325e-18
[OGL LOG] init_preconditioner : 0 ms
[OGL LOG] solve : 10 ms
nonecudaGKOIR:  Solving for p, Initial residual = 0.000774385, Final residual = 6.41905e-07, No Iterations 1
linear solve p 10741
time step continuity errors : sum local = 1.19786e-05, global = -2.54948e-19, cumulative = 1.29831e-18
ExecutionTime = 1.14 s  ClockTime = 1 s

Time = 0.0666667

Courant Number mean: 0.184199 max: 0.791252
DILUPBiCGStab:  Solving for Ux, Initial residual = 0.00036052, Final residual = 1.62705e-10, No Iterations 5
DILUPBiCGStab:  Solving for Uy, Initial residual = 0.000770419, Final residual = 2.43025e-10, No Iterations 5
DILUPBiCGStab:  Solving for Uz, Initial residual = 0.000959759, Final residual = 4.72941e-10, No Iterations 5
linear solve U 1853
[OGL LOG] init_preconditioner : 0 ms
[OGL LOG] solve : 10 ms
nonecudaGKOIR:  Solving for p, Initial residual = 0.000741349, Final residual = 6.06986e-07, No Iterations 1
linear solve p 11170
time step continuity errors : sum local = 1.19781e-05, global = -1.09761e-19, cumulative = 1.18854e-18
[OGL LOG] init_preconditioner : 0 ms
[OGL LOG] solve : 10 ms
nonecudaGKOIR:  Solving for p, Initial residual = 0.00054182, Final residual = 4.47799e-07, No Iterations 1
linear solve p 10886
time step continuity errors : sum local = 1.19783e-05, global = 2.50845e-19, cumulative = 1.43939e-18
ExecutionTime = 1.16 s  ClockTime = 1 s

End

