/*---------------------------------------------------------------------------*\
  =========                 |
  \\      /  F ield         | OpenFOAM: The Open Source CFD Toolbox
   \\    /   O peration     | Website:  https://openfoam.org
    \\  /    A nd           | Version:  8
     \\/     M anipulation  |
\*---------------------------------------------------------------------------*/
Build  : 8-ef60d22ea792
Exec   : icoFoam
Date   : Sep 15 2021
Time   : 13:32:13
Host   : "uc2n482.localdomain"
PID    : 3631847
I/O    : uncollated
Case   : /pfs/data5/home/kit/scc/nq7776/data/code/OBR/lidDrivenCavity3D/Variation_init/100/Variation_mesh/75/Variation_matrix_solver/IR_NoPrecond_CUDA/Variation_innerReductionFactor/0.001/1631705516
nProcs : 1
sigFpe : Enabling floating point exception trapping (FOAM_SIGFPE).
fileModificationChecking : Monitoring run-time modified files using timeStampMaster (fileModificationSkew 10)
allowSystemOperations : Allowing user-supplied system call operations

// * * * * * * * * * * * * * * * * * * * * * * * * * * * * * * * * * * * * * //
Create time

Create mesh for time = 0

Reading transportProperties

Reading field p

Reading field U

Reading/calculating face flux field phi


Starting time loop

Time = 0.00133333

Courant Number mean: 0.170873 max: 0.955248
DILUPBiCGStab:  Solving for Ux, Initial residual = 0.150945, Final residual = 8.53015e-05, No Iterations 5
DILUPBiCGStab:  Solving for Uy, Initial residual = 0.292287, Final residual = 0.000196272, No Iterations 5
DILUPBiCGStab:  Solving for Uz, Initial residual = 0.443155, Final residual = 0.000590488, No Iterations 5
linear solve U 438837
[OGL LOG] init_host_sparsity_pattern : 123 ms
[OGL LOG] matrix not stored update host matrix
[OGL LOG] update_host_mtx : 67 ms
[OGL LOG] matrix is not yet sorted, compute sorting idxs
[OGL LOG] compute_sort : 3765 ms
[OGL LOG] matrix is not yet sorted, sorting host matrix
[OGL LOG] sort_host_mtx_sparsity_pattern : 84 ms
[OGL LOG] sort_host_mtx : 51 ms
[OGL LOG] init_preconditioner : 0 ms
[OGL LOG] solve : 225 ms
nonecudaGKOIR:  Solving for p, Initial residual = 0.621595, Final residual = 3.83914e-09, No Iterations 3
linear solve p 5108186
time step continuity errors : sum local = 4.68534e-12, global = -1.32789e-20, cumulative = -1.32789e-20
[OGL LOG] init_preconditioner : 0 ms
[OGL LOG] solve : 231 ms
nonecudaGKOIR:  Solving for p, Initial residual = 0.292224, Final residual = 1.30034e-09, No Iterations 3
linear solve p 244131
time step continuity errors : sum local = 9.08281e-13, global = 1.54773e-20, cumulative = 2.19838e-21
ExecutionTime = 7.97 s  ClockTime = 8 s

Time = 0.00266667

Courant Number mean: 0.172833 max: 0.953296
DILUPBiCGStab:  Solving for Ux, Initial residual = 0.00633141, Final residual = 3.02549e-05, No Iterations 5
DILUPBiCGStab:  Solving for Uy, Initial residual = 0.0152139, Final residual = 6.99145e-05, No Iterations 5
DILUPBiCGStab:  Solving for Uz, Initial residual = 0.0761691, Final residual = 0.000480892, No Iterations 5
linear solve U 403316
[OGL LOG] init_preconditioner : 0 ms
[OGL LOG] solve : 179 ms
nonecudaGKOIR:  Solving for p, Initial residual = 0.306072, Final residual = 8.02504e-07, No Iterations 2
linear solve p 196562
time step continuity errors : sum local = 1.64069e-07, global = -9.45643e-21, cumulative = -7.25806e-21
[OGL LOG] init_preconditioner : 0 ms
[OGL LOG] solve : 183 ms
nonecudaGKOIR:  Solving for p, Initial residual = 0.226013, Final residual = 5.15494e-07, No Iterations 2
linear solve p 196305
time step continuity errors : sum local = 1.58271e-07, global = -3.08383e-21, cumulative = -1.03419e-20
ExecutionTime = 9.03 s  ClockTime = 9 s

Time = 0.004

Courant Number mean: 0.174523 max: 0.954278
DILUPBiCGStab:  Solving for Ux, Initial residual = 0.00265329, Final residual = 1.63441e-05, No Iterations 5
DILUPBiCGStab:  Solving for Uy, Initial residual = 0.00797251, Final residual = 4.0054e-05, No Iterations 5
DILUPBiCGStab:  Solving for Uz, Initial residual = 0.0352935, Final residual = 0.000275918, No Iterations 5
linear solve U 404098
[OGL LOG] init_preconditioner : 0 ms
[OGL LOG] solve : 179 ms
nonecudaGKOIR:  Solving for p, Initial residual = 0.192303, Final residual = 4.27241e-07, No Iterations 2
linear solve p 192711
time step continuity errors : sum local = 1.60671e-07, global = -3.93402e-20, cumulative = -4.9682e-20
[OGL LOG] init_preconditioner : 0 ms
[OGL LOG] solve : 168 ms
nonecudaGKOIR:  Solving for p, Initial residual = 0.148948, Final residual = 2.93379e-07, No Iterations 2
linear solve p 181850
time step continuity errors : sum local = 1.57984e-07, global = 1.05153e-20, cumulative = -3.91668e-20
ExecutionTime = 10.05 s  ClockTime = 10 s

Time = 0.00533333

Courant Number mean: 0.176005 max: 0.954647
DILUPBiCGStab:  Solving for Ux, Initial residual = 0.00207787, Final residual = 1.18175e-05, No Iterations 5
DILUPBiCGStab:  Solving for Uy, Initial residual = 0.00644365, Final residual = 2.45209e-05, No Iterations 5
DILUPBiCGStab:  Solving for Uz, Initial residual = 0.0233951, Final residual = 0.000159841, No Iterations 5
linear solve U 397467
[OGL LOG] init_preconditioner : 0 ms
[OGL LOG] solve : 179 ms
nonecudaGKOIR:  Solving for p, Initial residual = 0.142972, Final residual = 2.92332e-07, No Iterations 2
linear solve p 192631
time step continuity errors : sum local = 1.57146e-07, global = -1.73993e-20, cumulative = -5.65661e-20
[OGL LOG] init_preconditioner : 0 ms
[OGL LOG] solve : 186 ms
nonecudaGKOIR:  Solving for p, Initial residual = 0.114363, Final residual = 2.1847e-07, No Iterations 2
linear solve p 199971
time step continuity errors : sum local = 1.57797e-07, global = 4.56873e-21, cumulative = -5.19973e-20
ExecutionTime = 11.08 s  ClockTime = 11 s

Time = 0.00666667

Courant Number mean: 0.177347 max: 0.955032
DILUPBiCGStab:  Solving for Ux, Initial residual = 0.00176723, Final residual = 9.5956e-06, No Iterations 5
DILUPBiCGStab:  Solving for Uy, Initial residual = 0.00540512, Final residual = 1.95427e-05, No Iterations 5
DILUPBiCGStab:  Solving for Uz, Initial residual = 0.0162629, Final residual = 0.000102895, No Iterations 5
linear solve U 407777
[OGL LOG] init_preconditioner : 0 ms
[OGL LOG] solve : 183 ms
nonecudaGKOIR:  Solving for p, Initial residual = 0.108081, Final residual = 1.82707e-07, No Iterations 2
linear solve p 196482
time step continuity errors : sum local = 1.59177e-07, global = -1.95932e-21, cumulative = -5.39566e-20
[OGL LOG] init_preconditioner : 0 ms
[OGL LOG] solve : 185 ms
nonecudaGKOIR:  Solving for p, Initial residual = 0.0863154, Final residual = 1.63258e-07, No Iterations 2
linear solve p 198509
time step continuity errors : sum local = 1.57971e-07, global = 1.69842e-20, cumulative = -3.69724e-20
ExecutionTime = 12.13 s  ClockTime = 12 s

Time = 0.008

Courant Number mean: 0.178568 max: 0.955457
DILUPBiCGStab:  Solving for Ux, Initial residual = 0.00153483, Final residual = 7.8024e-06, No Iterations 5
DILUPBiCGStab:  Solving for Uy, Initial residual = 0.0046874, Final residual = 1.38556e-05, No Iterations 5
DILUPBiCGStab:  Solving for Uz, Initial residual = 0.0134874, Final residual = 6.70304e-05, No Iterations 5
linear solve U 401142
[OGL LOG] init_preconditioner : 0 ms
[OGL LOG] solve : 176 ms
nonecudaGKOIR:  Solving for p, Initial residual = 0.084919, Final residual = 1.5514e-07, No Iterations 2
linear solve p 190095
time step continuity errors : sum local = 1.5718e-07, global = 1.30071e-20, cumulative = -2.39653e-20
[OGL LOG] init_preconditioner : 0 ms
[OGL LOG] solve : 181 ms
nonecudaGKOIR:  Solving for p, Initial residual = 0.0685458, Final residual = 1.21508e-07, No Iterations 2
linear solve p 194258
time step continuity errors : sum local = 1.57798e-07, global = 1.18783e-21, cumulative = -2.27775e-20
ExecutionTime = 13.16 s  ClockTime = 13 s

Time = 0.00933333

Courant Number mean: 0.17967 max: 0.955718
DILUPBiCGStab:  Solving for Ux, Initial residual = 0.00135005, Final residual = 6.54096e-06, No Iterations 5
DILUPBiCGStab:  Solving for Uy, Initial residual = 0.00411444, Final residual = 1.15754e-05, No Iterations 5
DILUPBiCGStab:  Solving for Uz, Initial residual = 0.0103833, Final residual = 4.52429e-05, No Iterations 5
linear solve U 397675
[OGL LOG] init_preconditioner : 0 ms
[OGL LOG] solve : 181 ms
nonecudaGKOIR:  Solving for p, Initial residual = 0.0672325, Final residual = 1.11521e-07, No Iterations 2
linear solve p 195481
time step continuity errors : sum local = 1.58495e-07, global = 3.19857e-21, cumulative = -1.95789e-20
[OGL LOG] init_preconditioner : 0 ms
[OGL LOG] solve : 182 ms
nonecudaGKOIR:  Solving for p, Initial residual = 0.0542778, Final residual = 9.12569e-08, No Iterations 2
linear solve p 195360
time step continuity errors : sum local = 1.57925e-07, global = -1.11568e-20, cumulative = -3.07357e-20
ExecutionTime = 14.21 s  ClockTime = 14 s

Time = 0.0106667

Courant Number mean: 0.180675 max: 0.956053
DILUPBiCGStab:  Solving for Ux, Initial residual = 0.00120421, Final residual = 5.42767e-06, No Iterations 5
DILUPBiCGStab:  Solving for Uy, Initial residual = 0.00364519, Final residual = 8.93426e-06, No Iterations 5
DILUPBiCGStab:  Solving for Uz, Initial residual = 0.00898047, Final residual = 3.40039e-05, No Iterations 5
linear solve U 407003
[OGL LOG] init_preconditioner : 0 ms
[OGL LOG] solve : 178 ms
nonecudaGKOIR:  Solving for p, Initial residual = 0.0535934, Final residual = 8.99095e-08, No Iterations 2
linear solve p 190900
time step continuity errors : sum local = 1.57406e-07, global = 6.57564e-21, cumulative = -2.41601e-20
[OGL LOG] init_preconditioner : 0 ms
[OGL LOG] solve : 190 ms
nonecudaGKOIR:  Solving for p, Initial residual = 0.0434621, Final residual = 7.28837e-08, No Iterations 2
linear solve p 203485
time step continuity errors : sum local = 1.57817e-07, global = 2.56221e-20, cumulative = 1.46201e-21
ExecutionTime = 15.25 s  ClockTime = 15 s

Time = 0.012

Courant Number mean: 0.181586 max: 0.956269
DILUPBiCGStab:  Solving for Ux, Initial residual = 0.00107262, Final residual = 4.24484e-06, No Iterations 5
DILUPBiCGStab:  Solving for Uy, Initial residual = 0.00324666, Final residual = 7.89892e-06, No Iterations 5
DILUPBiCGStab:  Solving for Uz, Initial residual = 0.00732555, Final residual = 2.66102e-05, No Iterations 5
linear solve U 399980
[OGL LOG] init_preconditioner : 0 ms
[OGL LOG] solve : 189 ms
nonecudaGKOIR:  Solving for p, Initial residual = 0.0432827, Final residual = 7.10458e-08, No Iterations 2
linear solve p 202951
time step continuity errors : sum local = 1.5818e-07, global = 1.87038e-20, cumulative = 2.01658e-20
[OGL LOG] init_preconditioner : 0 ms
[OGL LOG] solve : 189 ms
nonecudaGKOIR:  Solving for p, Initial residual = 0.0351263, Final residual = 5.43134e-08, No Iterations 2
linear solve p 202254
time step continuity errors : sum local = 1.57895e-07, global = -3.84558e-20, cumulative = -1.829e-20
ExecutionTime = 16.31 s  ClockTime = 16 s

Time = 0.0133333

Courant Number mean: 0.182419 max: 0.956526
DILUPBiCGStab:  Solving for Ux, Initial residual = 0.000967516, Final residual = 3.81172e-06, No Iterations 5
DILUPBiCGStab:  Solving for Uy, Initial residual = 0.00291396, Final residual = 6.31404e-06, No Iterations 5
DILUPBiCGStab:  Solving for Uz, Initial residual = 0.00649817, Final residual = 2.03967e-05, No Iterations 5
linear solve U 403200
[OGL LOG] init_preconditioner : 0 ms
[OGL LOG] solve : 189 ms
nonecudaGKOIR:  Solving for p, Initial residual = 0.0346817, Final residual = 5.23928e-08, No Iterations 2
linear solve p 202021
time step continuity errors : sum local = 1.57567e-07, global = 1.43847e-20, cumulative = -3.90532e-21
[OGL LOG] init_preconditioner : 0 ms
[OGL LOG] solve : 189 ms
nonecudaGKOIR:  Solving for p, Initial residual = 0.0282221, Final residual = 4.42791e-08, No Iterations 2
linear solve p 202709
time step continuity errors : sum local = 1.57831e-07, global = 1.75356e-20, cumulative = 1.36303e-20
ExecutionTime = 17.36 s  ClockTime = 17 s

End

