/*---------------------------------------------------------------------------*\
  =========                 |
  \\      /  F ield         | OpenFOAM: The Open Source CFD Toolbox
   \\    /   O peration     | Website:  https://openfoam.org
    \\  /    A nd           | Version:  8
     \\/     M anipulation  |
\*---------------------------------------------------------------------------*/
Build  : 8-ef60d22ea792
Exec   : icoFoam
Date   : Sep 15 2021
Time   : 13:35:13
Host   : "uc2n482.localdomain"
PID    : 3633044
I/O    : uncollated
Case   : /pfs/data5/home/kit/scc/nq7776/data/code/OBR/lidDrivenCavity3D/Variation_init/100/Variation_mesh/40/Variation_matrix_solver/IR_NoPrecond_CUDA/Variation_innerReductionFactor/0.01/1631705709
nProcs : 1
sigFpe : Enabling floating point exception trapping (FOAM_SIGFPE).
fileModificationChecking : Monitoring run-time modified files using timeStampMaster (fileModificationSkew 10)
allowSystemOperations : Allowing user-supplied system call operations

// * * * * * * * * * * * * * * * * * * * * * * * * * * * * * * * * * * * * * //
Create time

Create mesh for time = 0

Reading transportProperties

Reading field p

Reading field U

Reading/calculating face flux field phi


Starting time loop

Time = 0.0025

Courant Number mean: 0.170274 max: 0.898977
DILUPBiCGStab:  Solving for Ux, Initial residual = 0.0777941, Final residual = 5.00153e-06, No Iterations 5
DILUPBiCGStab:  Solving for Uy, Initial residual = 0.123446, Final residual = 1.39078e-05, No Iterations 5
DILUPBiCGStab:  Solving for Uz, Initial residual = 0.127456, Final residual = 2.53141e-05, No Iterations 5
linear solve U 53693
[OGL LOG] init_host_sparsity_pattern : 16 ms
[OGL LOG] matrix not stored update host matrix
[OGL LOG] update_host_mtx : 9 ms
[OGL LOG] matrix is not yet sorted, compute sorting idxs
[OGL LOG] compute_sort : 501 ms
[OGL LOG] matrix is not yet sorted, sorting host matrix
[OGL LOG] sort_host_mtx_sparsity_pattern : 13 ms
[OGL LOG] sort_host_mtx : 7 ms
[OGL LOG] init_preconditioner : 0 ms
[OGL LOG] solve : 56 ms
nonecudaGKOIR:  Solving for p, Initial residual = 0.406972, Final residual = 1.18467e-08, No Iterations 4
linear solve p 1361209
time step continuity errors : sum local = 2.83176e-11, global = 1.3899e-19, cumulative = 1.3899e-19
[OGL LOG] init_preconditioner : 0 ms
[OGL LOG] solve : 45 ms
nonecudaGKOIR:  Solving for p, Initial residual = 0.212572, Final residual = 6.14981e-07, No Iterations 3
linear solve p 46960
time step continuity errors : sum local = 1.19603e-09, global = -7.33752e-20, cumulative = 6.56153e-20
ExecutionTime = 1.78 s  ClockTime = 1 s

Time = 0.005

Courant Number mean: 0.173472 max: 0.913614
DILUPBiCGStab:  Solving for Ux, Initial residual = 0.00786556, Final residual = 6.97739e-06, No Iterations 5
DILUPBiCGStab:  Solving for Uy, Initial residual = 0.0156864, Final residual = 1.02457e-05, No Iterations 5
DILUPBiCGStab:  Solving for Uz, Initial residual = 0.0331144, Final residual = 1.79219e-05, No Iterations 5
linear solve U 47920
[OGL LOG] init_preconditioner : 0 ms
[OGL LOG] solve : 47 ms
nonecudaGKOIR:  Solving for p, Initial residual = 0.14666, Final residual = 3.30493e-07, No Iterations 3
linear solve p 49392
time step continuity errors : sum local = 6.66016e-07, global = 9.59116e-21, cumulative = 7.52064e-20
[OGL LOG] init_preconditioner : 0 ms
[OGL LOG] solve : 46 ms
nonecudaGKOIR:  Solving for p, Initial residual = 0.104782, Final residual = 2.23235e-07, No Iterations 3
linear solve p 48631
time step continuity errors : sum local = 6.27563e-07, global = 1.79271e-20, cumulative = 9.31335e-20
ExecutionTime = 1.97 s  ClockTime = 2 s

Time = 0.0075

Courant Number mean: 0.17602 max: 0.915376
DILUPBiCGStab:  Solving for Ux, Initial residual = 0.00346379, Final residual = 3.30829e-06, No Iterations 5
DILUPBiCGStab:  Solving for Uy, Initial residual = 0.00930351, Final residual = 5.91571e-06, No Iterations 5
DILUPBiCGStab:  Solving for Uz, Initial residual = 0.0178891, Final residual = 9.6354e-06, No Iterations 5
linear solve U 47680
[OGL LOG] init_preconditioner : 0 ms
[OGL LOG] solve : 49 ms
nonecudaGKOIR:  Solving for p, Initial residual = 0.0595661, Final residual = 1.13061e-07, No Iterations 3
linear solve p 51860
time step continuity errors : sum local = 6.16186e-07, global = 9.07758e-20, cumulative = 1.83909e-19
[OGL LOG] init_preconditioner : 0 ms
[OGL LOG] solve : 46 ms
nonecudaGKOIR:  Solving for p, Initial residual = 0.0435585, Final residual = 7.601e-08, No Iterations 3
linear solve p 48585
time step continuity errors : sum local = 6.24744e-07, global = -6.73294e-20, cumulative = 1.1658e-19
ExecutionTime = 2.15 s  ClockTime = 2 s

Time = 0.01

Courant Number mean: 0.178224 max: 0.9168
DILUPBiCGStab:  Solving for Ux, Initial residual = 0.00264592, Final residual = 1.07534e-06, No Iterations 5
DILUPBiCGStab:  Solving for Uy, Initial residual = 0.00688021, Final residual = 2.61727e-06, No Iterations 5
DILUPBiCGStab:  Solving for Uz, Initial residual = 0.0130777, Final residual = 5.09814e-06, No Iterations 5
linear solve U 48723
[OGL LOG] init_preconditioner : 0 ms
[OGL LOG] solve : 49 ms
nonecudaGKOIR:  Solving for p, Initial residual = 0.032226, Final residual = 5.06493e-08, No Iterations 3
linear solve p 50847
time step continuity errors : sum local = 6.27928e-07, global = 6.59966e-20, cumulative = 1.82577e-19
[OGL LOG] init_preconditioner : 0 ms
[OGL LOG] solve : 47 ms
nonecudaGKOIR:  Solving for p, Initial residual = 0.0246111, Final residual = 3.78171e-08, No Iterations 3
linear solve p 49226
time step continuity errors : sum local = 6.2527e-07, global = -3.44252e-20, cumulative = 1.48151e-19
ExecutionTime = 2.33 s  ClockTime = 2 s

Time = 0.0125

Courant Number mean: 0.180054 max: 0.917664
DILUPBiCGStab:  Solving for Ux, Initial residual = 0.00210909, Final residual = 6.87222e-07, No Iterations 5
DILUPBiCGStab:  Solving for Uy, Initial residual = 0.0054105, Final residual = 9.63146e-07, No Iterations 5
DILUPBiCGStab:  Solving for Uz, Initial residual = 0.00995472, Final residual = 2.78871e-06, No Iterations 5
linear solve U 47975
[OGL LOG] init_preconditioner : 0 ms
[OGL LOG] solve : 45 ms
nonecudaGKOIR:  Solving for p, Initial residual = 0.0202261, Final residual = 2.88432e-08, No Iterations 3
linear solve p 47311
time step continuity errors : sum local = 6.24333e-07, global = 7.73042e-20, cumulative = 2.25456e-19
[OGL LOG] init_preconditioner : 0 ms
[OGL LOG] solve : 47 ms
nonecudaGKOIR:  Solving for p, Initial residual = 0.0155683, Final residual = 2.02159e-08, No Iterations 3
linear solve p 49265
time step continuity errors : sum local = 6.25134e-07, global = 4.94633e-20, cumulative = 2.74919e-19
ExecutionTime = 2.51 s  ClockTime = 2 s

Time = 0.015

Courant Number mean: 0.181609 max: 0.918509
DILUPBiCGStab:  Solving for Ux, Initial residual = 0.0017419, Final residual = 3.5853e-07, No Iterations 5
DILUPBiCGStab:  Solving for Uy, Initial residual = 0.00457552, Final residual = 8.59312e-07, No Iterations 5
DILUPBiCGStab:  Solving for Uz, Initial residual = 0.00838363, Final residual = 2.26729e-06, No Iterations 5
linear solve U 47916
[OGL LOG] init_preconditioner : 0 ms
[OGL LOG] solve : 45 ms
nonecudaGKOIR:  Solving for p, Initial residual = 0.0124375, Final residual = 1.66705e-08, No Iterations 3
linear solve p 47134
time step continuity errors : sum local = 6.25504e-07, global = 7.84726e-20, cumulative = 3.53391e-19
[OGL LOG] init_preconditioner : 0 ms
[OGL LOG] solve : 44 ms
nonecudaGKOIR:  Solving for p, Initial residual = 0.00997419, Final residual = 1.2998e-08, No Iterations 3
linear solve p 46751
time step continuity errors : sum local = 6.25176e-07, global = -6.75853e-20, cumulative = 2.85806e-19
ExecutionTime = 2.68 s  ClockTime = 2 s

Time = 0.0175

Courant Number mean: 0.182919 max: 0.919116
DILUPBiCGStab:  Solving for Ux, Initial residual = 0.0014591, Final residual = 2.8263e-07, No Iterations 5
DILUPBiCGStab:  Solving for Uy, Initial residual = 0.00377367, Final residual = 5.34937e-07, No Iterations 5
DILUPBiCGStab:  Solving for Uz, Initial residual = 0.00672588, Final residual = 1.32614e-06, No Iterations 5
linear solve U 48619
[OGL LOG] init_preconditioner : 0 ms
[OGL LOG] solve : 45 ms
nonecudaGKOIR:  Solving for p, Initial residual = 0.00873844, Final residual = 1.19845e-08, No Iterations 3
linear solve p 47733
time step continuity errors : sum local = 6.25063e-07, global = -3.18206e-21, cumulative = 2.82624e-19
[OGL LOG] init_preconditioner : 0 ms
[OGL LOG] solve : 35 ms
nonecudaGKOIR:  Solving for p, Initial residual = 0.00701568, Final residual = 8.54297e-07, No Iterations 2
linear solve p 37515
time step continuity errors : sum local = 6.26022e-07, global = -3.02097e-20, cumulative = 2.52414e-19
ExecutionTime = 2.84 s  ClockTime = 3 s

Time = 0.02

Courant Number mean: 0.184033 max: 0.919668
DILUPBiCGStab:  Solving for Ux, Initial residual = 0.00122819, Final residual = 1.57079e-07, No Iterations 5
DILUPBiCGStab:  Solving for Uy, Initial residual = 0.00323104, Final residual = 5.21987e-07, No Iterations 5
DILUPBiCGStab:  Solving for Uz, Initial residual = 0.00573345, Final residual = 1.1815e-06, No Iterations 5
linear solve U 47977
[OGL LOG] init_preconditioner : 0 ms
[OGL LOG] solve : 37 ms
nonecudaGKOIR:  Solving for p, Initial residual = 0.00585675, Final residual = 6.8033e-07, No Iterations 2
linear solve p 39957
time step continuity errors : sum local = 6.25868e-07, global = 2.96337e-20, cumulative = 2.82048e-19
[OGL LOG] init_preconditioner : 0 ms
[OGL LOG] solve : 35 ms
nonecudaGKOIR:  Solving for p, Initial residual = 0.00491705, Final residual = 5.98006e-07, No Iterations 2
linear solve p 36939
time step continuity errors : sum local = 6.25695e-07, global = -6.62344e-20, cumulative = 2.15814e-19
ExecutionTime = 3 s  ClockTime = 3 s

Time = 0.0225

Courant Number mean: 0.184978 max: 0.920092
DILUPBiCGStab:  Solving for Ux, Initial residual = 0.00104124, Final residual = 1.36382e-07, No Iterations 5
DILUPBiCGStab:  Solving for Uy, Initial residual = 0.0027232, Final residual = 3.78123e-07, No Iterations 5
DILUPBiCGStab:  Solving for Uz, Initial residual = 0.00472837, Final residual = 8.71596e-07, No Iterations 5
linear solve U 46790
[OGL LOG] init_preconditioner : 0 ms
[OGL LOG] solve : 34 ms
nonecudaGKOIR:  Solving for p, Initial residual = 0.00446007, Final residual = 5.66487e-07, No Iterations 2
linear solve p 36687
time step continuity errors : sum local = 6.25661e-07, global = -6.34504e-20, cumulative = 1.52363e-19
[OGL LOG] init_preconditioner : 0 ms
[OGL LOG] solve : 34 ms
nonecudaGKOIR:  Solving for p, Initial residual = 0.00379601, Final residual = 4.81674e-07, No Iterations 2
linear solve p 36772
time step continuity errors : sum local = 6.25585e-07, global = 3.09417e-20, cumulative = 1.83305e-19
ExecutionTime = 3.16 s  ClockTime = 3 s

Time = 0.025

Courant Number mean: 0.185785 max: 0.920464
DILUPBiCGStab:  Solving for Ux, Initial residual = 0.000884731, Final residual = 9.17955e-08, No Iterations 5
DILUPBiCGStab:  Solving for Uy, Initial residual = 0.00233887, Final residual = 4.80738e-07, No Iterations 5
DILUPBiCGStab:  Solving for Uz, Initial residual = 0.00401833, Final residual = 7.59269e-07, No Iterations 5
linear solve U 47435
[OGL LOG] init_preconditioner : 0 ms
[OGL LOG] solve : 38 ms
nonecudaGKOIR:  Solving for p, Initial residual = 0.00328484, Final residual = 3.88944e-07, No Iterations 2
linear solve p 39968
time step continuity errors : sum local = 6.25506e-07, global = -3.02128e-21, cumulative = 1.80284e-19
[OGL LOG] init_preconditioner : 0 ms
[OGL LOG] solve : 36 ms
nonecudaGKOIR:  Solving for p, Initial residual = 0.00289049, Final residual = 3.16715e-07, No Iterations 2
linear solve p 38179
time step continuity errors : sum local = 6.25428e-07, global = -7.03621e-21, cumulative = 1.73247e-19
ExecutionTime = 3.32 s  ClockTime = 3 s

End

