/*---------------------------------------------------------------------------*\
  =========                 |
  \\      /  F ield         | OpenFOAM: The Open Source CFD Toolbox
   \\    /   O peration     | Website:  https://openfoam.org
    \\  /    A nd           | Version:  8
     \\/     M anipulation  |
\*---------------------------------------------------------------------------*/
Build  : 8-ef60d22ea792
Exec   : icoFoam
Date   : Sep 15 2021
Time   : 13:24:07
Host   : "uc2n482.localdomain"
PID    : 3630142
I/O    : uncollated
Case   : /pfs/data5/home/kit/scc/nq7776/data/code/OBR/lidDrivenCavity3D/Variation_init/100/Variation_mesh/90/Variation_matrix_solver/BiCGStab_BJ_CUDA/1631705016
nProcs : 1
sigFpe : Enabling floating point exception trapping (FOAM_SIGFPE).
fileModificationChecking : Monitoring run-time modified files using timeStampMaster (fileModificationSkew 10)
allowSystemOperations : Allowing user-supplied system call operations

// * * * * * * * * * * * * * * * * * * * * * * * * * * * * * * * * * * * * * //
Create time

Create mesh for time = 0

Reading transportProperties

Reading field p

Reading field U

Reading/calculating face flux field phi


Starting time loop

Time = 0.00111111

Courant Number mean: 0.170803 max: 0.959403
DILUPBiCGStab:  Solving for Ux, Initial residual = 0.0817494, Final residual = 0.000236661, No Iterations 5
DILUPBiCGStab:  Solving for Uy, Initial residual = 0.166742, Final residual = 0.000630917, No Iterations 5
DILUPBiCGStab:  Solving for Uz, Initial residual = 0.256474, Final residual = 0.00093799, No Iterations 5
linear solve U 796930
[OGL LOG] init_host_sparsity_pattern : 243 ms
[OGL LOG] matrix not stored update host matrix
[OGL LOG] update_host_mtx : 116 ms
[OGL LOG] matrix is not yet sorted, compute sorting idxs
[OGL LOG] compute_sort : 6841 ms
[OGL LOG] matrix is not yet sorted, sorting host matrix
[OGL LOG] sort_host_mtx_sparsity_pattern : 147 ms
[OGL LOG] sort_host_mtx : 90 ms
[OGL LOG] init_preconditioner : 79 ms
[OGL LOG] solve : 1002 ms
BJcudaGKOBiCGStab:  Solving for p, Initial residual = 0.628613, Final residual = 1.43424e-07, No Iterations 489
linear solve p 9339597
time step continuity errors : sum local = 0.000675359, global = 8.52714e-19, cumulative = 8.52714e-19
[OGL LOG] init_preconditioner : 0 ms
[OGL LOG] solve : 917 ms
BJcudaGKOBiCGStab:  Solving for p, Initial residual = 0.749997, Final residual = 3.47302e-07, No Iterations 453
linear solve p 940766
time step continuity errors : sum local = 5.68192e-05, global = 1.12108e-19, cumulative = 9.64823e-19
ExecutionTime = 14.85 s  ClockTime = 15 s

Time = 0.00222222

Courant Number mean: 0.172504 max: 0.962994
DILUPBiCGStab:  Solving for Ux, Initial residual = 0.00661853, Final residual = 6.76341e-05, No Iterations 5
DILUPBiCGStab:  Solving for Uy, Initial residual = 0.0200661, Final residual = 0.00033323, No Iterations 5
DILUPBiCGStab:  Solving for Uz, Initial residual = 0.698928, Final residual = 0.0214239, No Iterations 5
linear solve U 739312
[OGL LOG] init_preconditioner : 0 ms
[OGL LOG] solve : 852 ms
BJcudaGKOBiCGStab:  Solving for p, Initial residual = 0.940308, Final residual = 9.94942e-07, No Iterations 421
linear solve p 877266
time step continuity errors : sum local = 0.000391161, global = 2.76675e-21, cumulative = 9.67589e-19
[OGL LOG] init_preconditioner : 0 ms
[OGL LOG] solve : 972 ms
BJcudaGKOBiCGStab:  Solving for p, Initial residual = 0.821374, Final residual = 9.92756e-07, No Iterations 480
linear solve p 997436
time step continuity errors : sum local = 1.19933e-06, global = -1.18003e-20, cumulative = 9.55789e-19
ExecutionTime = 17.92 s  ClockTime = 18 s

Time = 0.00333333

Courant Number mean: 0.175719 max: 1.0162
DILUPBiCGStab:  Solving for Ux, Initial residual = 0.00940436, Final residual = 0.000122168, No Iterations 5
DILUPBiCGStab:  Solving for Uy, Initial residual = 0.0324766, Final residual = 0.000460238, No Iterations 5
DILUPBiCGStab:  Solving for Uz, Initial residual = 0.746287, Final residual = 0.0144685, No Iterations 5
linear solve U 733194
[OGL LOG] init_preconditioner : 0 ms
[OGL LOG] solve : 946 ms
BJcudaGKOBiCGStab:  Solving for p, Initial residual = 0.935525, Final residual = 8.88969e-07, No Iterations 458
linear solve p 971873
time step continuity errors : sum local = 3.58084e-05, global = -7.77783e-20, cumulative = 8.78011e-19
[OGL LOG] init_preconditioner : 0 ms
[OGL LOG] solve : 981 ms
BJcudaGKOBiCGStab:  Solving for p, Initial residual = 0.845195, Final residual = 9.95098e-07, No Iterations 474
linear solve p 1004267
time step continuity errors : sum local = 6.71399e-08, global = 4.47631e-21, cumulative = 8.82487e-19
ExecutionTime = 21.09 s  ClockTime = 21 s

Time = 0.00444444

Courant Number mean: 0.176315 max: 1.01853
DILUPBiCGStab:  Solving for Ux, Initial residual = 0.00985434, Final residual = 0.000140961, No Iterations 5
DILUPBiCGStab:  Solving for Uy, Initial residual = 0.0345523, Final residual = 0.00049396, No Iterations 5
DILUPBiCGStab:  Solving for Uz, Initial residual = 0.75233, Final residual = 0.00759163, No Iterations 5
linear solve U 733046
[OGL LOG] init_preconditioner : 0 ms
[OGL LOG] solve : 945 ms
BJcudaGKOBiCGStab:  Solving for p, Initial residual = 0.918427, Final residual = 6.22444e-07, No Iterations 456
linear solve p 968573
time step continuity errors : sum local = 7.02881e-05, global = 1.38026e-19, cumulative = 1.02051e-18
[OGL LOG] init_preconditioner : 0 ms
[OGL LOG] solve : 932 ms
BJcudaGKOBiCGStab:  Solving for p, Initial residual = 0.807311, Final residual = 9.88864e-07, No Iterations 449
linear solve p 956858
time step continuity errors : sum local = 5.22542e-05, global = -2.92324e-20, cumulative = 9.91281e-19
ExecutionTime = 24.2 s  ClockTime = 24 s

Time = 0.00555556

Courant Number mean: 0.176922 max: 0.994197
DILUPBiCGStab:  Solving for Ux, Initial residual = 0.00797324, Final residual = 0.000108683, No Iterations 5
DILUPBiCGStab:  Solving for Uy, Initial residual = 0.0276949, Final residual = 0.000369782, No Iterations 5
DILUPBiCGStab:  Solving for Uz, Initial residual = 0.744166, Final residual = 0.00809158, No Iterations 5
linear solve U 735280
[OGL LOG] init_preconditioner : 0 ms
[OGL LOG] solve : 910 ms
BJcudaGKOBiCGStab:  Solving for p, Initial residual = 0.91482, Final residual = 9.99877e-07, No Iterations 440
linear solve p 935525
time step continuity errors : sum local = 3.81149e-06, global = 9.20786e-21, cumulative = 1.00049e-18
[OGL LOG] init_preconditioner : 0 ms
[OGL LOG] solve : 919 ms
BJcudaGKOBiCGStab:  Solving for p, Initial residual = 0.807787, Final residual = 8.71734e-07, No Iterations 444
linear solve p 942960
time step continuity errors : sum local = 3.07864e-06, global = 5.64266e-21, cumulative = 1.00613e-18
ExecutionTime = 27.25 s  ClockTime = 27 s

Time = 0.00666667

Courant Number mean: 0.177983 max: 0.993534
DILUPBiCGStab:  Solving for Ux, Initial residual = 0.00687195, Final residual = 0.000100915, No Iterations 5
DILUPBiCGStab:  Solving for Uy, Initial residual = 0.0237883, Final residual = 0.000346589, No Iterations 5
DILUPBiCGStab:  Solving for Uz, Initial residual = 0.730542, Final residual = 0.00513293, No Iterations 5
linear solve U 734901
[OGL LOG] init_preconditioner : 0 ms
[OGL LOG] solve : 946 ms
BJcudaGKOBiCGStab:  Solving for p, Initial residual = 0.907157, Final residual = 9.92749e-07, No Iterations 457
linear solve p 969302
time step continuity errors : sum local = 8.47243e-07, global = -6.32487e-21, cumulative = 9.99806e-19
[OGL LOG] init_preconditioner : 0 ms
[OGL LOG] solve : 931 ms
BJcudaGKOBiCGStab:  Solving for p, Initial residual = 0.798395, Final residual = 9.97185e-07, No Iterations 450
linear solve p 954054
time step continuity errors : sum local = 1.50364e-06, global = -5.93403e-21, cumulative = 9.93872e-19
ExecutionTime = 30.38 s  ClockTime = 30 s

Time = 0.00777778

Courant Number mean: 0.178727 max: 0.982663
DILUPBiCGStab:  Solving for Ux, Initial residual = 0.00557164, Final residual = 8.48431e-05, No Iterations 5
DILUPBiCGStab:  Solving for Uy, Initial residual = 0.0192086, Final residual = 0.000280846, No Iterations 5
DILUPBiCGStab:  Solving for Uz, Initial residual = 0.713996, Final residual = 0.00358829, No Iterations 5
linear solve U 733503
[OGL LOG] init_preconditioner : 0 ms
[OGL LOG] solve : 922 ms
BJcudaGKOBiCGStab:  Solving for p, Initial residual = 0.897363, Final residual = 9.84928e-07, No Iterations 446
linear solve p 945720
time step continuity errors : sum local = 8.82891e-08, global = 9.08521e-21, cumulative = 1.00296e-18
[OGL LOG] init_preconditioner : 0 ms
[OGL LOG] solve : 911 ms
BJcudaGKOBiCGStab:  Solving for p, Initial residual = 0.778442, Final residual = 7.06531e-07, No Iterations 439
linear solve p 936007
time step continuity errors : sum local = 8.34111e-06, global = -5.99751e-21, cumulative = 9.9696e-19
ExecutionTime = 33.43 s  ClockTime = 33 s

Time = 0.00888889

Courant Number mean: 0.179534 max: 0.977499
DILUPBiCGStab:  Solving for Ux, Initial residual = 0.00447387, Final residual = 7.05328e-05, No Iterations 5
DILUPBiCGStab:  Solving for Uy, Initial residual = 0.0153054, Final residual = 0.000237446, No Iterations 5
DILUPBiCGStab:  Solving for Uz, Initial residual = 0.692623, Final residual = 0.00309513, No Iterations 5
linear solve U 732310
[OGL LOG] init_preconditioner : 0 ms
[OGL LOG] solve : 953 ms
BJcudaGKOBiCGStab:  Solving for p, Initial residual = 0.886182, Final residual = 6.66481e-07, No Iterations 461
linear solve p 978108
time step continuity errors : sum local = 1.5368e-06, global = -2.74063e-20, cumulative = 9.69554e-19
[OGL LOG] init_preconditioner : 0 ms
[OGL LOG] solve : 900 ms
BJcudaGKOBiCGStab:  Solving for p, Initial residual = 0.764747, Final residual = 2.96536e-07, No Iterations 435
linear solve p 923040
time step continuity errors : sum local = 7.10163e-06, global = -4.70944e-21, cumulative = 9.64844e-19
ExecutionTime = 36.51 s  ClockTime = 36 s

Time = 0.01

Courant Number mean: 0.180297 max: 0.973173
DILUPBiCGStab:  Solving for Ux, Initial residual = 0.00364973, Final residual = 6.03858e-05, No Iterations 5
DILUPBiCGStab:  Solving for Uy, Initial residual = 0.0124707, Final residual = 0.000199923, No Iterations 5
DILUPBiCGStab:  Solving for Uz, Initial residual = 0.668469, Final residual = 0.00197066, No Iterations 5
linear solve U 730425
[OGL LOG] init_preconditioner : 0 ms
[OGL LOG] solve : 922 ms
BJcudaGKOBiCGStab:  Solving for p, Initial residual = 0.870014, Final residual = 9.3546e-07, No Iterations 446
linear solve p 950814
time step continuity errors : sum local = 9.00443e-08, global = 3.29173e-21, cumulative = 9.68136e-19
[OGL LOG] init_preconditioner : 0 ms
[OGL LOG] solve : 873 ms
BJcudaGKOBiCGStab:  Solving for p, Initial residual = 0.749245, Final residual = 9.72667e-07, No Iterations 422
linear solve p 896960
time step continuity errors : sum local = 5.77181e-08, global = -3.1323e-22, cumulative = 9.67823e-19
ExecutionTime = 39.53 s  ClockTime = 39 s

Time = 0.0111111

Courant Number mean: 0.181022 max: 0.970231
DILUPBiCGStab:  Solving for Ux, Initial residual = 0.00301866, Final residual = 4.88534e-05, No Iterations 5
DILUPBiCGStab:  Solving for Uy, Initial residual = 0.0102164, Final residual = 0.000163562, No Iterations 5
DILUPBiCGStab:  Solving for Uz, Initial residual = 0.641375, Final residual = 0.00166516, No Iterations 5
linear solve U 745399
[OGL LOG] init_preconditioner : 0 ms
[OGL LOG] solve : 911 ms
BJcudaGKOBiCGStab:  Solving for p, Initial residual = 0.85379, Final residual = 4.79269e-07, No Iterations 440
linear solve p 934602
time step continuity errors : sum local = 1.85168e-07, global = 4.88588e-21, cumulative = 9.72709e-19
[OGL LOG] init_preconditioner : 0 ms
[OGL LOG] solve : 882 ms
BJcudaGKOBiCGStab:  Solving for p, Initial residual = 0.733588, Final residual = 7.08141e-07, No Iterations 426
linear solve p 905714
time step continuity errors : sum local = 5.69345e-08, global = 6.05521e-21, cumulative = 9.78764e-19
ExecutionTime = 42.55 s  ClockTime = 42 s

End

