/*---------------------------------------------------------------------------*\
  =========                 |
  \\      /  F ield         | OpenFOAM: The Open Source CFD Toolbox
   \\    /   O peration     | Website:  https://openfoam.org
    \\  /    A nd           | Version:  8
     \\/     M anipulation  |
\*---------------------------------------------------------------------------*/
Build  : 8-ef60d22ea792
Exec   : icoFoam
Date   : Sep 15 2021
Time   : 15:01:05
Host   : "uc2n482.localdomain"
PID    : 3658622
I/O    : uncollated
Case   : /pfs/data5/home/kit/scc/nq7776/data/code/OBR/lidDrivenCavity3D/Variation_init/100/Variation_mesh/50/Variation_matrix_solver/CG_NoPrecond_CUDA/1631710859
nProcs : 1
sigFpe : Enabling floating point exception trapping (FOAM_SIGFPE).
fileModificationChecking : Monitoring run-time modified files using timeStampMaster (fileModificationSkew 10)
allowSystemOperations : Allowing user-supplied system call operations

// * * * * * * * * * * * * * * * * * * * * * * * * * * * * * * * * * * * * * //
Create time

Create mesh for time = 0

Reading transportProperties

Reading field p

Reading field U

Reading/calculating face flux field phi


Starting time loop

Time = 0.002

Courant Number mean: 0.171832 max: 0.950949
DILUPBiCGStab:  Solving for Ux, Initial residual = 0.170437, Final residual = 6.82397e-05, No Iterations 5
DILUPBiCGStab:  Solving for Uy, Initial residual = 0.34992, Final residual = 0.000142663, No Iterations 5
DILUPBiCGStab:  Solving for Uz, Initial residual = 0.557699, Final residual = 0.000189983, No Iterations 5
linear solve U 118324
[OGL LOG] init_host_sparsity_pattern : 35 ms
[OGL LOG] matrix not stored update host matrix
[OGL LOG] update_host_mtx : 19 ms
[OGL LOG] matrix is not yet sorted, compute sorting idxs
[OGL LOG] compute_sort : 1062 ms
[OGL LOG] matrix is not yet sorted, sorting host matrix
[OGL LOG] sort_host_mtx_sparsity_pattern : 25 ms
[OGL LOG] sort_host_mtx : 14 ms
[OGL LOG] init_preconditioner : 0 ms
[OGL LOG] solve : 66 ms
nonecudaGKOCG:  Solving for p, Initial residual = 0.678275, Final residual = 8.92103e-07, No Iterations 413
linear solve p 1984155
time step continuity errors : sum local = 2.6797e-09, global = -2.7246e-21, cumulative = -2.7246e-21
[OGL LOG] init_preconditioner : 0 ms
[OGL LOG] solve : 66 ms
nonecudaGKOCG:  Solving for p, Initial residual = 0.413581, Final residual = 9.06088e-07, No Iterations 416
linear solve p 70092
time step continuity errors : sum local = 1.39335e-09, global = -3.26471e-20, cumulative = -3.53717e-20
ExecutionTime = 2.82 s  ClockTime = 3 s

Time = 0.004

Courant Number mean: 0.174856 max: 0.932415
DILUPBiCGStab:  Solving for Ux, Initial residual = 0.0115943, Final residual = 2.67525e-05, No Iterations 5
DILUPBiCGStab:  Solving for Uy, Initial residual = 0.0268869, Final residual = 4.92438e-05, No Iterations 5
DILUPBiCGStab:  Solving for Uz, Initial residual = 0.112848, Final residual = 0.000158134, No Iterations 5
linear solve U 105630
[OGL LOG] init_preconditioner : 0 ms
[OGL LOG] solve : 64 ms
nonecudaGKOCG:  Solving for p, Initial residual = 0.32733, Final residual = 9.5025e-07, No Iterations 425
linear solve p 67680
time step continuity errors : sum local = 7.2198e-07, global = 1.03929e-20, cumulative = -2.49788e-20
[OGL LOG] init_preconditioner : 0 ms
[OGL LOG] solve : 63 ms
nonecudaGKOCG:  Solving for p, Initial residual = 0.243047, Final residual = 9.64602e-07, No Iterations 422
linear solve p 67735
time step continuity errors : sum local = 6.31278e-07, global = 3.36034e-20, cumulative = 8.62463e-21
ExecutionTime = 3.11 s  ClockTime = 3 s

Time = 0.006

Courant Number mean: 0.176822 max: 0.934846
DILUPBiCGStab:  Solving for Ux, Initial residual = 0.00529441, Final residual = 9.84977e-06, No Iterations 5
DILUPBiCGStab:  Solving for Uy, Initial residual = 0.0102196, Final residual = 2.29775e-05, No Iterations 5
DILUPBiCGStab:  Solving for Uz, Initial residual = 0.0485282, Final residual = 7.74091e-05, No Iterations 5
linear solve U 106752
[OGL LOG] init_preconditioner : 0 ms
[OGL LOG] solve : 62 ms
nonecudaGKOCG:  Solving for p, Initial residual = 0.17444, Final residual = 9.7756e-07, No Iterations 416
linear solve p 66278
time step continuity errors : sum local = 6.72926e-07, global = 5.52994e-20, cumulative = 6.3924e-20
[OGL LOG] init_preconditioner : 0 ms
[OGL LOG] solve : 62 ms
nonecudaGKOCG:  Solving for p, Initial residual = 0.133083, Final residual = 9.68465e-07, No Iterations 413
linear solve p 66503
time step continuity errors : sum local = 6.30607e-07, global = 1.85733e-20, cumulative = 8.24973e-20
ExecutionTime = 3.43 s  ClockTime = 3 s

Time = 0.008

Courant Number mean: 0.178238 max: 0.933359
DILUPBiCGStab:  Solving for Ux, Initial residual = 0.00289608, Final residual = 5.56899e-06, No Iterations 5
DILUPBiCGStab:  Solving for Uy, Initial residual = 0.00786354, Final residual = 1.00811e-05, No Iterations 5
DILUPBiCGStab:  Solving for Uz, Initial residual = 0.0260334, Final residual = 3.95509e-05, No Iterations 5
linear solve U 104645
[OGL LOG] init_preconditioner : 0 ms
[OGL LOG] solve : 61 ms
nonecudaGKOCG:  Solving for p, Initial residual = 0.10533, Final residual = 9.25313e-07, No Iterations 404
linear solve p 65013
time step continuity errors : sum local = 6.21072e-07, global = 1.43061e-21, cumulative = 8.3928e-20
[OGL LOG] init_preconditioner : 0 ms
[OGL LOG] solve : 62 ms
nonecudaGKOCG:  Solving for p, Initial residual = 0.0812442, Final residual = 9.79923e-07, No Iterations 401
linear solve p 65906
time step continuity errors : sum local = 6.30399e-07, global = 1.92282e-20, cumulative = 1.03156e-19
ExecutionTime = 3.73 s  ClockTime = 4 s

Time = 0.01

Courant Number mean: 0.179753 max: 0.9341
DILUPBiCGStab:  Solving for Ux, Initial residual = 0.00227172, Final residual = 4.01281e-06, No Iterations 5
DILUPBiCGStab:  Solving for Uy, Initial residual = 0.00526712, Final residual = 5.88525e-06, No Iterations 5
DILUPBiCGStab:  Solving for Uz, Initial residual = 0.0148988, Final residual = 2.07717e-05, No Iterations 5
linear solve U 110081
[OGL LOG] init_preconditioner : 0 ms
[OGL LOG] solve : 60 ms
nonecudaGKOCG:  Solving for p, Initial residual = 0.0676239, Final residual = 9.5041e-07, No Iterations 396
linear solve p 64618
time step continuity errors : sum local = 6.34929e-07, global = 5.48468e-20, cumulative = 1.58003e-19
[OGL LOG] init_preconditioner : 0 ms
[OGL LOG] solve : 60 ms
nonecudaGKOCG:  Solving for p, Initial residual = 0.05172, Final residual = 9.48882e-07, No Iterations 394
linear solve p 64479
time step continuity errors : sum local = 6.30493e-07, global = -3.37029e-20, cumulative = 1.243e-19
ExecutionTime = 4.05 s  ClockTime = 4 s

Time = 0.012

Courant Number mean: 0.181051 max: 0.934596
DILUPBiCGStab:  Solving for Ux, Initial residual = 0.00175521, Final residual = 1.90487e-06, No Iterations 5
DILUPBiCGStab:  Solving for Uy, Initial residual = 0.00453413, Final residual = 4.02138e-06, No Iterations 5
DILUPBiCGStab:  Solving for Uz, Initial residual = 0.011499, Final residual = 1.25768e-05, No Iterations 5
linear solve U 105103
[OGL LOG] init_preconditioner : 0 ms
[OGL LOG] solve : 59 ms
nonecudaGKOCG:  Solving for p, Initial residual = 0.0446785, Final residual = 9.62342e-07, No Iterations 391
linear solve p 63720
time step continuity errors : sum local = 6.28825e-07, global = 6.50095e-20, cumulative = 1.8931e-19
[OGL LOG] init_preconditioner : 0 ms
[OGL LOG] solve : 59 ms
nonecudaGKOCG:  Solving for p, Initial residual = 0.034375, Final residual = 9.64553e-07, No Iterations 389
linear solve p 63487
time step continuity errors : sum local = 6.30416e-07, global = 2.3659e-20, cumulative = 2.12969e-19
ExecutionTime = 4.34 s  ClockTime = 4 s

Time = 0.014

Courant Number mean: 0.182225 max: 0.93496
DILUPBiCGStab:  Solving for Ux, Initial residual = 0.0014906, Final residual = 9.87678e-07, No Iterations 5
DILUPBiCGStab:  Solving for Uy, Initial residual = 0.00373595, Final residual = 1.79894e-06, No Iterations 5
DILUPBiCGStab:  Solving for Uz, Initial residual = 0.00819242, Final residual = 8.40612e-06, No Iterations 5
linear solve U 106967
[OGL LOG] init_preconditioner : 0 ms
[OGL LOG] solve : 60 ms
nonecudaGKOCG:  Solving for p, Initial residual = 0.0303476, Final residual = 9.98673e-07, No Iterations 384
linear solve p 64584
time step continuity errors : sum local = 6.30682e-07, global = -5.74449e-20, cumulative = 1.55524e-19
[OGL LOG] init_preconditioner : 0 ms
[OGL LOG] solve : 58 ms
nonecudaGKOCG:  Solving for p, Initial residual = 0.023267, Final residual = 9.04496e-07, No Iterations 383
linear solve p 62415
time step continuity errors : sum local = 6.30424e-07, global = -1.90421e-20, cumulative = 1.36482e-19
ExecutionTime = 4.64 s  ClockTime = 4 s

Time = 0.016

Courant Number mean: 0.183255 max: 0.935382
DILUPBiCGStab:  Solving for Ux, Initial residual = 0.00125112, Final residual = 4.13803e-07, No Iterations 5
DILUPBiCGStab:  Solving for Uy, Initial residual = 0.00326802, Final residual = 1.00999e-06, No Iterations 5
DILUPBiCGStab:  Solving for Uz, Initial residual = 0.00685125, Final residual = 6.24897e-06, No Iterations 5
linear solve U 106902
[OGL LOG] init_preconditioner : 0 ms
[OGL LOG] solve : 58 ms
nonecudaGKOCG:  Solving for p, Initial residual = 0.020701, Final residual = 9.95039e-07, No Iterations 380
linear solve p 62871
time step continuity errors : sum local = 6.3001e-07, global = 3.42023e-20, cumulative = 1.70684e-19
[OGL LOG] init_preconditioner : 0 ms
[OGL LOG] solve : 58 ms
nonecudaGKOCG:  Solving for p, Initial residual = 0.0160332, Final residual = 9.50075e-07, No Iterations 379
linear solve p 61847
time step continuity errors : sum local = 6.304e-07, global = 3.09612e-20, cumulative = 2.01645e-19
ExecutionTime = 4.94 s  ClockTime = 5 s

Time = 0.018

Courant Number mean: 0.184168 max: 0.935681
DILUPBiCGStab:  Solving for Ux, Initial residual = 0.00108071, Final residual = 3.28401e-07, No Iterations 5
DILUPBiCGStab:  Solving for Uy, Initial residual = 0.00281177, Final residual = 1.01222e-06, No Iterations 5
DILUPBiCGStab:  Solving for Uz, Initial residual = 0.00553653, Final residual = 4.59403e-06, No Iterations 5
linear solve U 105788
[OGL LOG] init_preconditioner : 0 ms
[OGL LOG] solve : 54 ms
nonecudaGKOCG:  Solving for p, Initial residual = 0.0144618, Final residual = 9.78851e-07, No Iterations 354
linear solve p 58107
time step continuity errors : sum local = 6.30219e-07, global = -1.48244e-20, cumulative = 1.86821e-19
[OGL LOG] init_preconditioner : 0 ms
[OGL LOG] solve : 56 ms
nonecudaGKOCG:  Solving for p, Initial residual = 0.0112116, Final residual = 9.01553e-07, No Iterations 353
linear solve p 60327
time step continuity errors : sum local = 6.30384e-07, global = -9.71989e-21, cumulative = 1.77101e-19
ExecutionTime = 5.24 s  ClockTime = 5 s

Time = 0.02

Courant Number mean: 0.184973 max: 0.935986
DILUPBiCGStab:  Solving for Ux, Initial residual = 0.000928417, Final residual = 1.85316e-07, No Iterations 5
DILUPBiCGStab:  Solving for Uy, Initial residual = 0.00248406, Final residual = 5.62218e-07, No Iterations 5
DILUPBiCGStab:  Solving for Uz, Initial residual = 0.00473738, Final residual = 3.34415e-06, No Iterations 5
linear solve U 105765
[OGL LOG] init_preconditioner : 0 ms
[OGL LOG] solve : 54 ms
nonecudaGKOCG:  Solving for p, Initial residual = 0.0101775, Final residual = 9.85502e-07, No Iterations 363
linear solve p 58505
time step continuity errors : sum local = 6.302e-07, global = -2.1421e-20, cumulative = 1.5568e-19
[OGL LOG] init_preconditioner : 0 ms
[OGL LOG] solve : 54 ms
nonecudaGKOCG:  Solving for p, Initial residual = 0.00803408, Final residual = 9.79378e-07, No Iterations 361
linear solve p 58134
time step continuity errors : sum local = 6.30406e-07, global = -3.6216e-21, cumulative = 1.52058e-19
ExecutionTime = 5.53 s  ClockTime = 5 s

End

