/*---------------------------------------------------------------------------*\
  =========                 |
  \\      /  F ield         | OpenFOAM: The Open Source CFD Toolbox
   \\    /   O peration     | Website:  https://openfoam.org
    \\  /    A nd           | Version:  8
     \\/     M anipulation  |
\*---------------------------------------------------------------------------*/
Build  : 8-ef60d22ea792
Exec   : icoFoam
Date   : Sep 15 2021
Time   : 13:19:41
Host   : "uc2n482.localdomain"
PID    : 3629430
I/O    : uncollated
Case   : /pfs/data5/home/kit/scc/nq7776/data/code/OBR/lidDrivenCavity3D/Variation_init/100/Variation_mesh/90/Variation_matrix_solver/IR_NoPrecond_CUDA/Variation_innerReductionFactor/0.01/1631704753
nProcs : 1
sigFpe : Enabling floating point exception trapping (FOAM_SIGFPE).
fileModificationChecking : Monitoring run-time modified files using timeStampMaster (fileModificationSkew 10)
allowSystemOperations : Allowing user-supplied system call operations

// * * * * * * * * * * * * * * * * * * * * * * * * * * * * * * * * * * * * * //
Create time

Create mesh for time = 0

Reading transportProperties

Reading field p

Reading field U

Reading/calculating face flux field phi


Starting time loop

Time = 0.00111111

Courant Number mean: 0.170803 max: 0.959403
DILUPBiCGStab:  Solving for Ux, Initial residual = 0.0817494, Final residual = 0.000236661, No Iterations 5
DILUPBiCGStab:  Solving for Uy, Initial residual = 0.166742, Final residual = 0.000630917, No Iterations 5
DILUPBiCGStab:  Solving for Uz, Initial residual = 0.256474, Final residual = 0.00093799, No Iterations 5
linear solve U 787372
[OGL LOG] init_host_sparsity_pattern : 209 ms
[OGL LOG] matrix not stored update host matrix
[OGL LOG] update_host_mtx : 114 ms
[OGL LOG] matrix is not yet sorted, compute sorting idxs
[OGL LOG] compute_sort : 6879 ms
[OGL LOG] matrix is not yet sorted, sorting host matrix
[OGL LOG] sort_host_mtx_sparsity_pattern : 148 ms
[OGL LOG] sort_host_mtx : 88 ms
[OGL LOG] init_preconditioner : 0 ms
[OGL LOG] solve : 412 ms
nonecudaGKOIR:  Solving for p, Initial residual = 0.628613, Final residual = 2.41846e-08, No Iterations 4
linear solve p 8652921
time step continuity errors : sum local = 1.8929e-11, global = -2.26664e-21, cumulative = -2.26664e-21
[OGL LOG] init_preconditioner : 0 ms
[OGL LOG] solve : 410 ms
nonecudaGKOIR:  Solving for p, Initial residual = 0.413687, Final residual = 1.33441e-08, No Iterations 4
linear solve p 434060
time step continuity errors : sum local = 9.16164e-12, global = 1.32366e-20, cumulative = 1.09699e-20
ExecutionTime = 13.67 s  ClockTime = 14 s

Time = 0.00222222

Courant Number mean: 0.172492 max: 0.961842
DILUPBiCGStab:  Solving for Ux, Initial residual = 0.00648977, Final residual = 6.6517e-05, No Iterations 5
DILUPBiCGStab:  Solving for Uy, Initial residual = 0.018169, Final residual = 0.000188379, No Iterations 5
DILUPBiCGStab:  Solving for Uz, Initial residual = 0.0559284, Final residual = 0.000786779, No Iterations 5
linear solve U 719784
[OGL LOG] init_preconditioner : 0 ms
[OGL LOG] solve : 458 ms
nonecudaGKOIR:  Solving for p, Initial residual = 0.502231, Final residual = 1.10785e-08, No Iterations 4
linear solve p 481673
time step continuity errors : sum local = 6.52839e-08, global = 1.92373e-20, cumulative = 3.02073e-20
[OGL LOG] init_preconditioner : 0 ms
[OGL LOG] solve : 371 ms
nonecudaGKOIR:  Solving for p, Initial residual = 0.412943, Final residual = 8.69841e-07, No Iterations 3
linear solve p 394368
time step continuity errors : sum local = 5.60285e-08, global = -1.14271e-20, cumulative = 1.87801e-20
ExecutionTime = 15.69 s  ClockTime = 16 s

Time = 0.00333333

Courant Number mean: 0.173861 max: 0.961987
DILUPBiCGStab:  Solving for Ux, Initial residual = 0.00378862, Final residual = 3.60099e-05, No Iterations 5
DILUPBiCGStab:  Solving for Uy, Initial residual = 0.0107274, Final residual = 0.000108706, No Iterations 5
DILUPBiCGStab:  Solving for Uz, Initial residual = 0.0377607, Final residual = 0.000490216, No Iterations 5
linear solve U 725170
[OGL LOG] init_preconditioner : 0 ms
[OGL LOG] solve : 377 ms
nonecudaGKOIR:  Solving for p, Initial residual = 0.412758, Final residual = 7.79419e-07, No Iterations 3
linear solve p 400081
time step continuity errors : sum local = 5.81501e-08, global = -1.05205e-20, cumulative = 8.25962e-21
[OGL LOG] init_preconditioner : 0 ms
[OGL LOG] solve : 373 ms
nonecudaGKOIR:  Solving for p, Initial residual = 0.329405, Final residual = 6.24846e-07, No Iterations 3
linear solve p 398277
time step continuity errors : sum local = 5.518e-08, global = 5.27323e-21, cumulative = 1.35329e-20
ExecutionTime = 17.65 s  ClockTime = 18 s

Time = 0.00444444

Courant Number mean: 0.175122 max: 0.96203
DILUPBiCGStab:  Solving for Ux, Initial residual = 0.00283367, Final residual = 2.30255e-05, No Iterations 5
DILUPBiCGStab:  Solving for Uy, Initial residual = 0.00840084, Final residual = 6.82571e-05, No Iterations 5
DILUPBiCGStab:  Solving for Uz, Initial residual = 0.030376, Final residual = 0.000466607, No Iterations 5
linear solve U 709089
[OGL LOG] init_preconditioner : 0 ms
[OGL LOG] solve : 374 ms
nonecudaGKOIR:  Solving for p, Initial residual = 0.355944, Final residual = 5.53871e-07, No Iterations 3
linear solve p 397558
time step continuity errors : sum local = 5.67597e-08, global = 9.39625e-21, cumulative = 2.29291e-20
[OGL LOG] init_preconditioner : 0 ms
[OGL LOG] solve : 372 ms
nonecudaGKOIR:  Solving for p, Initial residual = 0.288926, Final residual = 4.88426e-07, No Iterations 3
linear solve p 396277
time step continuity errors : sum local = 5.55215e-08, global = 1.81101e-20, cumulative = 4.10392e-20
ExecutionTime = 19.61 s  ClockTime = 20 s

Time = 0.00555556

Courant Number mean: 0.176336 max: 0.962265
DILUPBiCGStab:  Solving for Ux, Initial residual = 0.00237662, Final residual = 1.58519e-05, No Iterations 5
DILUPBiCGStab:  Solving for Uy, Initial residual = 0.00656993, Final residual = 4.32092e-05, No Iterations 5
DILUPBiCGStab:  Solving for Uz, Initial residual = 0.0243801, Final residual = 0.000373344, No Iterations 5
linear solve U 719371
[OGL LOG] init_preconditioner : 0 ms
[OGL LOG] solve : 335 ms
nonecudaGKOIR:  Solving for p, Initial residual = 0.298696, Final residual = 4.54903e-07, No Iterations 3
linear solve p 359767
time step continuity errors : sum local = 5.665e-08, global = -1.77548e-20, cumulative = 2.32844e-20
[OGL LOG] init_preconditioner : 0 ms
[OGL LOG] solve : 332 ms
nonecudaGKOIR:  Solving for p, Initial residual = 0.24135, Final residual = 3.33882e-07, No Iterations 3
linear solve p 356399
time step continuity errors : sum local = 5.5204e-08, global = 1.73669e-20, cumulative = 4.06513e-20
ExecutionTime = 21.48 s  ClockTime = 21 s

Time = 0.00666667

Courant Number mean: 0.177448 max: 0.962592
DILUPBiCGStab:  Solving for Ux, Initial residual = 0.00201483, Final residual = 1.19559e-05, No Iterations 5
DILUPBiCGStab:  Solving for Uy, Initial residual = 0.00552654, Final residual = 3.24116e-05, No Iterations 5
DILUPBiCGStab:  Solving for Uz, Initial residual = 0.0203567, Final residual = 0.000326751, No Iterations 5
linear solve U 718987
[OGL LOG] init_preconditioner : 0 ms
[OGL LOG] solve : 335 ms
nonecudaGKOIR:  Solving for p, Initial residual = 0.259594, Final residual = 3.55377e-07, No Iterations 3
linear solve p 358615
time step continuity errors : sum local = 5.56364e-08, global = -5.23434e-21, cumulative = 3.5417e-20
[OGL LOG] init_preconditioner : 0 ms
[OGL LOG] solve : 333 ms
nonecudaGKOIR:  Solving for p, Initial residual = 0.210338, Final residual = 3.03358e-07, No Iterations 3
linear solve p 356008
time step continuity errors : sum local = 5.53807e-08, global = -3.00525e-21, cumulative = 3.24117e-20
ExecutionTime = 23.32 s  ClockTime = 23 s

Time = 0.00777778

Courant Number mean: 0.17848 max: 0.962789
DILUPBiCGStab:  Solving for Ux, Initial residual = 0.00174461, Final residual = 9.87652e-06, No Iterations 5
DILUPBiCGStab:  Solving for Uy, Initial residual = 0.00474397, Final residual = 2.29058e-05, No Iterations 5
DILUPBiCGStab:  Solving for Uz, Initial residual = 0.0169175, Final residual = 0.000263298, No Iterations 5
linear solve U 718182
[OGL LOG] init_preconditioner : 0 ms
[OGL LOG] solve : 351 ms
nonecudaGKOIR:  Solving for p, Initial residual = 0.222056, Final residual = 3.12835e-07, No Iterations 3
linear solve p 374240
time step continuity errors : sum local = 5.58771e-08, global = 2.62252e-20, cumulative = 5.86369e-20
[OGL LOG] init_preconditioner : 0 ms
[OGL LOG] solve : 323 ms
nonecudaGKOIR:  Solving for p, Initial residual = 0.180057, Final residual = 2.5187e-07, No Iterations 3
linear solve p 346623
time step continuity errors : sum local = 5.52228e-08, global = 4.69728e-20, cumulative = 1.0561e-19
ExecutionTime = 25.21 s  ClockTime = 25 s

Time = 0.00888889

Courant Number mean: 0.17943 max: 0.963051
DILUPBiCGStab:  Solving for Ux, Initial residual = 0.0015331, Final residual = 8.75925e-06, No Iterations 5
DILUPBiCGStab:  Solving for Uy, Initial residual = 0.00409989, Final residual = 1.97699e-05, No Iterations 5
DILUPBiCGStab:  Solving for Uz, Initial residual = 0.0141842, Final residual = 0.000221828, No Iterations 5
linear solve U 718151
[OGL LOG] init_preconditioner : 0 ms
[OGL LOG] solve : 334 ms
nonecudaGKOIR:  Solving for p, Initial residual = 0.192567, Final residual = 2.40232e-07, No Iterations 3
linear solve p 358279
time step continuity errors : sum local = 5.54817e-08, global = 4.47452e-20, cumulative = 1.50355e-19
[OGL LOG] init_preconditioner : 0 ms
[OGL LOG] solve : 343 ms
nonecudaGKOIR:  Solving for p, Initial residual = 0.156035, Final residual = 1.91034e-07, No Iterations 3
linear solve p 366718
time step continuity errors : sum local = 5.53185e-08, global = -3.13014e-20, cumulative = 1.19054e-19
ExecutionTime = 27.07 s  ClockTime = 27 s

Time = 0.01

Courant Number mean: 0.180306 max: 0.963238
DILUPBiCGStab:  Solving for Ux, Initial residual = 0.00134688, Final residual = 8.22669e-06, No Iterations 5
DILUPBiCGStab:  Solving for Uy, Initial residual = 0.00364341, Final residual = 1.63479e-05, No Iterations 5
DILUPBiCGStab:  Solving for Uz, Initial residual = 0.0119463, Final residual = 0.000171573, No Iterations 5
linear solve U 712448
[OGL LOG] init_preconditioner : 0 ms
[OGL LOG] solve : 324 ms
nonecudaGKOIR:  Solving for p, Initial residual = 0.165998, Final residual = 2.26257e-07, No Iterations 3
linear solve p 349575
time step continuity errors : sum local = 5.54929e-08, global = 2.89652e-20, cumulative = 1.48019e-19
[OGL LOG] init_preconditioner : 0 ms
[OGL LOG] solve : 321 ms
nonecudaGKOIR:  Solving for p, Initial residual = 0.134791, Final residual = 1.83493e-07, No Iterations 3
linear solve p 344458
time step continuity errors : sum local = 5.52267e-08, global = -2.4445e-20, cumulative = 1.23574e-19
ExecutionTime = 28.93 s  ClockTime = 29 s

Time = 0.0111111

Courant Number mean: 0.181116 max: 0.963438
DILUPBiCGStab:  Solving for Ux, Initial residual = 0.00120344, Final residual = 7.36984e-06, No Iterations 5
DILUPBiCGStab:  Solving for Uy, Initial residual = 0.00320714, Final residual = 1.52821e-05, No Iterations 5
DILUPBiCGStab:  Solving for Uz, Initial residual = 0.0101856, Final residual = 0.000139946, No Iterations 5
linear solve U 710278
[OGL LOG] init_preconditioner : 0 ms
[OGL LOG] solve : 338 ms
nonecudaGKOIR:  Solving for p, Initial residual = 0.143531, Final residual = 1.6665e-07, No Iterations 3
linear solve p 362119
time step continuity errors : sum local = 5.54111e-08, global = -1.58674e-20, cumulative = 1.07706e-19
[OGL LOG] init_preconditioner : 0 ms
[OGL LOG] solve : 340 ms
nonecudaGKOIR:  Solving for p, Initial residual = 0.116378, Final residual = 1.51756e-07, No Iterations 3
linear solve p 363342
time step continuity errors : sum local = 5.52915e-08, global = 1.25898e-20, cumulative = 1.20296e-19
ExecutionTime = 30.8 s  ClockTime = 31 s

End

