/*---------------------------------------------------------------------------*\
  =========                 |
  \\      /  F ield         | OpenFOAM: The Open Source CFD Toolbox
   \\    /   O peration     | Website:  https://openfoam.org
    \\  /    A nd           | Version:  8
     \\/     M anipulation  |
\*---------------------------------------------------------------------------*/
Build  : 8-ef60d22ea792
Exec   : icoFoam
Date   : Sep 15 2021
Time   : 14:02:35
Host   : "uc2n482.localdomain"
PID    : 3639278
I/O    : uncollated
Case   : /pfs/data5/home/kit/scc/nq7776/data/code/OBR/lidDrivenCavity3D/Variation_init/100/Variation_mesh/30/Variation_matrix_solver/CG_BJ_CUDA/Variation_maxBlockSize/8/1631707352
nProcs : 1
sigFpe : Enabling floating point exception trapping (FOAM_SIGFPE).
fileModificationChecking : Monitoring run-time modified files using timeStampMaster (fileModificationSkew 10)
allowSystemOperations : Allowing user-supplied system call operations

// * * * * * * * * * * * * * * * * * * * * * * * * * * * * * * * * * * * * * //
Create time

Create mesh for time = 0

Reading transportProperties

Reading field p

Reading field U

Reading/calculating face flux field phi


Starting time loop

Time = 0.00333333

Courant Number mean: 0.169907 max: 0.893517
DILUPBiCGStab:  Solving for Ux, Initial residual = 0.0911511, Final residual = 3.95829e-06, No Iterations 5
DILUPBiCGStab:  Solving for Uy, Initial residual = 0.158672, Final residual = 5.65407e-06, No Iterations 5
DILUPBiCGStab:  Solving for Uz, Initial residual = 0.266117, Final residual = 9.88141e-06, No Iterations 5
linear solve U 19713
[OGL LOG] init_host_sparsity_pattern : 7 ms
[OGL LOG] matrix not stored update host matrix
[OGL LOG] update_host_mtx : 3 ms
[OGL LOG] matrix is not yet sorted, compute sorting idxs
[OGL LOG] compute_sort : 195 ms
[OGL LOG] matrix is not yet sorted, sorting host matrix
[OGL LOG] sort_host_mtx_sparsity_pattern : 5 ms
[OGL LOG] sort_host_mtx : 2 ms
[OGL LOG] init_preconditioner : 3 ms
[OGL LOG] solve : 29 ms
BJcudaGKOCG:  Solving for p, Initial residual = 0.542954, Final residual = 9.6398e-07, No Iterations 215
linear solve p 990387
time step continuity errors : sum local = 4.50757e-09, global = 5.31724e-20, cumulative = 5.31724e-20
[OGL LOG] init_preconditioner : 0 ms
[OGL LOG] solve : 29 ms
BJcudaGKOCG:  Solving for p, Initial residual = 0.318921, Final residual = 9.44876e-07, No Iterations 219
linear solve p 30373
time step continuity errors : sum local = 2.90143e-09, global = -4.90512e-20, cumulative = 4.12116e-21
ExecutionTime = 1.19 s  ClockTime = 2 s

Time = 0.00666667

Courant Number mean: 0.173776 max: 0.888266
DILUPBiCGStab:  Solving for Ux, Initial residual = 0.0119482, Final residual = 2.97169e-06, No Iterations 5
DILUPBiCGStab:  Solving for Uy, Initial residual = 0.0223252, Final residual = 3.40244e-06, No Iterations 5
DILUPBiCGStab:  Solving for Uz, Initial residual = 0.0596865, Final residual = 5.26022e-06, No Iterations 5
linear solve U 17517
[OGL LOG] init_preconditioner : 0 ms
[OGL LOG] solve : 29 ms
BJcudaGKOCG:  Solving for p, Initial residual = 0.156724, Final residual = 9.68208e-07, No Iterations 209
linear solve p 30372
time step continuity errors : sum local = 9.92839e-07, global = 1.71393e-19, cumulative = 1.75514e-19
[OGL LOG] init_preconditioner : 0 ms
[OGL LOG] solve : 27 ms
BJcudaGKOCG:  Solving for p, Initial residual = 0.0960179, Final residual = 9.37859e-07, No Iterations 204
linear solve p 28380
time step continuity errors : sum local = 8.8668e-07, global = -1.14128e-19, cumulative = 6.13858e-20
ExecutionTime = 1.29 s  ClockTime = 2 s

Time = 0.01

Courant Number mean: 0.176716 max: 0.888542
DILUPBiCGStab:  Solving for Ux, Initial residual = 0.00409279, Final residual = 6.70311e-07, No Iterations 5
DILUPBiCGStab:  Solving for Uy, Initial residual = 0.00964207, Final residual = 1.18554e-06, No Iterations 5
DILUPBiCGStab:  Solving for Uz, Initial residual = 0.0232404, Final residual = 3.07745e-06, No Iterations 5
linear solve U 21174
[OGL LOG] init_preconditioner : 0 ms
[OGL LOG] solve : 27 ms
BJcudaGKOCG:  Solving for p, Initial residual = 0.0542662, Final residual = 8.13182e-07, No Iterations 191
linear solve p 28444
time step continuity errors : sum local = 8.6802e-07, global = -1.09573e-19, cumulative = -4.81873e-20
[OGL LOG] init_preconditioner : 0 ms
[OGL LOG] solve : 27 ms
BJcudaGKOCG:  Solving for p, Initial residual = 0.0362378, Final residual = 9.45451e-07, No Iterations 189
linear solve p 28026
time step continuity errors : sum local = 8.81014e-07, global = -3.11303e-20, cumulative = -7.93176e-20
ExecutionTime = 1.37 s  ClockTime = 2 s

Time = 0.0133333

Courant Number mean: 0.179156 max: 0.890256
DILUPBiCGStab:  Solving for Ux, Initial residual = 0.00297515, Final residual = 3.25974e-07, No Iterations 5
DILUPBiCGStab:  Solving for Uy, Initial residual = 0.00703812, Final residual = 6.19374e-07, No Iterations 5
DILUPBiCGStab:  Solving for Uz, Initial residual = 0.0128658, Final residual = 1.19844e-06, No Iterations 5
linear solve U 18469
[OGL LOG] init_preconditioner : 0 ms
[OGL LOG] solve : 27 ms
BJcudaGKOCG:  Solving for p, Initial residual = 0.0253455, Final residual = 9.74132e-07, No Iterations 190
linear solve p 27827
time step continuity errors : sum local = 8.83971e-07, global = -8.93784e-20, cumulative = -1.68696e-19
[OGL LOG] init_preconditioner : 0 ms
[OGL LOG] solve : 26 ms
BJcudaGKOCG:  Solving for p, Initial residual = 0.0181708, Final residual = 9.2775e-07, No Iterations 189
linear solve p 27493
time step continuity errors : sum local = 8.81908e-07, global = 7.89013e-20, cumulative = -8.97947e-20
ExecutionTime = 1.47 s  ClockTime = 2 s

Time = 0.0166667

Courant Number mean: 0.181129 max: 0.891457
DILUPBiCGStab:  Solving for Ux, Initial residual = 0.00228119, Final residual = 2.37436e-07, No Iterations 5
DILUPBiCGStab:  Solving for Uy, Initial residual = 0.0053428, Final residual = 4.68989e-07, No Iterations 5
DILUPBiCGStab:  Solving for Uz, Initial residual = 0.00928205, Final residual = 5.64315e-07, No Iterations 5
linear solve U 18163
[OGL LOG] init_preconditioner : 0 ms
[OGL LOG] solve : 25 ms
BJcudaGKOCG:  Solving for p, Initial residual = 0.0142922, Final residual = 9.74288e-07, No Iterations 185
linear solve p 26788
time step continuity errors : sum local = 8.80751e-07, global = -7.92222e-20, cumulative = -1.69017e-19
[OGL LOG] init_preconditioner : 0 ms
[OGL LOG] solve : 24 ms
BJcudaGKOCG:  Solving for p, Initial residual = 0.0104784, Final residual = 9.33763e-07, No Iterations 184
linear solve p 25727
time step continuity errors : sum local = 8.81894e-07, global = -1.42406e-20, cumulative = -1.83257e-19
ExecutionTime = 1.55 s  ClockTime = 2 s

Time = 0.02

Courant Number mean: 0.182723 max: 0.892519
DILUPBiCGStab:  Solving for Ux, Initial residual = 0.00179241, Final residual = 1.43089e-07, No Iterations 5
DILUPBiCGStab:  Solving for Uy, Initial residual = 0.00435027, Final residual = 3.47597e-07, No Iterations 5
DILUPBiCGStab:  Solving for Uz, Initial residual = 0.00736057, Final residual = 4.39885e-07, No Iterations 5
linear solve U 17368
[OGL LOG] init_preconditioner : 0 ms
[OGL LOG] solve : 25 ms
BJcudaGKOCG:  Solving for p, Initial residual = 0.00820812, Final residual = 9.10242e-07, No Iterations 183
linear solve p 26396
time step continuity errors : sum local = 8.81455e-07, global = 1.54625e-19, cumulative = -2.8633e-20
[OGL LOG] init_preconditioner : 0 ms
[OGL LOG] solve : 25 ms
BJcudaGKOCG:  Solving for p, Initial residual = 0.00653615, Final residual = 9.7073e-07, No Iterations 181
linear solve p 26366
time step continuity errors : sum local = 8.81942e-07, global = -2.20943e-21, cumulative = -3.08424e-20
ExecutionTime = 1.62 s  ClockTime = 2 s

Time = 0.0233333

Courant Number mean: 0.184011 max: 0.893289
DILUPBiCGStab:  Solving for Ux, Initial residual = 0.00143715, Final residual = 1.09343e-07, No Iterations 5
DILUPBiCGStab:  Solving for Uy, Initial residual = 0.00347901, Final residual = 2.43263e-07, No Iterations 5
DILUPBiCGStab:  Solving for Uz, Initial residual = 0.00575591, Final residual = 2.57585e-07, No Iterations 5
linear solve U 17674
[OGL LOG] init_preconditioner : 0 ms
[OGL LOG] solve : 23 ms
BJcudaGKOCG:  Solving for p, Initial residual = 0.00545562, Final residual = 9.90544e-07, No Iterations 173
linear solve p 24310
time step continuity errors : sum local = 8.81581e-07, global = 9.47951e-20, cumulative = 6.39527e-20
[OGL LOG] init_preconditioner : 0 ms
[OGL LOG] solve : 23 ms
BJcudaGKOCG:  Solving for p, Initial residual = 0.00442754, Final residual = 8.02696e-07, No Iterations 173
linear solve p 24582
time step continuity errors : sum local = 8.81794e-07, global = 4.10868e-20, cumulative = 1.05039e-19
ExecutionTime = 1.71 s  ClockTime = 2 s

Time = 0.0266667

Courant Number mean: 0.185057 max: 0.893926
DILUPBiCGStab:  Solving for Ux, Initial residual = 0.00115893, Final residual = 5.42585e-08, No Iterations 5
DILUPBiCGStab:  Solving for Uy, Initial residual = 0.00285491, Final residual = 1.87621e-07, No Iterations 5
DILUPBiCGStab:  Solving for Uz, Initial residual = 0.00465694, Final residual = 2.31758e-07, No Iterations 5
linear solve U 17479
[OGL LOG] init_preconditioner : 0 ms
[OGL LOG] solve : 27 ms
BJcudaGKOCG:  Solving for p, Initial residual = 0.00385808, Final residual = 8.90154e-07, No Iterations 172
linear solve p 28723
time step continuity errors : sum local = 8.81597e-07, global = 3.9105e-20, cumulative = 1.44144e-19
[OGL LOG] init_preconditioner : 0 ms
[OGL LOG] solve : 23 ms
BJcudaGKOCG:  Solving for p, Initial residual = 0.00327635, Final residual = 8.82335e-07, No Iterations 171
linear solve p 24568
time step continuity errors : sum local = 8.81902e-07, global = -2.85395e-21, cumulative = 1.4129e-19
ExecutionTime = 1.79 s  ClockTime = 2 s

Time = 0.03

Courant Number mean: 0.185908 max: 0.894414
DILUPBiCGStab:  Solving for Ux, Initial residual = 0.000942621, Final residual = 5.13368e-08, No Iterations 5
DILUPBiCGStab:  Solving for Uy, Initial residual = 0.00232452, Final residual = 1.37976e-07, No Iterations 5
DILUPBiCGStab:  Solving for Uz, Initial residual = 0.0037065, Final residual = 1.70442e-07, No Iterations 5
linear solve U 18078
[OGL LOG] init_preconditioner : 0 ms
[OGL LOG] solve : 24 ms
BJcudaGKOCG:  Solving for p, Initial residual = 0.00291706, Final residual = 9.34294e-07, No Iterations 170
linear solve p 25399
time step continuity errors : sum local = 8.81724e-07, global = -7.54871e-21, cumulative = 1.33742e-19
[OGL LOG] init_preconditioner : 0 ms
[OGL LOG] solve : 24 ms
BJcudaGKOCG:  Solving for p, Initial residual = 0.00251575, Final residual = 8.9898e-07, No Iterations 169
linear solve p 25140
time step continuity errors : sum local = 8.81844e-07, global = 9.2156e-20, cumulative = 2.25898e-19
ExecutionTime = 1.87 s  ClockTime = 2 s

Time = 0.0333333

Courant Number mean: 0.186602 max: 0.894809
DILUPBiCGStab:  Solving for Ux, Initial residual = 0.000767537, Final residual = 2.94866e-08, No Iterations 5
DILUPBiCGStab:  Solving for Uy, Initial residual = 0.00191399, Final residual = 1.26264e-07, No Iterations 5
DILUPBiCGStab:  Solving for Uz, Initial residual = 0.00299459, Final residual = 1.45427e-07, No Iterations 5
linear solve U 18107
[OGL LOG] init_preconditioner : 0 ms
[OGL LOG] solve : 22 ms
BJcudaGKOCG:  Solving for p, Initial residual = 0.00225678, Final residual = 9.98799e-07, No Iterations 164
linear solve p 23533
time step continuity errors : sum local = 8.81923e-07, global = -1.43998e-20, cumulative = 2.11498e-19
[OGL LOG] init_preconditioner : 0 ms
[OGL LOG] solve : 23 ms
BJcudaGKOCG:  Solving for p, Initial residual = 0.00198007, Final residual = 9.97527e-07, No Iterations 162
linear solve p 24210
time step continuity errors : sum local = 8.82093e-07, global = -1.3846e-20, cumulative = 1.97652e-19
ExecutionTime = 1.95 s  ClockTime = 2 s

End

