/*---------------------------------------------------------------------------*\
  =========                 |
  \\      /  F ield         | OpenFOAM: The Open Source CFD Toolbox
   \\    /   O peration     | Website:  https://openfoam.org
    \\  /    A nd           | Version:  8
     \\/     M anipulation  |
\*---------------------------------------------------------------------------*/
Build  : 8-ef60d22ea792
Exec   : icoFoam
Date   : Sep 15 2021
Time   : 13:30:24
Host   : "uc2n438.localdomain"
PID    : 3542937
I/O    : uncollated
Case   : /pfs/data5/home/kit/scc/nq7776/data/code/OBR/lidDrivenCavity3D/Variation_init/100/Variation_mesh/65/Variation_matrix_solver/CG_NoPrecond_Serial/1631705413
nProcs : 1
sigFpe : Enabling floating point exception trapping (FOAM_SIGFPE).
fileModificationChecking : Monitoring run-time modified files using timeStampMaster (fileModificationSkew 10)
allowSystemOperations : Allowing user-supplied system call operations

// * * * * * * * * * * * * * * * * * * * * * * * * * * * * * * * * * * * * * //
Create time

Create mesh for time = 0

Reading transportProperties

Reading field p

Reading field U

Reading/calculating face flux field phi


Starting time loop

Time = 0.00153846

Courant Number mean: 0.17093 max: 0.953778
DILUPBiCGStab:  Solving for Ux, Initial residual = 0.112594, Final residual = 8.25037e-05, No Iterations 5
DILUPBiCGStab:  Solving for Uy, Initial residual = 0.214167, Final residual = 0.00019351, No Iterations 5
DILUPBiCGStab:  Solving for Uz, Initial residual = 0.265767, Final residual = 0.000360103, No Iterations 5
linear solve U 273543
nonePCG:  Solving for p, Initial residual = 0.554571, Final residual = 9.60694e-07, No Iterations 535
linear solve p 1852626
time step continuity errors : sum local = 1.27826e-09, global = 6.3587e-20, cumulative = 6.3587e-20
nonePCG:  Solving for p, Initial residual = 0.328964, Final residual = 9.66495e-07, No Iterations 537
linear solve p 1753792
time step continuity errors : sum local = 7.79566e-10, global = 1.5261e-20, cumulative = 7.8848e-20
ExecutionTime = 5.4 s  ClockTime = 5 s

Time = 0.00307692

Courant Number mean: 0.173153 max: 0.946981
DILUPBiCGStab:  Solving for Ux, Initial residual = 0.00646102, Final residual = 2.91066e-05, No Iterations 5
DILUPBiCGStab:  Solving for Uy, Initial residual = 0.0152954, Final residual = 6.58733e-05, No Iterations 5
DILUPBiCGStab:  Solving for Uz, Initial residual = 0.0410368, Final residual = 0.000215689, No Iterations 5
linear solve U 249300
nonePCG:  Solving for p, Initial residual = 0.259019, Final residual = 9.68838e-07, No Iterations 533
linear solve p 1733297
time step continuity errors : sum local = 7.73867e-10, global = -3.98075e-20, cumulative = 3.90405e-20
nonePCG:  Solving for p, Initial residual = 0.210446, Final residual = 9.61416e-07, No Iterations 530
linear solve p 1725024
time step continuity errors : sum local = 7.56706e-10, global = -1.31024e-20, cumulative = 2.5938e-20
ExecutionTime = 9.26 s  ClockTime = 9 s

Time = 0.00461538

Courant Number mean: 0.174968 max: 0.947843
DILUPBiCGStab:  Solving for Ux, Initial residual = 0.003311, Final residual = 1.28472e-05, No Iterations 5
DILUPBiCGStab:  Solving for Uy, Initial residual = 0.00810301, Final residual = 2.89736e-05, No Iterations 5
DILUPBiCGStab:  Solving for Uz, Initial residual = 0.0238018, Final residual = 0.000136592, No Iterations 5
linear solve U 246081
nonePCG:  Solving for p, Initial residual = 0.16804, Final residual = 9.4904e-07, No Iterations 529
linear solve p 1713157
time step continuity errors : sum local = 7.14751e-10, global = -2.1502e-20, cumulative = 4.43598e-21
nonePCG:  Solving for p, Initial residual = 0.135521, Final residual = 9.97227e-07, No Iterations 526
linear solve p 1708646
time step continuity errors : sum local = 7.53361e-10, global = -4.62392e-20, cumulative = -4.18032e-20
ExecutionTime = 13.07 s  ClockTime = 13 s

Time = 0.00615385

Courant Number mean: 0.176518 max: 0.947985
DILUPBiCGStab:  Solving for Ux, Initial residual = 0.00229886, Final residual = 8.48606e-06, No Iterations 5
DILUPBiCGStab:  Solving for Uy, Initial residual = 0.00670336, Final residual = 1.83241e-05, No Iterations 5
DILUPBiCGStab:  Solving for Uz, Initial residual = 0.0192845, Final residual = 8.40713e-05, No Iterations 5
linear solve U 246004
nonePCG:  Solving for p, Initial residual = 0.117474, Final residual = 9.26268e-07, No Iterations 521
linear solve p 1703639
time step continuity errors : sum local = 6.59316e-10, global = -3.1978e-20, cumulative = -7.37812e-20
nonePCG:  Solving for p, Initial residual = 0.0952291, Final residual = 9.54716e-07, No Iterations 519
linear solve p 1700908
time step continuity errors : sum local = 6.74633e-10, global = -1.81631e-20, cumulative = -9.19443e-20
ExecutionTime = 16.86 s  ClockTime = 17 s

Time = 0.00769231

Courant Number mean: 0.17797 max: 0.948443
DILUPBiCGStab:  Solving for Ux, Initial residual = 0.00194858, Final residual = 6.60152e-06, No Iterations 5
DILUPBiCGStab:  Solving for Uy, Initial residual = 0.00523602, Final residual = 1.35812e-05, No Iterations 5
DILUPBiCGStab:  Solving for Uz, Initial residual = 0.0137219, Final residual = 5.09382e-05, No Iterations 5
linear solve U 245944
nonePCG:  Solving for p, Initial residual = 0.0839283, Final residual = 9.28612e-07, No Iterations 514
linear solve p 1680991
time step continuity errors : sum local = 6.50257e-10, global = -2.5462e-20, cumulative = -1.17406e-19
nonePCG:  Solving for p, Initial residual = 0.0673245, Final residual = 9.56292e-07, No Iterations 512
linear solve p 1676831
time step continuity errors : sum local = 6.70873e-10, global = 2.53469e-20, cumulative = -9.20594e-20
ExecutionTime = 20.6 s  ClockTime = 21 s

Time = 0.00923077

Courant Number mean: 0.179261 max: 0.948913
DILUPBiCGStab:  Solving for Ux, Initial residual = 0.00160216, Final residual = 5.24945e-06, No Iterations 5
DILUPBiCGStab:  Solving for Uy, Initial residual = 0.00455725, Final residual = 9.17006e-06, No Iterations 5
DILUPBiCGStab:  Solving for Uz, Initial residual = 0.0115552, Final residual = 3.57792e-05, No Iterations 5
linear solve U 246409
nonePCG:  Solving for p, Initial residual = 0.0613606, Final residual = 9.47549e-07, No Iterations 511
linear solve p 1672531
time step continuity errors : sum local = 6.48036e-10, global = 1.45309e-20, cumulative = -7.75285e-20
nonePCG:  Solving for p, Initial residual = 0.0494903, Final residual = 9.78224e-07, No Iterations 509
linear solve p 1666947
time step continuity errors : sum local = 6.67253e-10, global = 2.29862e-20, cumulative = -5.45423e-20
ExecutionTime = 24.33 s  ClockTime = 24 s

Time = 0.0107692

Courant Number mean: 0.180428 max: 0.949219
DILUPBiCGStab:  Solving for Ux, Initial residual = 0.00140691, Final residual = 4.23215e-06, No Iterations 5
DILUPBiCGStab:  Solving for Uy, Initial residual = 0.00391278, Final residual = 6.18697e-06, No Iterations 5
DILUPBiCGStab:  Solving for Uz, Initial residual = 0.00900937, Final residual = 2.49621e-05, No Iterations 5
linear solve U 244863
nonePCG:  Solving for p, Initial residual = 0.0453741, Final residual = 9.57912e-07, No Iterations 498
linear solve p 1632170
time step continuity errors : sum local = 6.50879e-10, global = 1.48293e-20, cumulative = -3.97129e-20
nonePCG:  Solving for p, Initial residual = 0.0363228, Final residual = 9.75239e-07, No Iterations 497
linear solve p 1622401
time step continuity errors : sum local = 6.63158e-10, global = -8.13341e-22, cumulative = -4.05263e-20
ExecutionTime = 27.99 s  ClockTime = 28 s

Time = 0.0123077

Courant Number mean: 0.181475 max: 0.949601
DILUPBiCGStab:  Solving for Ux, Initial residual = 0.00121897, Final residual = 3.14183e-06, No Iterations 5
DILUPBiCGStab:  Solving for Uy, Initial residual = 0.00347007, Final residual = 4.46767e-06, No Iterations 5
DILUPBiCGStab:  Solving for Uz, Initial residual = 0.00774252, Final residual = 1.9694e-05, No Iterations 5
linear solve U 246047
nonePCG:  Solving for p, Initial residual = 0.0338724, Final residual = 9.92988e-07, No Iterations 497
linear solve p 1620326
time step continuity errors : sum local = 6.67588e-10, global = 4.53123e-20, cumulative = 4.78606e-21
nonePCG:  Solving for p, Initial residual = 0.0272783, Final residual = 9.97049e-07, No Iterations 496
linear solve p 1621312
time step continuity errors : sum local = 6.6975e-10, global = -1.90516e-20, cumulative = -1.42655e-20
ExecutionTime = 31.62 s  ClockTime = 32 s

Time = 0.0138462

Courant Number mean: 0.182418 max: 0.949852
DILUPBiCGStab:  Solving for Ux, Initial residual = 0.00108408, Final residual = 2.39048e-06, No Iterations 5
DILUPBiCGStab:  Solving for Uy, Initial residual = 0.00306006, Final residual = 3.28861e-06, No Iterations 5
DILUPBiCGStab:  Solving for Uz, Initial residual = 0.00643155, Final residual = 1.61818e-05, No Iterations 5
linear solve U 248067
nonePCG:  Solving for p, Initial residual = 0.0254828, Final residual = 9.91972e-07, No Iterations 480
linear solve p 1552683
time step continuity errors : sum local = 6.64775e-10, global = -4.32896e-20, cumulative = -5.75551e-20
nonePCG:  Solving for p, Initial residual = 0.0203985, Final residual = 9.8071e-07, No Iterations 479
linear solve p 1557792
time step continuity errors : sum local = 6.57513e-10, global = -2.34209e-20, cumulative = -8.09759e-20
ExecutionTime = 35.12 s  ClockTime = 35 s

Time = 0.0153846

Courant Number mean: 0.183267 max: 0.95014
DILUPBiCGStab:  Solving for Ux, Initial residual = 0.00095893, Final residual = 1.64033e-06, No Iterations 5
DILUPBiCGStab:  Solving for Uy, Initial residual = 0.0027478, Final residual = 2.3264e-06, No Iterations 5
DILUPBiCGStab:  Solving for Uz, Initial residual = 0.00562506, Final residual = 1.26082e-05, No Iterations 5
linear solve U 246516
nonePCG:  Solving for p, Initial residual = 0.019326, Final residual = 9.82937e-07, No Iterations 494
linear solve p 1610942
time step continuity errors : sum local = 6.55244e-10, global = -1.07743e-20, cumulative = -9.17503e-20
nonePCG:  Solving for p, Initial residual = 0.015622, Final residual = 9.56601e-07, No Iterations 493
linear solve p 1609892
time step continuity errors : sum local = 6.37515e-10, global = 1.93834e-20, cumulative = -7.23669e-20
ExecutionTime = 38.73 s  ClockTime = 39 s

End

