/*---------------------------------------------------------------------------*\
  =========                 |
  \\      /  F ield         | OpenFOAM: The Open Source CFD Toolbox
   \\    /   O peration     | Website:  https://openfoam.org
    \\  /    A nd           | Version:  8
     \\/     M anipulation  |
\*---------------------------------------------------------------------------*/
Build  : 8-ef60d22ea792
Exec   : icoFoam
Date   : Sep 15 2021
Time   : 13:34:18
Host   : "uc2n482.localdomain"
PID    : 3632420
I/O    : uncollated
Case   : /pfs/data5/home/kit/scc/nq7776/data/code/OBR/lidDrivenCavity3D/Variation_init/100/Variation_mesh/40/Variation_matrix_solver/CG_BJ_CUDA/Variation_maxBlockSize/2/1631705654
nProcs : 1
sigFpe : Enabling floating point exception trapping (FOAM_SIGFPE).
fileModificationChecking : Monitoring run-time modified files using timeStampMaster (fileModificationSkew 10)
allowSystemOperations : Allowing user-supplied system call operations

// * * * * * * * * * * * * * * * * * * * * * * * * * * * * * * * * * * * * * //
Create time

Create mesh for time = 0

Reading transportProperties

Reading field p

Reading field U

Reading/calculating face flux field phi


Starting time loop

Time = 0.0025

Courant Number mean: 0.170274 max: 0.898977
DILUPBiCGStab:  Solving for Ux, Initial residual = 0.0777941, Final residual = 5.00153e-06, No Iterations 5
DILUPBiCGStab:  Solving for Uy, Initial residual = 0.123446, Final residual = 1.39078e-05, No Iterations 5
DILUPBiCGStab:  Solving for Uz, Initial residual = 0.127456, Final residual = 2.53141e-05, No Iterations 5
linear solve U 52758
[OGL LOG] init_host_sparsity_pattern : 18 ms
[OGL LOG] matrix not stored update host matrix
[OGL LOG] update_host_mtx : 8 ms
[OGL LOG] matrix is not yet sorted, compute sorting idxs
[OGL LOG] compute_sort : 497 ms
[OGL LOG] matrix is not yet sorted, sorting host matrix
[OGL LOG] sort_host_mtx_sparsity_pattern : 11 ms
[OGL LOG] sort_host_mtx : 6 ms
[OGL LOG] init_preconditioner : 7 ms
[OGL LOG] solve : 40 ms
BJcudaGKOCG:  Solving for p, Initial residual = 0.406972, Final residual = 9.0859e-07, No Iterations 290
linear solve p 1350512
time step continuity errors : sum local = 2.17158e-09, global = -3.49474e-20, cumulative = -3.49474e-20
[OGL LOG] init_preconditioner : 0 ms
[OGL LOG] solve : 39 ms
BJcudaGKOCG:  Solving for p, Initial residual = 0.212572, Final residual = 9.49151e-07, No Iterations 289
linear solve p 40993
time step continuity errors : sum local = 1.82441e-09, global = -6.94769e-22, cumulative = -3.56422e-20
ExecutionTime = 1.77 s  ClockTime = 2 s

Time = 0.005

Courant Number mean: 0.173472 max: 0.913614
DILUPBiCGStab:  Solving for Ux, Initial residual = 0.00786557, Final residual = 6.97737e-06, No Iterations 5
DILUPBiCGStab:  Solving for Uy, Initial residual = 0.0156864, Final residual = 1.02457e-05, No Iterations 5
DILUPBiCGStab:  Solving for Uz, Initial residual = 0.033115, Final residual = 1.79202e-05, No Iterations 5
linear solve U 47223
[OGL LOG] init_preconditioner : 0 ms
[OGL LOG] solve : 38 ms
BJcudaGKOCG:  Solving for p, Initial residual = 0.146659, Final residual = 9.47934e-07, No Iterations 286
linear solve p 40289
time step continuity errors : sum local = 6.66717e-07, global = -8.4968e-20, cumulative = -1.2061e-19
[OGL LOG] init_preconditioner : 0 ms
[OGL LOG] solve : 38 ms
BJcudaGKOCG:  Solving for p, Initial residual = 0.104782, Final residual = 8.48942e-07, No Iterations 285
linear solve p 40373
time step continuity errors : sum local = 6.28243e-07, global = 4.44992e-20, cumulative = -7.6111e-20
ExecutionTime = 1.94 s  ClockTime = 2 s

Time = 0.0075

Courant Number mean: 0.17602 max: 0.915376
DILUPBiCGStab:  Solving for Ux, Initial residual = 0.00346378, Final residual = 3.30831e-06, No Iterations 5
DILUPBiCGStab:  Solving for Uy, Initial residual = 0.00930356, Final residual = 5.91568e-06, No Iterations 5
DILUPBiCGStab:  Solving for Uz, Initial residual = 0.0178881, Final residual = 9.63468e-06, No Iterations 5
linear solve U 47656
[OGL LOG] init_preconditioner : 0 ms
[OGL LOG] solve : 37 ms
BJcudaGKOCG:  Solving for p, Initial residual = 0.059566, Final residual = 9.46956e-07, No Iterations 280
linear solve p 39413
time step continuity errors : sum local = 6.1705e-07, global = -2.77416e-21, cumulative = -7.88852e-20
[OGL LOG] init_preconditioner : 0 ms
[OGL LOG] solve : 40 ms
BJcudaGKOCG:  Solving for p, Initial residual = 0.0435583, Final residual = 9.71315e-07, No Iterations 278
linear solve p 42578
time step continuity errors : sum local = 6.25704e-07, global = -4.60843e-21, cumulative = -8.34936e-20
ExecutionTime = 2.1 s  ClockTime = 2 s

Time = 0.01

Courant Number mean: 0.178224 max: 0.9168
DILUPBiCGStab:  Solving for Ux, Initial residual = 0.00264592, Final residual = 1.07533e-06, No Iterations 5
DILUPBiCGStab:  Solving for Uy, Initial residual = 0.0068802, Final residual = 2.61729e-06, No Iterations 5
DILUPBiCGStab:  Solving for Uz, Initial residual = 0.0130786, Final residual = 5.0973e-06, No Iterations 5
linear solve U 47133
[OGL LOG] init_preconditioner : 0 ms
[OGL LOG] solve : 36 ms
BJcudaGKOCG:  Solving for p, Initial residual = 0.0322269, Final residual = 8.77243e-07, No Iterations 275
linear solve p 38561
time step continuity errors : sum local = 6.28753e-07, global = 4.44036e-20, cumulative = -3.909e-20
[OGL LOG] init_preconditioner : 0 ms
[OGL LOG] solve : 38 ms
BJcudaGKOCG:  Solving for p, Initial residual = 0.0246118, Final residual = 9.02501e-07, No Iterations 273
linear solve p 39783
time step continuity errors : sum local = 6.2615e-07, global = 1.69469e-21, cumulative = -3.73953e-20
ExecutionTime = 2.26 s  ClockTime = 2 s

Time = 0.0125

Courant Number mean: 0.180054 max: 0.917664
DILUPBiCGStab:  Solving for Ux, Initial residual = 0.00210909, Final residual = 6.87231e-07, No Iterations 5
DILUPBiCGStab:  Solving for Uy, Initial residual = 0.0054105, Final residual = 9.63162e-07, No Iterations 5
DILUPBiCGStab:  Solving for Uz, Initial residual = 0.00995375, Final residual = 2.78778e-06, No Iterations 5
linear solve U 47806
[OGL LOG] init_preconditioner : 0 ms
[OGL LOG] solve : 35 ms
BJcudaGKOCG:  Solving for p, Initial residual = 0.0202264, Final residual = 9.15033e-07, No Iterations 262
linear solve p 37062
time step continuity errors : sum local = 6.2519e-07, global = -9.86651e-20, cumulative = -1.3606e-19
[OGL LOG] init_preconditioner : 0 ms
[OGL LOG] solve : 35 ms
BJcudaGKOCG:  Solving for p, Initial residual = 0.0155683, Final residual = 9.5981e-07, No Iterations 260
linear solve p 37440
time step continuity errors : sum local = 6.2606e-07, global = 6.94811e-20, cumulative = -6.65793e-20
ExecutionTime = 2.41 s  ClockTime = 2 s

Time = 0.015

Courant Number mean: 0.181609 max: 0.918509
DILUPBiCGStab:  Solving for Ux, Initial residual = 0.00174189, Final residual = 3.58532e-07, No Iterations 5
DILUPBiCGStab:  Solving for Uy, Initial residual = 0.00457551, Final residual = 8.59276e-07, No Iterations 5
DILUPBiCGStab:  Solving for Uz, Initial residual = 0.00838575, Final residual = 2.26813e-06, No Iterations 5
linear solve U 46701
[OGL LOG] init_preconditioner : 0 ms
[OGL LOG] solve : 37 ms
BJcudaGKOCG:  Solving for p, Initial residual = 0.0124382, Final residual = 9.41585e-07, No Iterations 263
linear solve p 38914
time step continuity errors : sum local = 6.26417e-07, global = 2.93411e-20, cumulative = -3.72382e-20
[OGL LOG] init_preconditioner : 0 ms
[OGL LOG] solve : 35 ms
BJcudaGKOCG:  Solving for p, Initial residual = 0.00997478, Final residual = 9.95321e-07, No Iterations 261
linear solve p 37363
time step continuity errors : sum local = 6.26131e-07, global = -1.47166e-20, cumulative = -5.19547e-20
ExecutionTime = 2.57 s  ClockTime = 3 s

Time = 0.0175

Courant Number mean: 0.182919 max: 0.919116
DILUPBiCGStab:  Solving for Ux, Initial residual = 0.00145911, Final residual = 2.82581e-07, No Iterations 5
DILUPBiCGStab:  Solving for Uy, Initial residual = 0.0037737, Final residual = 5.3486e-07, No Iterations 5
DILUPBiCGStab:  Solving for Uz, Initial residual = 0.00672663, Final residual = 1.32566e-06, No Iterations 5
linear solve U 47584
[OGL LOG] init_preconditioner : 0 ms
[OGL LOG] solve : 36 ms
BJcudaGKOCG:  Solving for p, Initial residual = 0.00873962, Final residual = 9.90809e-07, No Iterations 265
linear solve p 37843
time step continuity errors : sum local = 6.25993e-07, global = 1.38997e-20, cumulative = -3.8055e-20
[OGL LOG] init_preconditioner : 0 ms
[OGL LOG] solve : 35 ms
BJcudaGKOCG:  Solving for p, Initial residual = 0.00701667, Final residual = 9.61004e-07, No Iterations 264
linear solve p 37066
time step continuity errors : sum local = 6.26093e-07, global = -4.68231e-20, cumulative = -8.48781e-20
ExecutionTime = 2.73 s  ClockTime = 3 s

Time = 0.02

Courant Number mean: 0.184033 max: 0.919668
DILUPBiCGStab:  Solving for Ux, Initial residual = 0.00122818, Final residual = 1.5707e-07, No Iterations 5
DILUPBiCGStab:  Solving for Uy, Initial residual = 0.00323105, Final residual = 5.22082e-07, No Iterations 5
DILUPBiCGStab:  Solving for Uz, Initial residual = 0.00573366, Final residual = 1.18081e-06, No Iterations 5
linear solve U 46797
[OGL LOG] init_preconditioner : 0 ms
[OGL LOG] solve : 35 ms
BJcudaGKOCG:  Solving for p, Initial residual = 0.00585644, Final residual = 9.97095e-07, No Iterations 256
linear solve p 37049
time step continuity errors : sum local = 6.26171e-07, global = 7.80068e-20, cumulative = -6.87132e-21
[OGL LOG] init_preconditioner : 0 ms
[OGL LOG] solve : 34 ms
BJcudaGKOCG:  Solving for p, Initial residual = 0.00491681, Final residual = 9.93452e-07, No Iterations 255
linear solve p 35981
time step continuity errors : sum local = 6.26136e-07, global = 1.54967e-20, cumulative = 8.62539e-21
ExecutionTime = 2.87 s  ClockTime = 3 s

Time = 0.0225

Courant Number mean: 0.184978 max: 0.920092
DILUPBiCGStab:  Solving for Ux, Initial residual = 0.0010412, Final residual = 1.36353e-07, No Iterations 5
DILUPBiCGStab:  Solving for Uy, Initial residual = 0.00272321, Final residual = 3.78043e-07, No Iterations 5
DILUPBiCGStab:  Solving for Uz, Initial residual = 0.00472976, Final residual = 8.7119e-07, No Iterations 5
linear solve U 46988
[OGL LOG] init_preconditioner : 0 ms
[OGL LOG] solve : 34 ms
BJcudaGKOCG:  Solving for p, Initial residual = 0.00445749, Final residual = 9.57301e-07, No Iterations 260
linear solve p 36701
time step continuity errors : sum local = 6.26056e-07, global = -5.34534e-20, cumulative = -4.48281e-20
[OGL LOG] init_preconditioner : 0 ms
[OGL LOG] solve : 35 ms
BJcudaGKOCG:  Solving for p, Initial residual = 0.00379345, Final residual = 9.80534e-07, No Iterations 259
linear solve p 37701
time step continuity errors : sum local = 6.26102e-07, global = 1.26822e-20, cumulative = -3.21458e-20
ExecutionTime = 3.04 s  ClockTime = 3 s

Time = 0.025

Courant Number mean: 0.185785 max: 0.920464
DILUPBiCGStab:  Solving for Ux, Initial residual = 0.000884705, Final residual = 9.17883e-08, No Iterations 5
DILUPBiCGStab:  Solving for Uy, Initial residual = 0.00233887, Final residual = 4.8054e-07, No Iterations 5
DILUPBiCGStab:  Solving for Uz, Initial residual = 0.00401944, Final residual = 7.58127e-07, No Iterations 5
linear solve U 48569
[OGL LOG] init_preconditioner : 0 ms
[OGL LOG] solve : 35 ms
BJcudaGKOCG:  Solving for p, Initial residual = 0.00328333, Final residual = 9.57204e-07, No Iterations 251
linear solve p 37264
time step continuity errors : sum local = 6.26118e-07, global = -1.63864e-20, cumulative = -4.85323e-20
[OGL LOG] init_preconditioner : 0 ms
[OGL LOG] solve : 34 ms
BJcudaGKOCG:  Solving for p, Initial residual = 0.00288919, Final residual = 8.66374e-07, No Iterations 251
linear solve p 36638
time step continuity errors : sum local = 6.26007e-07, global = 9.04863e-20, cumulative = 4.1954e-20
ExecutionTime = 3.18 s  ClockTime = 3 s

End

