/*---------------------------------------------------------------------------*\
  =========                 |
  \\      /  F ield         | OpenFOAM: The Open Source CFD Toolbox
   \\    /   O peration     | Website:  https://openfoam.org
    \\  /    A nd           | Version:  8
     \\/     M anipulation  |
\*---------------------------------------------------------------------------*/
Build  : 8-ef60d22ea792
Exec   : icoFoam
Date   : Sep 15 2021
Time   : 15:03:22
Host   : "uc2n482.localdomain"
PID    : 3659677
I/O    : uncollated
Case   : /pfs/data5/home/kit/scc/nq7776/data/code/OBR/lidDrivenCavity3D/Variation_init/100/Variation_mesh/55/Variation_matrix_solver/CG_BJ_CUDA/Variation_maxBlockSize/4/1631710994
nProcs : 1
sigFpe : Enabling floating point exception trapping (FOAM_SIGFPE).
fileModificationChecking : Monitoring run-time modified files using timeStampMaster (fileModificationSkew 10)
allowSystemOperations : Allowing user-supplied system call operations

// * * * * * * * * * * * * * * * * * * * * * * * * * * * * * * * * * * * * * //
Create time

Create mesh for time = 0

Reading transportProperties

Reading field p

Reading field U

Reading/calculating face flux field phi


Starting time loop

Time = 0.00181818

Courant Number mean: 0.170885 max: 0.951813
DILUPBiCGStab:  Solving for Ux, Initial residual = 0.0617772, Final residual = 8.17367e-05, No Iterations 5
DILUPBiCGStab:  Solving for Uy, Initial residual = 0.127918, Final residual = 0.000176819, No Iterations 5
DILUPBiCGStab:  Solving for Uz, Initial residual = 0.177193, Final residual = 0.000215685, No Iterations 5
linear solve U 165891
[OGL LOG] init_host_sparsity_pattern : 46 ms
[OGL LOG] matrix not stored update host matrix
[OGL LOG] update_host_mtx : 27 ms
[OGL LOG] matrix is not yet sorted, compute sorting idxs
[OGL LOG] compute_sort : 1448 ms
[OGL LOG] matrix is not yet sorted, sorting host matrix
[OGL LOG] sort_host_mtx_sparsity_pattern : 34 ms
[OGL LOG] sort_host_mtx : 18 ms
[OGL LOG] init_preconditioner : 18 ms
[OGL LOG] solve : 124 ms
BJcudaGKOCG:  Solving for p, Initial residual = 0.614449, Final residual = 9.95422e-07, No Iterations 376
linear solve p 2505077
time step continuity errors : sum local = 1.63859e-09, global = -5.29077e-20, cumulative = -5.29077e-20
[OGL LOG] init_preconditioner : 0 ms
[OGL LOG] solve : 126 ms
BJcudaGKOCG:  Solving for p, Initial residual = 0.429359, Final residual = 9.74178e-07, No Iterations 380
linear solve p 131821
time step continuity errors : sum local = 1.12266e-09, global = -3.31127e-20, cumulative = -8.60204e-20
ExecutionTime = 3.67 s  ClockTime = 4 s

Time = 0.00363636

Courant Number mean: 0.173201 max: 0.938447
DILUPBiCGStab:  Solving for Ux, Initial residual = 0.00803602, Final residual = 1.32171e-05, No Iterations 5
DILUPBiCGStab:  Solving for Uy, Initial residual = 0.0187993, Final residual = 2.49192e-05, No Iterations 5
DILUPBiCGStab:  Solving for Uz, Initial residual = 0.0434202, Final residual = 0.00013341, No Iterations 5
linear solve U 151155
[OGL LOG] init_preconditioner : 0 ms
[OGL LOG] solve : 134 ms
BJcudaGKOCG:  Solving for p, Initial residual = 0.309262, Final residual = 9.89153e-07, No Iterations 407
linear solve p 139453
time step continuity errors : sum local = 3.77562e-07, global = 2.82679e-20, cumulative = -5.77525e-20
[OGL LOG] init_preconditioner : 0 ms
[OGL LOG] solve : 133 ms
BJcudaGKOCG:  Solving for p, Initial residual = 0.196346, Final residual = 9.68321e-07, No Iterations 404
linear solve p 138957
time step continuity errors : sum local = 3.64842e-07, global = -1.74727e-20, cumulative = -7.52252e-20
ExecutionTime = 4.2 s  ClockTime = 4 s

Time = 0.00545455

Courant Number mean: 0.175253 max: 0.938256
DILUPBiCGStab:  Solving for Ux, Initial residual = 0.00374963, Final residual = 1.01145e-05, No Iterations 5
DILUPBiCGStab:  Solving for Uy, Initial residual = 0.00920305, Final residual = 1.43021e-05, No Iterations 5
DILUPBiCGStab:  Solving for Uz, Initial residual = 0.0232229, Final residual = 5.76181e-05, No Iterations 5
linear solve U 148696
[OGL LOG] init_preconditioner : 0 ms
[OGL LOG] solve : 123 ms
BJcudaGKOCG:  Solving for p, Initial residual = 0.171231, Final residual = 9.97004e-07, No Iterations 373
linear solve p 128629
time step continuity errors : sum local = 3.66595e-07, global = 1.74093e-21, cumulative = -7.34843e-20
[OGL LOG] init_preconditioner : 0 ms
[OGL LOG] solve : 124 ms
BJcudaGKOCG:  Solving for p, Initial residual = 0.116657, Final residual = 9.67274e-07, No Iterations 372
linear solve p 129159
time step continuity errors : sum local = 3.63475e-07, global = -2.3867e-20, cumulative = -9.73512e-20
ExecutionTime = 4.7 s  ClockTime = 5 s

Time = 0.00727273

Courant Number mean: 0.177048 max: 0.938779
DILUPBiCGStab:  Solving for Ux, Initial residual = 0.00266586, Final residual = 6.46365e-06, No Iterations 5
DILUPBiCGStab:  Solving for Uy, Initial residual = 0.00703999, Final residual = 1.01549e-05, No Iterations 5
DILUPBiCGStab:  Solving for Uz, Initial residual = 0.0168315, Final residual = 3.42221e-05, No Iterations 5
linear solve U 148744
[OGL LOG] init_preconditioner : 0 ms
[OGL LOG] solve : 122 ms
BJcudaGKOCG:  Solving for p, Initial residual = 0.103548, Final residual = 8.87755e-07, No Iterations 363
linear solve p 127240
time step continuity errors : sum local = 3.615e-07, global = -1.65966e-20, cumulative = -1.13948e-19
[OGL LOG] init_preconditioner : 0 ms
[OGL LOG] solve : 124 ms
BJcudaGKOCG:  Solving for p, Initial residual = 0.072917, Final residual = 8.83719e-07, No Iterations 362
linear solve p 130353
time step continuity errors : sum local = 3.63364e-07, global = -3.42219e-20, cumulative = -1.4817e-19
ExecutionTime = 5.2 s  ClockTime = 5 s

Time = 0.00909091

Courant Number mean: 0.178659 max: 0.939357
DILUPBiCGStab:  Solving for Ux, Initial residual = 0.00214454, Final residual = 4.47704e-06, No Iterations 5
DILUPBiCGStab:  Solving for Uy, Initial residual = 0.00554029, Final residual = 7.69171e-06, No Iterations 5
DILUPBiCGStab:  Solving for Uz, Initial residual = 0.0120089, Final residual = 2.15287e-05, No Iterations 5
linear solve U 149110
[OGL LOG] init_preconditioner : 0 ms
[OGL LOG] solve : 120 ms
BJcudaGKOCG:  Solving for p, Initial residual = 0.0676795, Final residual = 9.43309e-07, No Iterations 361
linear solve p 125251
time step continuity errors : sum local = 3.64719e-07, global = -3.3263e-20, cumulative = -1.81433e-19
[OGL LOG] init_preconditioner : 0 ms
[OGL LOG] solve : 120 ms
BJcudaGKOCG:  Solving for p, Initial residual = 0.0494699, Final residual = 9.90909e-07, No Iterations 359
linear solve p 126476
time step continuity errors : sum local = 3.6354e-07, global = 3.77278e-20, cumulative = -1.43705e-19
ExecutionTime = 5.71 s  ClockTime = 6 s

Time = 0.0109091

Courant Number mean: 0.180069 max: 0.939963
DILUPBiCGStab:  Solving for Ux, Initial residual = 0.00177179, Final residual = 2.99536e-06, No Iterations 5
DILUPBiCGStab:  Solving for Uy, Initial residual = 0.00472598, Final residual = 5.80074e-06, No Iterations 5
DILUPBiCGStab:  Solving for Uz, Initial residual = 0.0101096, Final residual = 1.58973e-05, No Iterations 5
linear solve U 148172
[OGL LOG] init_preconditioner : 0 ms
[OGL LOG] solve : 120 ms
BJcudaGKOCG:  Solving for p, Initial residual = 0.0441856, Final residual = 9.74552e-07, No Iterations 356
linear solve p 126056
time step continuity errors : sum local = 3.62792e-07, global = -4.40313e-20, cumulative = -1.87736e-19
[OGL LOG] init_preconditioner : 0 ms
[OGL LOG] solve : 117 ms
BJcudaGKOCG:  Solving for p, Initial residual = 0.0330912, Final residual = 9.80037e-07, No Iterations 355
linear solve p 122741
time step continuity errors : sum local = 3.63425e-07, global = -1.58522e-20, cumulative = -2.03588e-19
ExecutionTime = 6.19 s  ClockTime = 6 s

Time = 0.0127273

Courant Number mean: 0.181311 max: 0.940375
DILUPBiCGStab:  Solving for Ux, Initial residual = 0.00150046, Final residual = 1.86618e-06, No Iterations 5
DILUPBiCGStab:  Solving for Uy, Initial residual = 0.00397846, Final residual = 3.93473e-06, No Iterations 5
DILUPBiCGStab:  Solving for Uz, Initial residual = 0.00797136, Final residual = 1.14652e-05, No Iterations 5
linear solve U 151774
[OGL LOG] init_preconditioner : 0 ms
[OGL LOG] solve : 115 ms
BJcudaGKOCG:  Solving for p, Initial residual = 0.0312974, Final residual = 9.8129e-07, No Iterations 350
linear solve p 121090
time step continuity errors : sum local = 3.63822e-07, global = -4.84869e-21, cumulative = -2.08437e-19
[OGL LOG] init_preconditioner : 0 ms
[OGL LOG] solve : 115 ms
BJcudaGKOCG:  Solving for p, Initial residual = 0.0239644, Final residual = 9.79284e-07, No Iterations 349
linear solve p 120464
time step continuity errors : sum local = 3.63487e-07, global = 2.88812e-20, cumulative = -1.79556e-19
ExecutionTime = 6.68 s  ClockTime = 7 s

Time = 0.0145455

Courant Number mean: 0.182406 max: 0.940818
DILUPBiCGStab:  Solving for Ux, Initial residual = 0.0012852, Final residual = 1.12755e-06, No Iterations 5
DILUPBiCGStab:  Solving for Uy, Initial residual = 0.00349041, Final residual = 2.55923e-06, No Iterations 5
DILUPBiCGStab:  Solving for Uz, Initial residual = 0.0069411, Final residual = 8.68621e-06, No Iterations 5
linear solve U 151029
[OGL LOG] init_preconditioner : 0 ms
[OGL LOG] solve : 114 ms
BJcudaGKOCG:  Solving for p, Initial residual = 0.0214638, Final residual = 9.83847e-07, No Iterations 339
linear solve p 119074
time step continuity errors : sum local = 3.63247e-07, global = -3.15049e-20, cumulative = -2.11061e-19
[OGL LOG] init_preconditioner : 0 ms
[OGL LOG] solve : 112 ms
BJcudaGKOCG:  Solving for p, Initial residual = 0.0167046, Final residual = 9.8088e-07, No Iterations 337
linear solve p 117661
time step continuity errors : sum local = 3.63451e-07, global = -5.23058e-20, cumulative = -2.63367e-19
ExecutionTime = 7.16 s  ClockTime = 7 s

Time = 0.0163636

Courant Number mean: 0.183372 max: 0.941134
DILUPBiCGStab:  Solving for Ux, Initial residual = 0.00111633, Final residual = 7.08653e-07, No Iterations 5
DILUPBiCGStab:  Solving for Uy, Initial residual = 0.00301006, Final residual = 1.58242e-06, No Iterations 5
DILUPBiCGStab:  Solving for Uz, Initial residual = 0.00577598, Final residual = 6.12476e-06, No Iterations 5
linear solve U 150740
[OGL LOG] init_preconditioner : 0 ms
[OGL LOG] solve : 115 ms
BJcudaGKOCG:  Solving for p, Initial residual = 0.0158734, Final residual = 8.7927e-07, No Iterations 345
linear solve p 120062
time step continuity errors : sum local = 3.63511e-07, global = -4.14541e-20, cumulative = -3.04821e-19
[OGL LOG] init_preconditioner : 0 ms
[OGL LOG] solve : 117 ms
BJcudaGKOCG:  Solving for p, Initial residual = 0.0125518, Final residual = 8.93823e-07, No Iterations 344
linear solve p 123328
time step continuity errors : sum local = 3.63433e-07, global = -2.04633e-22, cumulative = -3.05025e-19
ExecutionTime = 7.65 s  ClockTime = 8 s

Time = 0.0181818

Courant Number mean: 0.18423 max: 0.941454
DILUPBiCGStab:  Solving for Ux, Initial residual = 0.000969244, Final residual = 5.33214e-07, No Iterations 5
DILUPBiCGStab:  Solving for Uy, Initial residual = 0.00267677, Final residual = 1.0941e-06, No Iterations 5
DILUPBiCGStab:  Solving for Uz, Initial residual = 0.00507942, Final residual = 5.08978e-06, No Iterations 5
linear solve U 147865
[OGL LOG] init_preconditioner : 0 ms
[OGL LOG] solve : 110 ms
BJcudaGKOCG:  Solving for p, Initial residual = 0.0112634, Final residual = 9.25637e-07, No Iterations 330
linear solve p 115797
time step continuity errors : sum local = 3.63359e-07, global = -1.71176e-20, cumulative = -3.22143e-19
[OGL LOG] init_preconditioner : 0 ms
[OGL LOG] solve : 108 ms
BJcudaGKOCG:  Solving for p, Initial residual = 0.00902386, Final residual = 9.72976e-07, No Iterations 328
linear solve p 113459
time step continuity errors : sum local = 3.63448e-07, global = 5.59033e-21, cumulative = -3.16553e-19
ExecutionTime = 8.13 s  ClockTime = 8 s

End

