/*---------------------------------------------------------------------------*\
  =========                 |
  \\      /  F ield         | OpenFOAM: The Open Source CFD Toolbox
   \\    /   O peration     | Website:  https://openfoam.org
    \\  /    A nd           | Version:  8
     \\/     M anipulation  |
\*---------------------------------------------------------------------------*/
Build  : 8-ef60d22ea792
Exec   : icoFoam
Date   : Sep 15 2021
Time   : 14:34:53
Host   : "uc2n438.localdomain"
PID    : 3552086
I/O    : uncollated
Case   : /pfs/data5/home/kit/scc/nq7776/data/code/OBR/lidDrivenCavity3D/Variation_init/100/Variation_mesh/20/Variation_matrix_solver/BiCGStab_NoPrecond_Serial/1631709292
nProcs : 1
sigFpe : Enabling floating point exception trapping (FOAM_SIGFPE).
fileModificationChecking : Monitoring run-time modified files using timeStampMaster (fileModificationSkew 10)
allowSystemOperations : Allowing user-supplied system call operations

// * * * * * * * * * * * * * * * * * * * * * * * * * * * * * * * * * * * * * //
Create time

Create mesh for time = 0

Reading transportProperties

Reading field p

Reading field U

Reading/calculating face flux field phi


Starting time loop

Time = 0.005

Courant Number mean: 0.168792 max: 0.826747
DILUPBiCGStab:  Solving for Ux, Initial residual = 0.0596409, Final residual = 2.79049e-07, No Iterations 5
DILUPBiCGStab:  Solving for Uy, Initial residual = 0.105623, Final residual = 6.64989e-07, No Iterations 5
DILUPBiCGStab:  Solving for Uz, Initial residual = 0.0982536, Final residual = 6.30071e-07, No Iterations 5
linear solve U 5887
nonePBiCGStab:  Solving for p, Initial residual = 0.521095, Final residual = 8.27935e-07, No Iterations 138
linear solve p 19646
time step continuity errors : sum local = 1.32655e-08, global = 9.48275e-20, cumulative = 9.48275e-20
nonePBiCGStab:  Solving for p, Initial residual = 0.277964, Final residual = 4.60819e-07, No Iterations 143
linear solve p 20094
time step continuity errors : sum local = 5.46613e-09, global = 3.30583e-20, cumulative = 1.27886e-19
ExecutionTime = 0.12 s  ClockTime = 0 s

Time = 0.01

Courant Number mean: 0.173354 max: 0.832293
DILUPBiCGStab:  Solving for Ux, Initial residual = 0.0156318, Final residual = 2.09962e-07, No Iterations 5
DILUPBiCGStab:  Solving for Uy, Initial residual = 0.0248833, Final residual = 2.55251e-07, No Iterations 5
DILUPBiCGStab:  Solving for Uz, Initial residual = 0.0528153, Final residual = 5.532e-07, No Iterations 5
linear solve U 4880
nonePBiCGStab:  Solving for p, Initial residual = 0.130271, Final residual = 8.81948e-07, No Iterations 141
linear solve p 19779
time step continuity errors : sum local = 1.06376e-08, global = -2.05641e-19, cumulative = -7.77555e-20
nonePBiCGStab:  Solving for p, Initial residual = 0.0847797, Final residual = 9.54694e-07, No Iterations 139
linear solve p 20745
time step continuity errors : sum local = 1.18404e-08, global = -1.43108e-19, cumulative = -2.20864e-19
ExecutionTime = 0.17 s  ClockTime = 0 s

Time = 0.015

Courant Number mean: 0.176833 max: 0.834695
DILUPBiCGStab:  Solving for Ux, Initial residual = 0.00503133, Final residual = 7.72742e-08, No Iterations 5
DILUPBiCGStab:  Solving for Uy, Initial residual = 0.0103188, Final residual = 1.32263e-07, No Iterations 5
DILUPBiCGStab:  Solving for Uz, Initial residual = 0.0184207, Final residual = 1.06541e-07, No Iterations 5
linear solve U 5889
nonePBiCGStab:  Solving for p, Initial residual = 0.0287043, Final residual = 8.91427e-07, No Iterations 121
linear solve p 18736
time step continuity errors : sum local = 1.09376e-08, global = -2.89772e-20, cumulative = -2.49841e-19
nonePBiCGStab:  Solving for p, Initial residual = 0.0184496, Final residual = 9.36953e-07, No Iterations 118
linear solve p 16685
time step continuity errors : sum local = 1.15258e-08, global = 6.88036e-20, cumulative = -1.81037e-19
ExecutionTime = 0.21 s  ClockTime = 0 s

Time = 0.02

Courant Number mean: 0.179583 max: 0.8374
DILUPBiCGStab:  Solving for Ux, Initial residual = 0.00330025, Final residual = 3.06609e-08, No Iterations 5
DILUPBiCGStab:  Solving for Uy, Initial residual = 0.00676804, Final residual = 3.14659e-08, No Iterations 5
DILUPBiCGStab:  Solving for Uz, Initial residual = 0.0105075, Final residual = 1.0563e-07, No Iterations 5
linear solve U 4941
nonePBiCGStab:  Solving for p, Initial residual = 0.0135127, Final residual = 8.03322e-07, No Iterations 116
linear solve p 16300
time step continuity errors : sum local = 9.84457e-09, global = -1.45261e-19, cumulative = -3.26298e-19
nonePBiCGStab:  Solving for p, Initial residual = 0.010264, Final residual = 6.87996e-07, No Iterations 111
linear solve p 15566
time step continuity errors : sum local = 8.43123e-09, global = 1.36569e-19, cumulative = -1.89729e-19
ExecutionTime = 0.25 s  ClockTime = 0 s

Time = 0.025

Courant Number mean: 0.181617 max: 0.839288
DILUPBiCGStab:  Solving for Ux, Initial residual = 0.00230715, Final residual = 2.32934e-08, No Iterations 5
DILUPBiCGStab:  Solving for Uy, Initial residual = 0.00494906, Final residual = 3.41849e-08, No Iterations 5
DILUPBiCGStab:  Solving for Uz, Initial residual = 0.0075835, Final residual = 6.88226e-08, No Iterations 5
linear solve U 4855
nonePBiCGStab:  Solving for p, Initial residual = 0.00631576, Final residual = 9.35989e-07, No Iterations 104
linear solve p 14668
time step continuity errors : sum local = 1.14828e-08, global = -1.20334e-19, cumulative = -3.10063e-19
nonePBiCGStab:  Solving for p, Initial residual = 0.0047897, Final residual = 8.68518e-07, No Iterations 104
linear solve p 14530
time step continuity errors : sum local = 1.06647e-08, global = 2.07992e-20, cumulative = -2.89264e-19
ExecutionTime = 0.29 s  ClockTime = 0 s

Time = 0.03

Courant Number mean: 0.183129 max: 0.840597
DILUPBiCGStab:  Solving for Ux, Initial residual = 0.00169431, Final residual = 8.04086e-09, No Iterations 5
DILUPBiCGStab:  Solving for Uy, Initial residual = 0.00373196, Final residual = 6.96423e-08, No Iterations 5
DILUPBiCGStab:  Solving for Uz, Initial residual = 0.00551663, Final residual = 5.55387e-08, No Iterations 5
linear solve U 4812
nonePBiCGStab:  Solving for p, Initial residual = 0.00459915, Final residual = 7.86461e-07, No Iterations 102
linear solve p 15073
time step continuity errors : sum local = 9.65383e-09, global = 2.21449e-19, cumulative = -6.78151e-20
nonePBiCGStab:  Solving for p, Initial residual = 0.00367036, Final residual = 9.60738e-07, No Iterations 108
linear solve p 15321
time step continuity errors : sum local = 1.17967e-08, global = 2.1668e-20, cumulative = -4.61471e-20
ExecutionTime = 0.33 s  ClockTime = 0 s

Time = 0.035

Courant Number mean: 0.184258 max: 0.841549
DILUPBiCGStab:  Solving for Ux, Initial residual = 0.00125386, Final residual = 6.89813e-09, No Iterations 5
DILUPBiCGStab:  Solving for Uy, Initial residual = 0.00280641, Final residual = 6.52789e-08, No Iterations 5
DILUPBiCGStab:  Solving for Uz, Initial residual = 0.00407006, Final residual = 3.92703e-08, No Iterations 5
linear solve U 4928
nonePBiCGStab:  Solving for p, Initial residual = 0.00302852, Final residual = 8.13817e-07, No Iterations 102
linear solve p 14239
time step continuity errors : sum local = 9.99059e-09, global = 7.8312e-20, cumulative = 3.21649e-20
nonePBiCGStab:  Solving for p, Initial residual = 0.00242051, Final residual = 9.92031e-07, No Iterations 104
linear solve p 14437
time step continuity errors : sum local = 1.21892e-08, global = -3.99399e-20, cumulative = -7.77498e-21
ExecutionTime = 0.37 s  ClockTime = 0 s

Time = 0.04

Courant Number mean: 0.185103 max: 0.842238
DILUPBiCGStab:  Solving for Ux, Initial residual = 0.000937876, Final residual = 3.96088e-09, No Iterations 5
DILUPBiCGStab:  Solving for Uy, Initial residual = 0.00212527, Final residual = 7.09555e-08, No Iterations 5
DILUPBiCGStab:  Solving for Uz, Initial residual = 0.00300671, Final residual = 2.94845e-08, No Iterations 5
linear solve U 4882
nonePBiCGStab:  Solving for p, Initial residual = 0.00228817, Final residual = 9.76386e-07, No Iterations 50
linear solve p 7203
time step continuity errors : sum local = 1.19446e-08, global = -2.04003e-20, cumulative = -2.81753e-20
nonePBiCGStab:  Solving for p, Initial residual = 0.00185453, Final residual = 9.15895e-07, No Iterations 46
linear solve p 6550
time step continuity errors : sum local = 9.04555e-09, global = 2.22777e-19, cumulative = 1.94602e-19
ExecutionTime = 0.39 s  ClockTime = 0 s

Time = 0.045

Courant Number mean: 0.185737 max: 0.84274
DILUPBiCGStab:  Solving for Ux, Initial residual = 0.0007053, Final residual = 3.08869e-09, No Iterations 5
DILUPBiCGStab:  Solving for Uy, Initial residual = 0.00161079, Final residual = 1.07909e-07, No Iterations 5
DILUPBiCGStab:  Solving for Uz, Initial residual = 0.00222286, Final residual = 2.03148e-08, No Iterations 5
linear solve U 4834
nonePBiCGStab:  Solving for p, Initial residual = 0.00168271, Final residual = 9.88246e-07, No Iterations 51
linear solve p 7375
time step continuity errors : sum local = 1.14082e-08, global = 6.86294e-20, cumulative = 2.63231e-19
nonePBiCGStab:  Solving for p, Initial residual = 0.001361, Final residual = 9.77356e-07, No Iterations 47
linear solve p 6614
time step continuity errors : sum local = 7.50763e-09, global = 1.57803e-19, cumulative = 4.21034e-19
ExecutionTime = 0.41 s  ClockTime = 0 s

Time = 0.05

Courant Number mean: 0.186213 max: 0.843109
DILUPBiCGStab:  Solving for Ux, Initial residual = 0.000532883, Final residual = 2.12754e-09, No Iterations 5
DILUPBiCGStab:  Solving for Uy, Initial residual = 0.00122369, Final residual = 6.36843e-07, No Iterations 5
DILUPBiCGStab:  Solving for Uz, Initial residual = 0.00164428, Final residual = 1.51579e-08, No Iterations 5
linear solve U 5005
nonePBiCGStab:  Solving for p, Initial residual = 0.00127201, Final residual = 9.98248e-07, No Iterations 47
linear solve p 6595
time step continuity errors : sum local = 1.07218e-08, global = 2.60678e-19, cumulative = 6.81712e-19
nonePBiCGStab:  Solving for p, Initial residual = 0.00103146, Final residual = 9.51015e-07, No Iterations 41
linear solve p 5768
time step continuity errors : sum local = 6.04999e-09, global = 1.08179e-19, cumulative = 7.89892e-19
ExecutionTime = 0.43 s  ClockTime = 0 s

End

