/*---------------------------------------------------------------------------*\
  =========                 |
  \\      /  F ield         | OpenFOAM: The Open Source CFD Toolbox
   \\    /   O peration     | Website:  https://openfoam.org
    \\  /    A nd           | Version:  8
     \\/     M anipulation  |
\*---------------------------------------------------------------------------*/
Build  : 8-ef60d22ea792
Exec   : icoFoam
Date   : Sep 15 2021
Time   : 14:54:25
Host   : "uc2n482.localdomain"
PID    : 3655695
I/O    : uncollated
Case   : /pfs/data5/home/kit/scc/nq7776/data/code/OBR/lidDrivenCavity3D/Variation_init/100/Variation_mesh/85/Variation_matrix_solver/IR_NoPrecond_CUDA/Variation_innerReductionFactor/0.01/1631710441
nProcs : 1
sigFpe : Enabling floating point exception trapping (FOAM_SIGFPE).
fileModificationChecking : Monitoring run-time modified files using timeStampMaster (fileModificationSkew 10)
allowSystemOperations : Allowing user-supplied system call operations

// * * * * * * * * * * * * * * * * * * * * * * * * * * * * * * * * * * * * * //
Create time

Create mesh for time = 0

Reading transportProperties

Reading field p

Reading field U

Reading/calculating face flux field phi


Starting time loop

Time = 0.00117647

Courant Number mean: 0.17078 max: 0.958539
DILUPBiCGStab:  Solving for Ux, Initial residual = 0.08035, Final residual = 0.000200532, No Iterations 5
DILUPBiCGStab:  Solving for Uy, Initial residual = 0.159613, Final residual = 0.00056519, No Iterations 5
DILUPBiCGStab:  Solving for Uz, Initial residual = 0.222246, Final residual = 0.000790216, No Iterations 5
linear solve U 653528
[OGL LOG] init_host_sparsity_pattern : 183 ms
[OGL LOG] matrix not stored update host matrix
[OGL LOG] update_host_mtx : 96 ms
[OGL LOG] matrix is not yet sorted, compute sorting idxs
[OGL LOG] compute_sort : 5758 ms
[OGL LOG] matrix is not yet sorted, sorting host matrix
[OGL LOG] sort_host_mtx_sparsity_pattern : 126 ms
[OGL LOG] sort_host_mtx : 76 ms
[OGL LOG] init_preconditioner : 0 ms
[OGL LOG] solve : 323 ms
nonecudaGKOIR:  Solving for p, Initial residual = 0.643964, Final residual = 2.65252e-08, No Iterations 4
linear solve p 7367701
time step continuity errors : sum local = 2.12883e-11, global = -1.00976e-20, cumulative = -1.00976e-20
[OGL LOG] init_preconditioner : 0 ms
[OGL LOG] solve : 326 ms
nonecudaGKOIR:  Solving for p, Initial residual = 0.369996, Final residual = 1.61058e-08, No Iterations 4
linear solve p 345894
time step continuity errors : sum local = 1.1493e-11, global = 1.28909e-20, cumulative = 2.79335e-21
ExecutionTime = 11.58 s  ClockTime = 11 s

Time = 0.00235294

Courant Number mean: 0.17242 max: 0.959521
DILUPBiCGStab:  Solving for Ux, Initial residual = 0.0066867, Final residual = 4.22367e-05, No Iterations 5
DILUPBiCGStab:  Solving for Uy, Initial residual = 0.0171906, Final residual = 0.000144527, No Iterations 5
DILUPBiCGStab:  Solving for Uz, Initial residual = 0.0433635, Final residual = 0.000582272, No Iterations 5
linear solve U 613152
[OGL LOG] init_preconditioner : 0 ms
[OGL LOG] solve : 337 ms
nonecudaGKOIR:  Solving for p, Initial residual = 0.435511, Final residual = 1.27022e-08, No Iterations 4
linear solve p 356130
time step continuity errors : sum local = 8.0963e-08, global = 9.47812e-21, cumulative = 1.22715e-20
[OGL LOG] init_preconditioner : 0 ms
[OGL LOG] solve : 320 ms
nonecudaGKOIR:  Solving for p, Initial residual = 0.303854, Final residual = 8.90818e-07, No Iterations 3
linear solve p 339216
time step continuity errors : sum local = 7.01655e-08, global = 5.73819e-21, cumulative = 1.80097e-20
ExecutionTime = 13.24 s  ClockTime = 13 s

Time = 0.00352941

Courant Number mean: 0.173894 max: 0.959456
DILUPBiCGStab:  Solving for Ux, Initial residual = 0.00333713, Final residual = 3.14696e-05, No Iterations 5
DILUPBiCGStab:  Solving for Uy, Initial residual = 0.00945613, Final residual = 8.96574e-05, No Iterations 5
DILUPBiCGStab:  Solving for Uz, Initial residual = 0.0306861, Final residual = 0.000410325, No Iterations 5
linear solve U 598045
[OGL LOG] init_preconditioner : 0 ms
[OGL LOG] solve : 292 ms
nonecudaGKOIR:  Solving for p, Initial residual = 0.299931, Final residual = 6.67967e-07, No Iterations 3
linear solve p 311896
time step continuity errors : sum local = 6.81851e-08, global = -1.59109e-20, cumulative = 2.09877e-21
[OGL LOG] init_preconditioner : 0 ms
[OGL LOG] solve : 298 ms
nonecudaGKOIR:  Solving for p, Initial residual = 0.215688, Final residual = 5.72656e-07, No Iterations 3
linear solve p 317142
time step continuity errors : sum local = 6.83297e-08, global = -2.20374e-20, cumulative = -1.99387e-20
ExecutionTime = 14.81 s  ClockTime = 15 s

Time = 0.00470588

Courant Number mean: 0.175264 max: 0.959792
DILUPBiCGStab:  Solving for Ux, Initial residual = 0.00248731, Final residual = 2.07234e-05, No Iterations 5
DILUPBiCGStab:  Solving for Uy, Initial residual = 0.00741672, Final residual = 5.77355e-05, No Iterations 5
DILUPBiCGStab:  Solving for Uz, Initial residual = 0.0248498, Final residual = 0.000346965, No Iterations 5
linear solve U 603856
[OGL LOG] init_preconditioner : 0 ms
[OGL LOG] solve : 295 ms
nonecudaGKOIR:  Solving for p, Initial residual = 0.231305, Final residual = 4.93944e-07, No Iterations 3
linear solve p 315781
time step continuity errors : sum local = 6.97903e-08, global = 6.12395e-21, cumulative = -1.38147e-20
[OGL LOG] init_preconditioner : 0 ms
[OGL LOG] solve : 307 ms
nonecudaGKOIR:  Solving for p, Initial residual = 0.174242, Final residual = 3.85635e-07, No Iterations 3
linear solve p 326386
time step continuity errors : sum local = 6.90267e-08, global = -3.46386e-20, cumulative = -4.84533e-20
ExecutionTime = 16.43 s  ClockTime = 16 s

Time = 0.00588235

Courant Number mean: 0.176537 max: 0.960088
DILUPBiCGStab:  Solving for Ux, Initial residual = 0.0020561, Final residual = 1.50288e-05, No Iterations 5
DILUPBiCGStab:  Solving for Uy, Initial residual = 0.00597111, Final residual = 3.61319e-05, No Iterations 5
DILUPBiCGStab:  Solving for Uz, Initial residual = 0.0198562, Final residual = 0.000272469, No Iterations 5
linear solve U 597449
[OGL LOG] init_preconditioner : 0 ms
[OGL LOG] solve : 278 ms
nonecudaGKOIR:  Solving for p, Initial residual = 0.174288, Final residual = 3.64527e-07, No Iterations 3
linear solve p 297647
time step continuity errors : sum local = 6.90662e-08, global = -7.94949e-21, cumulative = -5.64028e-20
[OGL LOG] init_preconditioner : 0 ms
[OGL LOG] solve : 291 ms
nonecudaGKOIR:  Solving for p, Initial residual = 0.135155, Final residual = 2.67391e-07, No Iterations 3
linear solve p 312861
time step continuity errors : sum local = 6.86214e-08, global = 9.24339e-21, cumulative = -4.71594e-20
ExecutionTime = 18 s  ClockTime = 18 s

Time = 0.00705882

Courant Number mean: 0.177704 max: 0.960428
DILUPBiCGStab:  Solving for Ux, Initial residual = 0.00174907, Final residual = 1.21878e-05, No Iterations 5
DILUPBiCGStab:  Solving for Uy, Initial residual = 0.00512413, Final residual = 2.67732e-05, No Iterations 5
DILUPBiCGStab:  Solving for Uz, Initial residual = 0.0165768, Final residual = 0.000216556, No Iterations 5
linear solve U 597728
[OGL LOG] init_preconditioner : 0 ms
[OGL LOG] solve : 286 ms
nonecudaGKOIR:  Solving for p, Initial residual = 0.141169, Final residual = 2.56417e-07, No Iterations 3
linear solve p 305831
time step continuity errors : sum local = 6.87961e-08, global = 4.55174e-20, cumulative = -1.64201e-21
[OGL LOG] init_preconditioner : 0 ms
[OGL LOG] solve : 289 ms
nonecudaGKOIR:  Solving for p, Initial residual = 0.112335, Final residual = 2.24608e-07, No Iterations 3
linear solve p 309343
time step continuity errors : sum local = 6.8811e-08, global = -3.67961e-20, cumulative = -3.84381e-20
ExecutionTime = 19.58 s  ClockTime = 20 s

Time = 0.00823529

Courant Number mean: 0.178771 max: 0.960686
DILUPBiCGStab:  Solving for Ux, Initial residual = 0.00151463, Final residual = 9.78456e-06, No Iterations 5
DILUPBiCGStab:  Solving for Uy, Initial residual = 0.00444477, Final residual = 2.00469e-05, No Iterations 5
DILUPBiCGStab:  Solving for Uz, Initial residual = 0.0136241, Final residual = 0.000161983, No Iterations 5
linear solve U 591974
[OGL LOG] init_preconditioner : 0 ms
[OGL LOG] solve : 291 ms
nonecudaGKOIR:  Solving for p, Initial residual = 0.11392, Final residual = 1.88743e-07, No Iterations 3
linear solve p 310815
time step continuity errors : sum local = 6.89748e-08, global = 7.81886e-21, cumulative = -3.06193e-20
[OGL LOG] init_preconditioner : 0 ms
[OGL LOG] solve : 295 ms
nonecudaGKOIR:  Solving for p, Initial residual = 0.0918218, Final residual = 1.60267e-07, No Iterations 3
linear solve p 314543
time step continuity errors : sum local = 6.86877e-08, global = 7.45133e-21, cumulative = -2.3168e-20
ExecutionTime = 21.15 s  ClockTime = 21 s

Time = 0.00941176

Courant Number mean: 0.179753 max: 0.960953
DILUPBiCGStab:  Solving for Ux, Initial residual = 0.00134501, Final residual = 8.3965e-06, No Iterations 5
DILUPBiCGStab:  Solving for Uy, Initial residual = 0.00391834, Final residual = 1.6492e-05, No Iterations 5
DILUPBiCGStab:  Solving for Uz, Initial residual = 0.0115641, Final residual = 0.000123222, No Iterations 5
linear solve U 594704
[OGL LOG] init_preconditioner : 0 ms
[OGL LOG] solve : 285 ms
nonecudaGKOIR:  Solving for p, Initial residual = 0.0945187, Final residual = 1.5244e-07, No Iterations 3
linear solve p 304181
time step continuity errors : sum local = 6.86924e-08, global = 2.83325e-20, cumulative = 5.16453e-21
[OGL LOG] init_preconditioner : 0 ms
[OGL LOG] solve : 286 ms
nonecudaGKOIR:  Solving for p, Initial residual = 0.0771013, Final residual = 1.38587e-07, No Iterations 3
linear solve p 305192
time step continuity errors : sum local = 6.87479e-08, global = 1.50793e-22, cumulative = 5.31533e-21
ExecutionTime = 22.7 s  ClockTime = 23 s

Time = 0.0105882

Courant Number mean: 0.180649 max: 0.961168
DILUPBiCGStab:  Solving for Ux, Initial residual = 0.00118528, Final residual = 6.93789e-06, No Iterations 5
DILUPBiCGStab:  Solving for Uy, Initial residual = 0.00349481, Final residual = 1.38695e-05, No Iterations 5
DILUPBiCGStab:  Solving for Uz, Initial residual = 0.00963747, Final residual = 8.7143e-05, No Iterations 5
linear solve U 605879
[OGL LOG] init_preconditioner : 0 ms
[OGL LOG] solve : 292 ms
nonecudaGKOIR:  Solving for p, Initial residual = 0.0787013, Final residual = 1.29569e-07, No Iterations 3
linear solve p 312423
time step continuity errors : sum local = 6.88719e-08, global = 1.82034e-20, cumulative = 2.35187e-20
[OGL LOG] init_preconditioner : 0 ms
[OGL LOG] solve : 296 ms
nonecudaGKOIR:  Solving for p, Initial residual = 0.0645, Final residual = 1.06486e-07, No Iterations 3
linear solve p 315937
time step continuity errors : sum local = 6.8706e-08, global = 6.30762e-21, cumulative = 2.98264e-20
ExecutionTime = 24.31 s  ClockTime = 24 s

Time = 0.0117647

Courant Number mean: 0.181477 max: 0.961382
DILUPBiCGStab:  Solving for Ux, Initial residual = 0.00107352, Final residual = 6.1224e-06, No Iterations 5
DILUPBiCGStab:  Solving for Uy, Initial residual = 0.00312574, Final residual = 1.24592e-05, No Iterations 5
DILUPBiCGStab:  Solving for Uz, Initial residual = 0.00836281, Final residual = 6.59432e-05, No Iterations 5
linear solve U 592359
[OGL LOG] init_preconditioner : 0 ms
[OGL LOG] solve : 286 ms
nonecudaGKOIR:  Solving for p, Initial residual = 0.065894, Final residual = 9.81032e-08, No Iterations 3
linear solve p 305060
time step continuity errors : sum local = 6.86854e-08, global = -4.42119e-21, cumulative = 2.54052e-20
[OGL LOG] init_preconditioner : 0 ms
[OGL LOG] solve : 287 ms
nonecudaGKOIR:  Solving for p, Initial residual = 0.0542662, Final residual = 8.47662e-08, No Iterations 3
linear solve p 306827
time step continuity errors : sum local = 6.87256e-08, global = -3.0151e-21, cumulative = 2.23901e-20
ExecutionTime = 25.86 s  ClockTime = 26 s

End

