/*---------------------------------------------------------------------------*\
  =========                 |
  \\      /  F ield         | OpenFOAM: The Open Source CFD Toolbox
   \\    /   O peration     | Website:  https://openfoam.org
    \\  /    A nd           | Version:  8
     \\/     M anipulation  |
\*---------------------------------------------------------------------------*/
Build  : 8-ef60d22ea792
Exec   : icoFoam
Date   : Sep 15 2021
Time   : 13:47:47
Host   : "uc2n438.localdomain"
PID    : 3544957
I/O    : uncollated
Case   : /pfs/data5/home/kit/scc/nq7776/data/code/OBR/lidDrivenCavity3D/Variation_init/100/Variation_mesh/30/Variation_matrix_solver/CG_DIC_Serial/1631706466
nProcs : 1
sigFpe : Enabling floating point exception trapping (FOAM_SIGFPE).
fileModificationChecking : Monitoring run-time modified files using timeStampMaster (fileModificationSkew 10)
allowSystemOperations : Allowing user-supplied system call operations

// * * * * * * * * * * * * * * * * * * * * * * * * * * * * * * * * * * * * * //
Create time

Create mesh for time = 0

Reading transportProperties

Reading field p

Reading field U

Reading/calculating face flux field phi


Starting time loop

Time = 0.00333333

Courant Number mean: 0.169907 max: 0.893517
DILUPBiCGStab:  Solving for Ux, Initial residual = 0.0911511, Final residual = 3.95829e-06, No Iterations 5
DILUPBiCGStab:  Solving for Uy, Initial residual = 0.158672, Final residual = 5.65407e-06, No Iterations 5
DILUPBiCGStab:  Solving for Uz, Initial residual = 0.266117, Final residual = 9.88141e-06, No Iterations 5
linear solve U 20728
DICPCG:  Solving for p, Initial residual = 0.542954, Final residual = 9.00985e-07, No Iterations 78
linear solve p 36415
time step continuity errors : sum local = 4.21132e-09, global = -2.1091e-20, cumulative = -2.1091e-20
DICPCG:  Solving for p, Initial residual = 0.318921, Final residual = 9.24411e-07, No Iterations 78
linear solve p 36413
time step continuity errors : sum local = 2.83844e-09, global = -7.02866e-20, cumulative = -9.13776e-20
ExecutionTime = 0.26 s  ClockTime = 0 s

Time = 0.00666667

Courant Number mean: 0.173776 max: 0.888266
DILUPBiCGStab:  Solving for Ux, Initial residual = 0.0119482, Final residual = 2.97168e-06, No Iterations 5
DILUPBiCGStab:  Solving for Uy, Initial residual = 0.0223252, Final residual = 3.40216e-06, No Iterations 5
DILUPBiCGStab:  Solving for Uz, Initial residual = 0.0596879, Final residual = 5.25461e-06, No Iterations 5
linear solve U 18862
DICPCG:  Solving for p, Initial residual = 0.156724, Final residual = 7.19059e-07, No Iterations 77
linear solve p 36144
time step continuity errors : sum local = 2.15761e-09, global = 2.31232e-20, cumulative = -6.82544e-20
DICPCG:  Solving for p, Initial residual = 0.0960182, Final residual = 4.6733e-07, No Iterations 77
linear solve p 35728
time step continuity errors : sum local = 1.40365e-09, global = 2.33948e-20, cumulative = -4.48597e-20
ExecutionTime = 0.37 s  ClockTime = 0 s

Time = 0.01

Courant Number mean: 0.176716 max: 0.888542
DILUPBiCGStab:  Solving for Ux, Initial residual = 0.00409269, Final residual = 6.70167e-07, No Iterations 5
DILUPBiCGStab:  Solving for Uy, Initial residual = 0.00964185, Final residual = 1.18554e-06, No Iterations 5
DILUPBiCGStab:  Solving for Uz, Initial residual = 0.0232397, Final residual = 3.07827e-06, No Iterations 5
linear solve U 18225
DICPCG:  Solving for p, Initial residual = 0.0542646, Final residual = 9.4854e-07, No Iterations 74
linear solve p 34111
time step continuity errors : sum local = 2.79181e-09, global = 4.87115e-20, cumulative = 3.85184e-21
DICPCG:  Solving for p, Initial residual = 0.0362366, Final residual = 9.90653e-07, No Iterations 73
linear solve p 34268
time step continuity errors : sum local = 2.9281e-09, global = 4.78312e-20, cumulative = 5.1683e-20
ExecutionTime = 0.47 s  ClockTime = 0 s

Time = 0.0133333

Courant Number mean: 0.179156 max: 0.890256
DILUPBiCGStab:  Solving for Ux, Initial residual = 0.00297517, Final residual = 3.25939e-07, No Iterations 5
DILUPBiCGStab:  Solving for Uy, Initial residual = 0.00703794, Final residual = 6.19792e-07, No Iterations 5
DILUPBiCGStab:  Solving for Uz, Initial residual = 0.0128689, Final residual = 1.19789e-06, No Iterations 5
linear solve U 18265
DICPCG:  Solving for p, Initial residual = 0.0253439, Final residual = 8.75311e-07, No Iterations 72
linear solve p 33618
time step continuity errors : sum local = 2.54649e-09, global = 8.0731e-20, cumulative = 1.32414e-19
DICPCG:  Solving for p, Initial residual = 0.0181695, Final residual = 9.39861e-07, No Iterations 69
linear solve p 32150
time step continuity errors : sum local = 2.73026e-09, global = -1.20582e-19, cumulative = 1.18318e-20
ExecutionTime = 0.56 s  ClockTime = 0 s

Time = 0.0166667

Courant Number mean: 0.181129 max: 0.891457
DILUPBiCGStab:  Solving for Ux, Initial residual = 0.00228104, Final residual = 2.37418e-07, No Iterations 5
DILUPBiCGStab:  Solving for Uy, Initial residual = 0.00534307, Final residual = 4.69062e-07, No Iterations 5
DILUPBiCGStab:  Solving for Uz, Initial residual = 0.00928418, Final residual = 5.65272e-07, No Iterations 5
linear solve U 18164
DICPCG:  Solving for p, Initial residual = 0.0142908, Final residual = 9.10739e-07, No Iterations 71
linear solve p 33428
time step continuity errors : sum local = 2.65175e-09, global = 1.85971e-19, cumulative = 1.97803e-19
DICPCG:  Solving for p, Initial residual = 0.0104775, Final residual = 7.44958e-07, No Iterations 71
linear solve p 33427
time step continuity errors : sum local = 2.17225e-09, global = -9.36228e-20, cumulative = 1.0418e-19
ExecutionTime = 0.66 s  ClockTime = 1 s

Time = 0.02

Courant Number mean: 0.182723 max: 0.892519
DILUPBiCGStab:  Solving for Ux, Initial residual = 0.00179242, Final residual = 1.4303e-07, No Iterations 5
DILUPBiCGStab:  Solving for Uy, Initial residual = 0.00435016, Final residual = 3.47752e-07, No Iterations 5
DILUPBiCGStab:  Solving for Uz, Initial residual = 0.00736208, Final residual = 4.39794e-07, No Iterations 5
linear solve U 18266
DICPCG:  Solving for p, Initial residual = 0.00820792, Final residual = 8.37332e-07, No Iterations 70
linear solve p 32915
time step continuity errors : sum local = 2.43486e-09, global = 3.81705e-20, cumulative = 1.4235e-19
DICPCG:  Solving for p, Initial residual = 0.0065364, Final residual = 8.62545e-07, No Iterations 69
linear solve p 32490
time step continuity errors : sum local = 2.50785e-09, global = 7.03655e-21, cumulative = 1.49387e-19
ExecutionTime = 0.76 s  ClockTime = 1 s

Time = 0.0233333

Courant Number mean: 0.184011 max: 0.893289
DILUPBiCGStab:  Solving for Ux, Initial residual = 0.00143713, Final residual = 1.09338e-07, No Iterations 5
DILUPBiCGStab:  Solving for Uy, Initial residual = 0.00347898, Final residual = 2.43271e-07, No Iterations 5
DILUPBiCGStab:  Solving for Uz, Initial residual = 0.00575776, Final residual = 2.57295e-07, No Iterations 5
linear solve U 18080
DICPCG:  Solving for p, Initial residual = 0.00545487, Final residual = 7.36651e-07, No Iterations 67
linear solve p 31603
time step continuity errors : sum local = 2.14271e-09, global = 1.03621e-19, cumulative = 2.53008e-19
DICPCG:  Solving for p, Initial residual = 0.00442721, Final residual = 6.58109e-07, No Iterations 67
linear solve p 31034
time step continuity errors : sum local = 1.9152e-09, global = -1.03618e-20, cumulative = 2.42647e-19
ExecutionTime = 0.85 s  ClockTime = 1 s

Time = 0.0266667

Courant Number mean: 0.185057 max: 0.893926
DILUPBiCGStab:  Solving for Ux, Initial residual = 0.00115894, Final residual = 5.42797e-08, No Iterations 5
DILUPBiCGStab:  Solving for Uy, Initial residual = 0.0028549, Final residual = 1.87739e-07, No Iterations 5
DILUPBiCGStab:  Solving for Uz, Initial residual = 0.00465457, Final residual = 2.32295e-07, No Iterations 5
linear solve U 18189
DICPCG:  Solving for p, Initial residual = 0.00385791, Final residual = 8.35111e-07, No Iterations 67
linear solve p 31354
time step continuity errors : sum local = 2.43048e-09, global = -6.39125e-20, cumulative = 1.78734e-19
DICPCG:  Solving for p, Initial residual = 0.00327633, Final residual = 9.73333e-07, No Iterations 66
linear solve p 31403
time step continuity errors : sum local = 2.83266e-09, global = 8.6501e-20, cumulative = 2.65235e-19
ExecutionTime = 0.94 s  ClockTime = 1 s

Time = 0.03

Courant Number mean: 0.185908 max: 0.894414
DILUPBiCGStab:  Solving for Ux, Initial residual = 0.000942619, Final residual = 5.14401e-08, No Iterations 5
DILUPBiCGStab:  Solving for Uy, Initial residual = 0.0023245, Final residual = 1.37824e-07, No Iterations 5
DILUPBiCGStab:  Solving for Uz, Initial residual = 0.00370846, Final residual = 1.70396e-07, No Iterations 5
linear solve U 18064
DICPCG:  Solving for p, Initial residual = 0.00291735, Final residual = 8.15804e-07, No Iterations 66
linear solve p 31083
time step continuity errors : sum local = 2.37511e-09, global = 1.18682e-20, cumulative = 2.77103e-19
DICPCG:  Solving for p, Initial residual = 0.00251615, Final residual = 9.21761e-07, No Iterations 65
linear solve p 31091
time step continuity errors : sum local = 2.68399e-09, global = 2.69448e-20, cumulative = 3.04048e-19
ExecutionTime = 1.04 s  ClockTime = 1 s

Time = 0.0333333

Courant Number mean: 0.186602 max: 0.894809
DILUPBiCGStab:  Solving for Ux, Initial residual = 0.000767535, Final residual = 2.95576e-08, No Iterations 5
DILUPBiCGStab:  Solving for Uy, Initial residual = 0.00191399, Final residual = 1.26374e-07, No Iterations 5
DILUPBiCGStab:  Solving for Uz, Initial residual = 0.00299428, Final residual = 1.45493e-07, No Iterations 5
linear solve U 18280
DICPCG:  Solving for p, Initial residual = 0.00225667, Final residual = 9.58627e-07, No Iterations 64
linear solve p 29809
time step continuity errors : sum local = 2.79088e-09, global = 1.05311e-19, cumulative = 4.09359e-19
DICPCG:  Solving for p, Initial residual = 0.00198027, Final residual = 9.55978e-07, No Iterations 63
linear solve p 29723
time step continuity errors : sum local = 2.78349e-09, global = -9.04838e-21, cumulative = 4.00311e-19
ExecutionTime = 1.13 s  ClockTime = 1 s

End

