/*---------------------------------------------------------------------------*\
  =========                 |
  \\      /  F ield         | OpenFOAM: The Open Source CFD Toolbox
   \\    /   O peration     | Website:  https://openfoam.org
    \\  /    A nd           | Version:  8
     \\/     M anipulation  |
\*---------------------------------------------------------------------------*/
Build  : 8-ef60d22ea792
Exec   : icoFoam
Date   : Sep 15 2021
Time   : 15:05:21
Host   : "uc2n482.localdomain"
PID    : 3660464
I/O    : uncollated
Case   : /pfs/data5/home/kit/scc/nq7776/data/code/OBR/lidDrivenCavity3D/Variation_init/100/Variation_mesh/55/Variation_matrix_solver/IR_NoPrecond_CUDA/Variation_innerReductionFactor/0.05/1631711114
nProcs : 1
sigFpe : Enabling floating point exception trapping (FOAM_SIGFPE).
fileModificationChecking : Monitoring run-time modified files using timeStampMaster (fileModificationSkew 10)
allowSystemOperations : Allowing user-supplied system call operations

// * * * * * * * * * * * * * * * * * * * * * * * * * * * * * * * * * * * * * //
Create time

Create mesh for time = 0

Reading transportProperties

Reading field p

Reading field U

Reading/calculating face flux field phi


Starting time loop

Time = 0.00181818

Courant Number mean: 0.170885 max: 0.951813
DILUPBiCGStab:  Solving for Ux, Initial residual = 0.0617772, Final residual = 8.17367e-05, No Iterations 5
DILUPBiCGStab:  Solving for Uy, Initial residual = 0.127918, Final residual = 0.000176819, No Iterations 5
DILUPBiCGStab:  Solving for Uz, Initial residual = 0.177193, Final residual = 0.000215685, No Iterations 5
linear solve U 160861
[OGL LOG] init_host_sparsity_pattern : 45 ms
[OGL LOG] matrix not stored update host matrix
[OGL LOG] update_host_mtx : 26 ms
[OGL LOG] matrix is not yet sorted, compute sorting idxs
[OGL LOG] compute_sort : 1461 ms
[OGL LOG] matrix is not yet sorted, sorting host matrix
[OGL LOG] sort_host_mtx_sparsity_pattern : 32 ms
[OGL LOG] sort_host_mtx : 20 ms
[OGL LOG] init_preconditioner : 0 ms
[OGL LOG] solve : 97 ms
nonecudaGKOIR:  Solving for p, Initial residual = 0.614449, Final residual = 6.51783e-08, No Iterations 6
linear solve p 2451019
time step continuity errors : sum local = 1.09551e-10, global = -1.81849e-21, cumulative = -1.81849e-21
[OGL LOG] init_preconditioner : 0 ms
[OGL LOG] solve : 85 ms
nonecudaGKOIR:  Solving for p, Initial residual = 0.429359, Final residual = 6.79453e-07, No Iterations 5
linear solve p 90388
time step continuity errors : sum local = 7.82968e-10, global = -4.2486e-20, cumulative = -4.43045e-20
ExecutionTime = 3.57 s  ClockTime = 4 s

Time = 0.00363636

Courant Number mean: 0.173201 max: 0.938447
DILUPBiCGStab:  Solving for Ux, Initial residual = 0.008036, Final residual = 1.32171e-05, No Iterations 5
DILUPBiCGStab:  Solving for Uy, Initial residual = 0.0187993, Final residual = 2.49185e-05, No Iterations 5
DILUPBiCGStab:  Solving for Uz, Initial residual = 0.0434192, Final residual = 0.0001334, No Iterations 5
linear solve U 147425
[OGL LOG] init_preconditioner : 0 ms
[OGL LOG] solve : 92 ms
nonecudaGKOIR:  Solving for p, Initial residual = 0.309262, Final residual = 2.69314e-07, No Iterations 5
linear solve p 98004
time step continuity errors : sum local = 3.77163e-07, global = 4.91779e-20, cumulative = 4.87338e-21
[OGL LOG] init_preconditioner : 0 ms
[OGL LOG] solve : 88 ms
nonecudaGKOIR:  Solving for p, Initial residual = 0.196346, Final residual = 1.61561e-07, No Iterations 5
linear solve p 93909
time step continuity errors : sum local = 3.64442e-07, global = -2.04209e-20, cumulative = -1.55475e-20
ExecutionTime = 4 s  ClockTime = 4 s

Time = 0.00545455

Courant Number mean: 0.175253 max: 0.938256
DILUPBiCGStab:  Solving for Ux, Initial residual = 0.0037496, Final residual = 1.01144e-05, No Iterations 5
DILUPBiCGStab:  Solving for Uy, Initial residual = 0.00920291, Final residual = 1.43024e-05, No Iterations 5
DILUPBiCGStab:  Solving for Uz, Initial residual = 0.0232236, Final residual = 5.76177e-05, No Iterations 5
linear solve U 153510
[OGL LOG] init_preconditioner : 0 ms
[OGL LOG] solve : 91 ms
nonecudaGKOIR:  Solving for p, Initial residual = 0.17123, Final residual = 1.10815e-07, No Iterations 5
linear solve p 96151
time step continuity errors : sum local = 3.66221e-07, global = 2.80148e-20, cumulative = 1.24673e-20
[OGL LOG] init_preconditioner : 0 ms
[OGL LOG] solve : 96 ms
nonecudaGKOIR:  Solving for p, Initial residual = 0.116657, Final residual = 8.54812e-08, No Iterations 5
linear solve p 101777
time step continuity errors : sum local = 3.63099e-07, global = 4.55636e-21, cumulative = 1.70236e-20
ExecutionTime = 4.44 s  ClockTime = 5 s

Time = 0.00727273

Courant Number mean: 0.177048 max: 0.938779
DILUPBiCGStab:  Solving for Ux, Initial residual = 0.00266585, Final residual = 6.46366e-06, No Iterations 5
DILUPBiCGStab:  Solving for Uy, Initial residual = 0.00703998, Final residual = 1.01546e-05, No Iterations 5
DILUPBiCGStab:  Solving for Uz, Initial residual = 0.0168314, Final residual = 3.42185e-05, No Iterations 5
linear solve U 148834
[OGL LOG] init_preconditioner : 0 ms
[OGL LOG] solve : 90 ms
nonecudaGKOIR:  Solving for p, Initial residual = 0.103548, Final residual = 6.64847e-08, No Iterations 5
linear solve p 96214
time step continuity errors : sum local = 3.6117e-07, global = -3.90114e-20, cumulative = -2.19878e-20
[OGL LOG] init_preconditioner : 0 ms
[OGL LOG] solve : 95 ms
nonecudaGKOIR:  Solving for p, Initial residual = 0.0729169, Final residual = 5.05945e-08, No Iterations 5
linear solve p 100265
time step continuity errors : sum local = 3.63043e-07, global = 5.10505e-20, cumulative = 2.90627e-20
ExecutionTime = 4.88 s  ClockTime = 5 s

Time = 0.00909091

Courant Number mean: 0.178659 max: 0.939358
DILUPBiCGStab:  Solving for Ux, Initial residual = 0.00214454, Final residual = 4.47708e-06, No Iterations 5
DILUPBiCGStab:  Solving for Uy, Initial residual = 0.00554026, Final residual = 7.69192e-06, No Iterations 5
DILUPBiCGStab:  Solving for Uz, Initial residual = 0.0120076, Final residual = 2.15318e-05, No Iterations 5
linear solve U 146069
[OGL LOG] init_preconditioner : 0 ms
[OGL LOG] solve : 81 ms
nonecudaGKOIR:  Solving for p, Initial residual = 0.0676794, Final residual = 7.52165e-07, No Iterations 4
linear solve p 87145
time step continuity errors : sum local = 3.64618e-07, global = -2.0154e-20, cumulative = 8.90871e-21
[OGL LOG] init_preconditioner : 0 ms
[OGL LOG] solve : 81 ms
nonecudaGKOIR:  Solving for p, Initial residual = 0.0494704, Final residual = 5.85541e-07, No Iterations 4
linear solve p 86409
time step continuity errors : sum local = 3.63359e-07, global = 1.91448e-20, cumulative = 2.80535e-20
ExecutionTime = 5.29 s  ClockTime = 6 s

Time = 0.0109091

Courant Number mean: 0.180069 max: 0.939963
DILUPBiCGStab:  Solving for Ux, Initial residual = 0.00177178, Final residual = 2.99534e-06, No Iterations 5
DILUPBiCGStab:  Solving for Uy, Initial residual = 0.00472599, Final residual = 5.80065e-06, No Iterations 5
DILUPBiCGStab:  Solving for Uz, Initial residual = 0.0101117, Final residual = 1.58999e-05, No Iterations 5
linear solve U 147177
[OGL LOG] init_preconditioner : 0 ms
[OGL LOG] solve : 83 ms
nonecudaGKOIR:  Solving for p, Initial residual = 0.0441856, Final residual = 5.18211e-07, No Iterations 4
linear solve p 88039
time step continuity errors : sum local = 3.62574e-07, global = 8.21098e-20, cumulative = 1.10163e-19
[OGL LOG] init_preconditioner : 0 ms
[OGL LOG] solve : 87 ms
nonecudaGKOIR:  Solving for p, Initial residual = 0.0330914, Final residual = 3.74826e-07, No Iterations 4
linear solve p 92592
time step continuity errors : sum local = 3.63163e-07, global = 6.47348e-20, cumulative = 1.74898e-19
ExecutionTime = 5.71 s  ClockTime = 6 s

Time = 0.0127273

Courant Number mean: 0.181311 max: 0.940375
DILUPBiCGStab:  Solving for Ux, Initial residual = 0.00150046, Final residual = 1.86627e-06, No Iterations 5
DILUPBiCGStab:  Solving for Uy, Initial residual = 0.00397844, Final residual = 3.93464e-06, No Iterations 5
DILUPBiCGStab:  Solving for Uz, Initial residual = 0.00797117, Final residual = 1.14657e-05, No Iterations 5
linear solve U 146098
[OGL LOG] init_preconditioner : 0 ms
[OGL LOG] solve : 82 ms
nonecudaGKOIR:  Solving for p, Initial residual = 0.0312974, Final residual = 3.33526e-07, No Iterations 4
linear solve p 88024
time step continuity errors : sum local = 3.63528e-07, global = 5.9144e-20, cumulative = 2.34042e-19
[OGL LOG] init_preconditioner : 0 ms
[OGL LOG] solve : 84 ms
nonecudaGKOIR:  Solving for p, Initial residual = 0.0239645, Final residual = 2.35869e-07, No Iterations 4
linear solve p 89490
time step continuity errors : sum local = 3.63184e-07, global = -2.9899e-20, cumulative = 2.04143e-19
ExecutionTime = 6.13 s  ClockTime = 6 s

Time = 0.0145455

Courant Number mean: 0.182406 max: 0.940818
DILUPBiCGStab:  Solving for Ux, Initial residual = 0.0012852, Final residual = 1.1275e-06, No Iterations 5
DILUPBiCGStab:  Solving for Uy, Initial residual = 0.0034904, Final residual = 2.55925e-06, No Iterations 5
DILUPBiCGStab:  Solving for Uz, Initial residual = 0.00694195, Final residual = 8.68755e-06, No Iterations 5
linear solve U 149750
[OGL LOG] init_preconditioner : 0 ms
[OGL LOG] solve : 85 ms
nonecudaGKOIR:  Solving for p, Initial residual = 0.0214646, Final residual = 2.21542e-07, No Iterations 4
linear solve p 90447
time step continuity errors : sum local = 3.62933e-07, global = -1.20726e-20, cumulative = 1.9207e-19
[OGL LOG] init_preconditioner : 0 ms
[OGL LOG] solve : 89 ms
nonecudaGKOIR:  Solving for p, Initial residual = 0.0167056, Final residual = 1.52358e-07, No Iterations 4
linear solve p 95395
time step continuity errors : sum local = 3.63114e-07, global = 9.28642e-21, cumulative = 2.01357e-19
ExecutionTime = 6.56 s  ClockTime = 7 s

Time = 0.0163636

Courant Number mean: 0.183372 max: 0.941134
DILUPBiCGStab:  Solving for Ux, Initial residual = 0.00111634, Final residual = 7.08811e-07, No Iterations 5
DILUPBiCGStab:  Solving for Uy, Initial residual = 0.00301004, Final residual = 1.58208e-06, No Iterations 5
DILUPBiCGStab:  Solving for Uz, Initial residual = 0.00577394, Final residual = 6.12616e-06, No Iterations 5
linear solve U 149710
[OGL LOG] init_preconditioner : 0 ms
[OGL LOG] solve : 88 ms
nonecudaGKOIR:  Solving for p, Initial residual = 0.0158736, Final residual = 1.37035e-07, No Iterations 4
linear solve p 94045
time step continuity errors : sum local = 3.63218e-07, global = -2.43021e-20, cumulative = 1.77055e-19
[OGL LOG] init_preconditioner : 0 ms
[OGL LOG] solve : 88 ms
nonecudaGKOIR:  Solving for p, Initial residual = 0.0125522, Final residual = 1.23206e-07, No Iterations 4
linear solve p 93263
time step continuity errors : sum local = 3.63133e-07, global = -1.69058e-20, cumulative = 1.60149e-19
ExecutionTime = 6.99 s  ClockTime = 7 s

Time = 0.0181818

Courant Number mean: 0.18423 max: 0.941454
DILUPBiCGStab:  Solving for Ux, Initial residual = 0.000969239, Final residual = 5.33082e-07, No Iterations 5
DILUPBiCGStab:  Solving for Uy, Initial residual = 0.00267678, Final residual = 1.09397e-06, No Iterations 5
DILUPBiCGStab:  Solving for Uz, Initial residual = 0.00508098, Final residual = 5.09037e-06, No Iterations 5
linear solve U 149282
[OGL LOG] init_preconditioner : 0 ms
[OGL LOG] solve : 85 ms
nonecudaGKOIR:  Solving for p, Initial residual = 0.0112645, Final residual = 1.0474e-07, No Iterations 4
linear solve p 90911
time step continuity errors : sum local = 3.63039e-07, global = -6.59647e-20, cumulative = 9.41843e-20
[OGL LOG] init_preconditioner : 0 ms
[OGL LOG] solve : 85 ms
nonecudaGKOIR:  Solving for p, Initial residual = 0.00902518, Final residual = 8.1546e-08, No Iterations 4
linear solve p 91060
time step continuity errors : sum local = 3.63107e-07, global = -4.06607e-20, cumulative = 5.35235e-20
ExecutionTime = 7.42 s  ClockTime = 8 s

End

