/*---------------------------------------------------------------------------*\
  =========                 |
  \\      /  F ield         | OpenFOAM: The Open Source CFD Toolbox
   \\    /   O peration     | Website:  https://openfoam.org
    \\  /    A nd           | Version:  8
     \\/     M anipulation  |
\*---------------------------------------------------------------------------*/
Build  : 8-ef60d22ea792
Exec   : icoFoam
Date   : Sep 15 2021
Time   : 14:34:38
Host   : "uc2n438.localdomain"
PID    : 3551742
I/O    : uncollated
Case   : /pfs/data5/home/kit/scc/nq7776/data/code/OBR/lidDrivenCavity3D/Variation_init/100/Variation_mesh/35/Variation_matrix_solver/BiCGStab_DIC_Serial/1631709276
nProcs : 1
sigFpe : Enabling floating point exception trapping (FOAM_SIGFPE).
fileModificationChecking : Monitoring run-time modified files using timeStampMaster (fileModificationSkew 10)
allowSystemOperations : Allowing user-supplied system call operations

// * * * * * * * * * * * * * * * * * * * * * * * * * * * * * * * * * * * * * //
Create time

Create mesh for time = 0

Reading transportProperties

Reading field p

Reading field U

Reading/calculating face flux field phi


Starting time loop

Time = 0.00285714

Courant Number mean: 0.170224 max: 0.896231
DILUPBiCGStab:  Solving for Ux, Initial residual = 0.0535917, Final residual = 5.77204e-06, No Iterations 5
DILUPBiCGStab:  Solving for Uy, Initial residual = 0.0977818, Final residual = 6.12956e-06, No Iterations 5
DILUPBiCGStab:  Solving for Uz, Initial residual = 0.14058, Final residual = 2.6287e-05, No Iterations 5
linear solve U 34443
DICPBiCGStab:  Solving for p, Initial residual = 0.499827, Final residual = 5.59023e-07, No Iterations 66
linear solve p 104386
time step continuity errors : sum local = 1.76567e-09, global = -2.00346e-20, cumulative = -2.00346e-20
DICPBiCGStab:  Solving for p, Initial residual = 0.250333, Final residual = 9.36307e-07, No Iterations 66
linear solve p 106845
time step continuity errors : sum local = 2.57576e-09, global = 8.26681e-20, cumulative = 6.26335e-20
ExecutionTime = 0.5 s  ClockTime = 0 s

Time = 0.00571429

Courant Number mean: 0.173241 max: 0.901365
DILUPBiCGStab:  Solving for Ux, Initial residual = 0.00900653, Final residual = 3.93745e-06, No Iterations 5
DILUPBiCGStab:  Solving for Uy, Initial residual = 0.0172094, Final residual = 5.21172e-06, No Iterations 5
DILUPBiCGStab:  Solving for Uz, Initial residual = 0.0412807, Final residual = 1.64543e-05, No Iterations 5
linear solve U 30775
DICPBiCGStab:  Solving for p, Initial residual = 0.196075, Final residual = 8.59151e-07, No Iterations 71
linear solve p 112990
time step continuity errors : sum local = 2.26598e-09, global = -7.38736e-20, cumulative = -1.12401e-20
DICPBiCGStab:  Solving for p, Initial residual = 0.136236, Final residual = 6.9263e-07, No Iterations 69
linear solve p 109429
time step continuity errors : sum local = 2.09704e-09, global = 7.61409e-20, cumulative = 6.49008e-20
ExecutionTime = 0.77 s  ClockTime = 0 s

Time = 0.00857143

Courant Number mean: 0.176068 max: 0.902689
DILUPBiCGStab:  Solving for Ux, Initial residual = 0.00390883, Final residual = 1.95599e-06, No Iterations 5
DILUPBiCGStab:  Solving for Uy, Initial residual = 0.0112149, Final residual = 3.28076e-06, No Iterations 5
DILUPBiCGStab:  Solving for Uz, Initial residual = 0.0238326, Final residual = 7.04677e-06, No Iterations 5
linear solve U 30590
DICPBiCGStab:  Solving for p, Initial residual = 0.0885434, Final residual = 6.14203e-07, No Iterations 68
linear solve p 108793
time step continuity errors : sum local = 2.25944e-09, global = -4.58879e-20, cumulative = 1.90129e-20
DICPBiCGStab:  Solving for p, Initial residual = 0.0629624, Final residual = 6.16952e-07, No Iterations 65
linear solve p 103384
time step continuity errors : sum local = 2.82765e-09, global = 1.05237e-20, cumulative = 2.95366e-20
ExecutionTime = 1.03 s  ClockTime = 1 s

Time = 0.0114286

Courant Number mean: 0.178562 max: 0.90517
DILUPBiCGStab:  Solving for Ux, Initial residual = 0.00298485, Final residual = 7.84191e-07, No Iterations 5
DILUPBiCGStab:  Solving for Uy, Initial residual = 0.00706269, Final residual = 1.2208e-06, No Iterations 5
DILUPBiCGStab:  Solving for Uz, Initial residual = 0.0136101, Final residual = 2.90362e-06, No Iterations 5
linear solve U 30392
DICPBiCGStab:  Solving for p, Initial residual = 0.0454637, Final residual = 6.47819e-07, No Iterations 65
linear solve p 103798
time step continuity errors : sum local = 1.502e-09, global = -5.76975e-20, cumulative = -2.81609e-20
DICPBiCGStab:  Solving for p, Initial residual = 0.0324911, Final residual = 3.63529e-07, No Iterations 65
linear solve p 103943
time step continuity errors : sum local = 8.54178e-10, global = 5.92018e-20, cumulative = 3.10409e-20
ExecutionTime = 1.29 s  ClockTime = 1 s

Time = 0.0142857

Courant Number mean: 0.180508 max: 0.90624
DILUPBiCGStab:  Solving for Ux, Initial residual = 0.00217964, Final residual = 3.96798e-07, No Iterations 5
DILUPBiCGStab:  Solving for Uy, Initial residual = 0.00556505, Final residual = 4.94735e-07, No Iterations 5
DILUPBiCGStab:  Solving for Uz, Initial residual = 0.010114, Final residual = 1.74897e-06, No Iterations 5
linear solve U 30589
DICPBiCGStab:  Solving for p, Initial residual = 0.0250468, Final residual = 9.27549e-07, No Iterations 65
linear solve p 103538
time step continuity errors : sum local = 2.06003e-09, global = -7.29175e-20, cumulative = -4.18767e-20
DICPBiCGStab:  Solving for p, Initial residual = 0.017792, Final residual = 7.2549e-07, No Iterations 64
linear solve p 102225
time step continuity errors : sum local = 1.65406e-09, global = 1.79238e-19, cumulative = 1.37361e-19
ExecutionTime = 1.55 s  ClockTime = 1 s

Time = 0.0171429

Courant Number mean: 0.182128 max: 0.907283
DILUPBiCGStab:  Solving for Ux, Initial residual = 0.00180195, Final residual = 1.99756e-07, No Iterations 5
DILUPBiCGStab:  Solving for Uy, Initial residual = 0.00453956, Final residual = 6.95645e-07, No Iterations 5
DILUPBiCGStab:  Solving for Uz, Initial residual = 0.00815909, Final residual = 1.32128e-06, No Iterations 5
linear solve U 30428
DICPBiCGStab:  Solving for p, Initial residual = 0.0136267, Final residual = 7.14951e-07, No Iterations 59
linear solve p 94279
time step continuity errors : sum local = 1.57302e-09, global = 2.00435e-20, cumulative = 1.57405e-19
DICPBiCGStab:  Solving for p, Initial residual = 0.0100621, Final residual = 6.96692e-07, No Iterations 61
linear solve p 96942
time step continuity errors : sum local = 1.55399e-09, global = -1.18966e-20, cumulative = 1.45508e-19
ExecutionTime = 1.79 s  ClockTime = 1 s

Time = 0.02

Courant Number mean: 0.183455 max: 0.907988
DILUPBiCGStab:  Solving for Ux, Initial residual = 0.00146259, Final residual = 2.1774e-07, No Iterations 5
DILUPBiCGStab:  Solving for Uy, Initial residual = 0.00369847, Final residual = 4.94871e-07, No Iterations 5
DILUPBiCGStab:  Solving for Uz, Initial residual = 0.00641751, Final residual = 7.04158e-07, No Iterations 5
linear solve U 30436
DICPBiCGStab:  Solving for p, Initial residual = 0.00885904, Final residual = 7.36278e-07, No Iterations 60
linear solve p 95743
time step continuity errors : sum local = 1.65348e-09, global = 3.69772e-20, cumulative = 1.82485e-19
DICPBiCGStab:  Solving for p, Initial residual = 0.00666866, Final residual = 8.86744e-07, No Iterations 58
linear solve p 92856
time step continuity errors : sum local = 2.04373e-09, global = 4.75362e-20, cumulative = 2.30021e-19
ExecutionTime = 2.03 s  ClockTime = 2 s

Time = 0.0228571

Courant Number mean: 0.184561 max: 0.908607
DILUPBiCGStab:  Solving for Ux, Initial residual = 0.00121466, Final residual = 1.38562e-07, No Iterations 5
DILUPBiCGStab:  Solving for Uy, Initial residual = 0.00309653, Final residual = 4.12284e-07, No Iterations 5
DILUPBiCGStab:  Solving for Uz, Initial residual = 0.00535831, Final residual = 6.22453e-07, No Iterations 5
linear solve U 30435
DICPBiCGStab:  Solving for p, Initial residual = 0.00528115, Final residual = 9.31503e-07, No Iterations 59
linear solve p 93843
time step continuity errors : sum local = 2.22975e-09, global = 2.83562e-20, cumulative = 2.58378e-19
DICPBiCGStab:  Solving for p, Initial residual = 0.00429621, Final residual = 9.28418e-07, No Iterations 59
linear solve p 93505
time step continuity errors : sum local = 2.07508e-09, global = -7.53514e-20, cumulative = 1.83026e-19
ExecutionTime = 2.27 s  ClockTime = 2 s

Time = 0.0257143

Courant Number mean: 0.18548 max: 0.909075
DILUPBiCGStab:  Solving for Ux, Initial residual = 0.00100819, Final residual = 7.64302e-08, No Iterations 5
DILUPBiCGStab:  Solving for Uy, Initial residual = 0.00257201, Final residual = 1.57559e-07, No Iterations 5
DILUPBiCGStab:  Solving for Uz, Initial residual = 0.00433708, Final residual = 4.50074e-07, No Iterations 5
linear solve U 30481
DICPBiCGStab:  Solving for p, Initial residual = 0.00402629, Final residual = 5.08116e-07, No Iterations 59
linear solve p 94857
time step continuity errors : sum local = 1.14202e-09, global = 1.12628e-19, cumulative = 2.95654e-19
DICPBiCGStab:  Solving for p, Initial residual = 0.00334476, Final residual = 8.22111e-07, No Iterations 56
linear solve p 89228
time step continuity errors : sum local = 1.92937e-09, global = -6.57538e-20, cumulative = 2.299e-19
ExecutionTime = 2.5 s  ClockTime = 2 s

Time = 0.0285714

Courant Number mean: 0.186248 max: 0.909471
DILUPBiCGStab:  Solving for Ux, Initial residual = 0.000843057, Final residual = 6.27578e-08, No Iterations 5
DILUPBiCGStab:  Solving for Uy, Initial residual = 0.00216797, Final residual = 2.81839e-07, No Iterations 5
DILUPBiCGStab:  Solving for Uz, Initial residual = 0.00361306, Final residual = 3.8876e-07, No Iterations 5
linear solve U 30375
DICPBiCGStab:  Solving for p, Initial residual = 0.002825, Final residual = 4.54458e-07, No Iterations 57
linear solve p 91818
time step continuity errors : sum local = 1.22332e-09, global = 5.07791e-20, cumulative = 2.80679e-19
DICPBiCGStab:  Solving for p, Initial residual = 0.00247029, Final residual = 8.72195e-07, No Iterations 56
linear solve p 89063
time step continuity errors : sum local = 1.98329e-09, global = 6.97791e-21, cumulative = 2.87657e-19
ExecutionTime = 2.73 s  ClockTime = 2 s

End

