/*---------------------------------------------------------------------------*\
  =========                 |
  \\      /  F ield         | OpenFOAM: The Open Source CFD Toolbox
   \\    /   O peration     | Website:  https://openfoam.org
    \\  /    A nd           | Version:  8
     \\/     M anipulation  |
\*---------------------------------------------------------------------------*/
Build  : 8-ef60d22ea792
Exec   : icoFoam
Date   : Sep 15 2021
Time   : 15:06:11
Host   : "uc2n482.localdomain"
PID    : 3660804
I/O    : uncollated
Case   : /pfs/data5/home/kit/scc/nq7776/data/code/OBR/lidDrivenCavity3D/Variation_init/100/Variation_mesh/55/Variation_matrix_solver/BiCGStab_BJ_CUDA/1631711163
nProcs : 1
sigFpe : Enabling floating point exception trapping (FOAM_SIGFPE).
fileModificationChecking : Monitoring run-time modified files using timeStampMaster (fileModificationSkew 10)
allowSystemOperations : Allowing user-supplied system call operations

// * * * * * * * * * * * * * * * * * * * * * * * * * * * * * * * * * * * * * //
Create time

Create mesh for time = 0

Reading transportProperties

Reading field p

Reading field U

Reading/calculating face flux field phi


Starting time loop

Time = 0.00181818

Courant Number mean: 0.170885 max: 0.951813
DILUPBiCGStab:  Solving for Ux, Initial residual = 0.0617772, Final residual = 8.17367e-05, No Iterations 5
DILUPBiCGStab:  Solving for Uy, Initial residual = 0.127918, Final residual = 0.000176819, No Iterations 5
DILUPBiCGStab:  Solving for Uz, Initial residual = 0.177193, Final residual = 0.000215685, No Iterations 5
linear solve U 166984
[OGL LOG] init_host_sparsity_pattern : 48 ms
[OGL LOG] matrix not stored update host matrix
[OGL LOG] update_host_mtx : 27 ms
[OGL LOG] matrix is not yet sorted, compute sorting idxs
[OGL LOG] compute_sort : 1429 ms
[OGL LOG] matrix is not yet sorted, sorting host matrix
[OGL LOG] sort_host_mtx_sparsity_pattern : 34 ms
[OGL LOG] sort_host_mtx : 18 ms
[OGL LOG] init_preconditioner : 17 ms
[OGL LOG] solve : 186 ms
BJcudaGKOBiCGStab:  Solving for p, Initial residual = 0.614449, Final residual = 1.24897e-07, No Iterations 268
linear solve p 2542303
time step continuity errors : sum local = 2.62013e-10, global = 2.07055e-20, cumulative = 2.07055e-20
[OGL LOG] init_preconditioner : 0 ms
[OGL LOG] solve : 173 ms
BJcudaGKOBiCGStab:  Solving for p, Initial residual = 0.429359, Final residual = 6.19023e-07, No Iterations 253
linear solve p 179049
time step continuity errors : sum local = 1.61236e-05, global = -3.50123e-20, cumulative = -1.43068e-20
ExecutionTime = 3.75 s  ClockTime = 4 s

Time = 0.00363636

Courant Number mean: 0.173206 max: 0.938447
DILUPBiCGStab:  Solving for Ux, Initial residual = 0.00803605, Final residual = 1.32169e-05, No Iterations 5
DILUPBiCGStab:  Solving for Uy, Initial residual = 0.0188196, Final residual = 2.49208e-05, No Iterations 5
DILUPBiCGStab:  Solving for Uz, Initial residual = 0.0652715, Final residual = 0.000201967, No Iterations 5
linear solve U 151444
[OGL LOG] init_preconditioner : 0 ms
[OGL LOG] solve : 190 ms
BJcudaGKOBiCGStab:  Solving for p, Initial residual = 0.331006, Final residual = 9.87851e-07, No Iterations 276
linear solve p 195145
time step continuity errors : sum local = 4.78279e-07, global = -1.41555e-20, cumulative = -2.84623e-20
[OGL LOG] init_preconditioner : 0 ms
[OGL LOG] solve : 196 ms
BJcudaGKOBiCGStab:  Solving for p, Initial residual = 0.214276, Final residual = 9.36639e-07, No Iterations 290
linear solve p 201256
time step continuity errors : sum local = 3.64803e-07, global = 7.35114e-20, cumulative = 4.50492e-20
ExecutionTime = 4.39 s  ClockTime = 5 s

Time = 0.00545455

Courant Number mean: 0.175254 max: 0.938256
DILUPBiCGStab:  Solving for Ux, Initial residual = 0.00375407, Final residual = 1.01129e-05, No Iterations 5
DILUPBiCGStab:  Solving for Uy, Initial residual = 0.00923834, Final residual = 1.43523e-05, No Iterations 5
DILUPBiCGStab:  Solving for Uz, Initial residual = 0.0451816, Final residual = 0.000127338, No Iterations 5
linear solve U 149151
[OGL LOG] init_preconditioner : 0 ms
[OGL LOG] solve : 188 ms
BJcudaGKOBiCGStab:  Solving for p, Initial residual = 0.190752, Final residual = 7.69992e-07, No Iterations 279
linear solve p 193904
time step continuity errors : sum local = 3.66549e-07, global = -1.43703e-20, cumulative = 3.06789e-20
[OGL LOG] init_preconditioner : 0 ms
[OGL LOG] solve : 190 ms
BJcudaGKOBiCGStab:  Solving for p, Initial residual = 0.133685, Final residual = 3.80238e-07, No Iterations 280
linear solve p 194943
time step continuity errors : sum local = 3.63183e-07, global = -1.01227e-20, cumulative = 2.05562e-20
ExecutionTime = 5.02 s  ClockTime = 5 s

Time = 0.00727273

Courant Number mean: 0.177048 max: 0.93878
DILUPBiCGStab:  Solving for Ux, Initial residual = 0.00266751, Final residual = 6.46923e-06, No Iterations 5
DILUPBiCGStab:  Solving for Uy, Initial residual = 0.00705491, Final residual = 1.02233e-05, No Iterations 5
DILUPBiCGStab:  Solving for Uz, Initial residual = 0.0306355, Final residual = 6.48132e-05, No Iterations 5
linear solve U 159552
[OGL LOG] init_preconditioner : 0 ms
[OGL LOG] solve : 92 ms
BJcudaGKOBiCGStab:  Solving for p, Initial residual = 0.120799, Final residual = 9.61285e-07, No Iterations 133
linear solve p 97804
time step continuity errors : sum local = 3.62322e-07, global = -3.10418e-20, cumulative = -1.04857e-20
[OGL LOG] init_preconditioner : 0 ms
[OGL LOG] solve : 96 ms
BJcudaGKOBiCGStab:  Solving for p, Initial residual = 0.0871149, Final residual = 9.8902e-07, No Iterations 139
linear solve p 101722
time step continuity errors : sum local = 3.63699e-07, global = 4.77286e-20, cumulative = 3.72429e-20
ExecutionTime = 5.47 s  ClockTime = 6 s

Time = 0.00909091

Courant Number mean: 0.178659 max: 0.939358
DILUPBiCGStab:  Solving for Ux, Initial residual = 0.00214538, Final residual = 4.48328e-06, No Iterations 5
DILUPBiCGStab:  Solving for Uy, Initial residual = 0.00555328, Final residual = 7.77733e-06, No Iterations 5
DILUPBiCGStab:  Solving for Uz, Initial residual = 0.0219785, Final residual = 3.60753e-05, No Iterations 5
linear solve U 152739
[OGL LOG] init_preconditioner : 0 ms
[OGL LOG] solve : 179 ms
BJcudaGKOBiCGStab:  Solving for p, Initial residual = 0.0813642, Final residual = 7.62063e-07, No Iterations 263
linear solve p 184187
time step continuity errors : sum local = 3.64628e-07, global = 2.29118e-20, cumulative = 6.01547e-20
[OGL LOG] init_preconditioner : 0 ms
[OGL LOG] solve : 165 ms
BJcudaGKOBiCGStab:  Solving for p, Initial residual = 0.0604584, Final residual = 8.85976e-07, No Iterations 241
linear solve p 170683
time step continuity errors : sum local = 3.63567e-07, global = 5.90339e-20, cumulative = 1.19189e-19
ExecutionTime = 6.08 s  ClockTime = 6 s

Time = 0.0109091

Courant Number mean: 0.180068 max: 0.939964
DILUPBiCGStab:  Solving for Ux, Initial residual = 0.00177222, Final residual = 2.99781e-06, No Iterations 5
DILUPBiCGStab:  Solving for Uy, Initial residual = 0.00472989, Final residual = 5.84254e-06, No Iterations 5
DILUPBiCGStab:  Solving for Uz, Initial residual = 0.0170531, Final residual = 2.15744e-05, No Iterations 5
linear solve U 153357
[OGL LOG] init_preconditioner : 0 ms
[OGL LOG] solve : 181 ms
BJcudaGKOBiCGStab:  Solving for p, Initial residual = 0.0548859, Final residual = 8.45877e-07, No Iterations 268
linear solve p 186894
time step continuity errors : sum local = 3.79736e-07, global = 2.18289e-20, cumulative = 1.41018e-19
[OGL LOG] init_preconditioner : 0 ms
[OGL LOG] solve : 172 ms
BJcudaGKOBiCGStab:  Solving for p, Initial residual = 0.0416236, Final residual = 8.71849e-07, No Iterations 250
linear solve p 178439
time step continuity errors : sum local = 3.89209e-07, global = 2.74625e-20, cumulative = 1.6848e-19
ExecutionTime = 6.69 s  ClockTime = 7 s

Time = 0.0127273

Courant Number mean: 0.18131 max: 0.940375
DILUPBiCGStab:  Solving for Ux, Initial residual = 0.00150107, Final residual = 1.8694e-06, No Iterations 5
DILUPBiCGStab:  Solving for Uy, Initial residual = 0.00398285, Final residual = 4.00396e-06, No Iterations 5
DILUPBiCGStab:  Solving for Uz, Initial residual = 0.0129296, Final residual = 1.2765e-05, No Iterations 5
linear solve U 150491
[OGL LOG] init_preconditioner : 0 ms
[OGL LOG] solve : 167 ms
BJcudaGKOBiCGStab:  Solving for p, Initial residual = 0.0393024, Final residual = 3.55299e-07, No Iterations 246
linear solve p 172075
time step continuity errors : sum local = 5.30573e-07, global = 8.06238e-21, cumulative = 1.76542e-19
[OGL LOG] init_preconditioner : 0 ms
[OGL LOG] solve : 154 ms
BJcudaGKOBiCGStab:  Solving for p, Initial residual = 0.0303323, Final residual = 8.78628e-07, No Iterations 227
linear solve p 159406
time step continuity errors : sum local = 6.31444e-07, global = -3.41009e-20, cumulative = 1.42442e-19
ExecutionTime = 7.26 s  ClockTime = 8 s

Time = 0.0145455

Courant Number mean: 0.182405 max: 0.940817
DILUPBiCGStab:  Solving for Ux, Initial residual = 0.00128525, Final residual = 1.12989e-06, No Iterations 5
DILUPBiCGStab:  Solving for Uy, Initial residual = 0.00349228, Final residual = 2.57562e-06, No Iterations 5
DILUPBiCGStab:  Solving for Uz, Initial residual = 0.00981668, Final residual = 1.06174e-05, No Iterations 5
linear solve U 152195
[OGL LOG] init_preconditioner : 0 ms
[OGL LOG] solve : 156 ms
BJcudaGKOBiCGStab:  Solving for p, Initial residual = 0.0266531, Final residual = 9.69926e-07, No Iterations 226
linear solve p 161152
time step continuity errors : sum local = 4.65463e-07, global = 8.9626e-21, cumulative = 1.51404e-19
[OGL LOG] init_preconditioner : 0 ms
[OGL LOG] solve : 168 ms
BJcudaGKOBiCGStab:  Solving for p, Initial residual = 0.0207513, Final residual = 7.34362e-07, No Iterations 247
linear solve p 173696
time step continuity errors : sum local = 4.2268e-07, global = -3.71805e-20, cumulative = 1.14224e-19
ExecutionTime = 7.85 s  ClockTime = 8 s

Time = 0.0163636

Courant Number mean: 0.183372 max: 0.941134
DILUPBiCGStab:  Solving for Ux, Initial residual = 0.00111659, Final residual = 7.05595e-07, No Iterations 5
DILUPBiCGStab:  Solving for Uy, Initial residual = 0.00301086, Final residual = 1.6172e-06, No Iterations 5
DILUPBiCGStab:  Solving for Uz, Initial residual = 0.00758208, Final residual = 1.06916e-05, No Iterations 5
linear solve U 154887
[OGL LOG] init_preconditioner : 0 ms
[OGL LOG] solve : 172 ms
BJcudaGKOBiCGStab:  Solving for p, Initial residual = 0.0193356, Final residual = 8.42976e-07, No Iterations 251
linear solve p 177417
time step continuity errors : sum local = 4.3867e-07, global = -2.76827e-20, cumulative = 8.65409e-20
[OGL LOG] init_preconditioner : 0 ms
[OGL LOG] solve : 170 ms
BJcudaGKOBiCGStab:  Solving for p, Initial residual = 0.0152672, Final residual = 9.42853e-07, No Iterations 251
linear solve p 175509
time step continuity errors : sum local = 4.40234e-07, global = 3.66952e-20, cumulative = 1.23236e-19
ExecutionTime = 8.45 s  ClockTime = 9 s

Time = 0.0181818

Courant Number mean: 0.18423 max: 0.941454
DILUPBiCGStab:  Solving for Ux, Initial residual = 0.000969686, Final residual = 5.40409e-07, No Iterations 5
DILUPBiCGStab:  Solving for Uy, Initial residual = 0.00267718, Final residual = 1.0932e-06, No Iterations 5
DILUPBiCGStab:  Solving for Uz, Initial residual = 0.00612699, Final residual = 9.38921e-06, No Iterations 5
linear solve U 150717
[OGL LOG] init_preconditioner : 0 ms
[OGL LOG] solve : 151 ms
BJcudaGKOBiCGStab:  Solving for p, Initial residual = 0.0135352, Final residual = 9.24554e-07, No Iterations 222
linear solve p 156959
time step continuity errors : sum local = 3.11369e-05, global = -2.99349e-20, cumulative = 9.33013e-20
[OGL LOG] init_preconditioner : 0 ms
[OGL LOG] solve : 143 ms
BJcudaGKOBiCGStab:  Solving for p, Initial residual = 0.0539913, Final residual = 7.70408e-07, No Iterations 209
linear solve p 148220
time step continuity errors : sum local = 7.19281e-06, global = 2.1994e-20, cumulative = 1.15295e-19
ExecutionTime = 8.99 s  ClockTime = 9 s

End

