/*---------------------------------------------------------------------------*\
  =========                 |
  \\      /  F ield         | OpenFOAM: The Open Source CFD Toolbox
   \\    /   O peration     | Website:  https://openfoam.org
    \\  /    A nd           | Version:  8
     \\/     M anipulation  |
\*---------------------------------------------------------------------------*/
Build  : 8-ef60d22ea792
Exec   : icoFoam
Date   : Sep 15 2021
Time   : 13:35:59
Host   : "uc2n482.localdomain"
PID    : 3633657
I/O    : uncollated
Case   : /pfs/data5/home/kit/scc/nq7776/data/code/OBR/lidDrivenCavity3D/Variation_init/100/Variation_mesh/25/Variation_matrix_solver/CG_BJ_CUDA/Variation_maxBlockSize/2/1631705756
nProcs : 1
sigFpe : Enabling floating point exception trapping (FOAM_SIGFPE).
fileModificationChecking : Monitoring run-time modified files using timeStampMaster (fileModificationSkew 10)
allowSystemOperations : Allowing user-supplied system call operations

// * * * * * * * * * * * * * * * * * * * * * * * * * * * * * * * * * * * * * //
Create time

Create mesh for time = 0

Reading transportProperties

Reading field p

Reading field U

Reading/calculating face flux field phi


Starting time loop

Time = 0.004

Courant Number mean: 0.169656 max: 0.889609
DILUPBiCGStab:  Solving for Ux, Initial residual = 0.143151, Final residual = 1.76454e-06, No Iterations 5
DILUPBiCGStab:  Solving for Uy, Initial residual = 0.204592, Final residual = 1.77082e-06, No Iterations 5
DILUPBiCGStab:  Solving for Uz, Initial residual = 0.476047, Final residual = 3.97645e-06, No Iterations 5
linear solve U 12077
[OGL LOG] init_host_sparsity_pattern : 4 ms
[OGL LOG] matrix not stored update host matrix
[OGL LOG] update_host_mtx : 2 ms
[OGL LOG] matrix is not yet sorted, compute sorting idxs
[OGL LOG] compute_sort : 111 ms
[OGL LOG] matrix is not yet sorted, sorting host matrix
[OGL LOG] sort_host_mtx_sparsity_pattern : 2 ms
[OGL LOG] sort_host_mtx : 1 ms
[OGL LOG] init_preconditioner : 2 ms
[OGL LOG] solve : 27 ms
BJcudaGKOCG:  Solving for p, Initial residual = 0.578841, Final residual = 9.14278e-07, No Iterations 193
linear solve p 910671
time step continuity errors : sum local = 6.45972e-09, global = 2.80566e-20, cumulative = 2.80566e-20
[OGL LOG] init_preconditioner : 0 ms
[OGL LOG] solve : 26 ms
BJcudaGKOCG:  Solving for p, Initial residual = 0.27554, Final residual = 9.25358e-07, No Iterations 194
linear solve p 27476
time step continuity errors : sum local = 4.05397e-09, global = -2.0128e-20, cumulative = 7.92855e-21
ExecutionTime = 1.05 s  ClockTime = 1 s

Time = 0.008

Courant Number mean: 0.173868 max: 0.868145
DILUPBiCGStab:  Solving for Ux, Initial residual = 0.0151888, Final residual = 1.22594e-06, No Iterations 5
DILUPBiCGStab:  Solving for Uy, Initial residual = 0.0247675, Final residual = 1.80839e-06, No Iterations 5
DILUPBiCGStab:  Solving for Uz, Initial residual = 0.0887893, Final residual = 3.8329e-06, No Iterations 5
linear solve U 10057
[OGL LOG] init_preconditioner : 0 ms
[OGL LOG] solve : 25 ms
BJcudaGKOCG:  Solving for p, Initial residual = 0.17531, Final residual = 9.77402e-07, No Iterations 189
linear solve p 25709
time step continuity errors : sum local = 3.28484e-06, global = -8.62782e-20, cumulative = -7.83497e-20
[OGL LOG] init_preconditioner : 0 ms
[OGL LOG] solve : 25 ms
BJcudaGKOCG:  Solving for p, Initial residual = 0.103192, Final residual = 9.55681e-07, No Iterations 187
linear solve p 25563
time step continuity errors : sum local = 3.05924e-06, global = -1.52317e-20, cumulative = -9.35814e-20
ExecutionTime = 1.11 s  ClockTime = 1 s

Time = 0.012

Courant Number mean: 0.177048 max: 0.867817
DILUPBiCGStab:  Solving for Ux, Initial residual = 0.00469191, Final residual = 2.96382e-07, No Iterations 5
DILUPBiCGStab:  Solving for Uy, Initial residual = 0.00998768, Final residual = 4.81043e-07, No Iterations 5
DILUPBiCGStab:  Solving for Uz, Initial residual = 0.0313801, Final residual = 1.53388e-06, No Iterations 5
linear solve U 9654
[OGL LOG] init_preconditioner : 0 ms
[OGL LOG] solve : 21 ms
BJcudaGKOCG:  Solving for p, Initial residual = 0.0491937, Final residual = 7.98411e-07, No Iterations 163
linear solve p 22328
time step continuity errors : sum local = 3.01827e-06, global = -8.41011e-20, cumulative = -1.77683e-19
[OGL LOG] init_preconditioner : 0 ms
[OGL LOG] solve : 21 ms
BJcudaGKOCG:  Solving for p, Initial residual = 0.0326511, Final residual = 9.48009e-07, No Iterations 157
linear solve p 21896
time step continuity errors : sum local = 3.04448e-06, global = 1.02575e-19, cumulative = -7.51071e-20
ExecutionTime = 1.18 s  ClockTime = 1 s

Time = 0.016

Courant Number mean: 0.179565 max: 0.869322
DILUPBiCGStab:  Solving for Ux, Initial residual = 0.00314069, Final residual = 1.45474e-07, No Iterations 5
DILUPBiCGStab:  Solving for Uy, Initial residual = 0.00681985, Final residual = 2.61118e-07, No Iterations 5
DILUPBiCGStab:  Solving for Uz, Initial residual = 0.013099, Final residual = 5.58336e-07, No Iterations 5
linear solve U 9663
[OGL LOG] init_preconditioner : 0 ms
[OGL LOG] solve : 21 ms
BJcudaGKOCG:  Solving for p, Initial residual = 0.0194251, Final residual = 8.87681e-07, No Iterations 162
linear solve p 22254
time step continuity errors : sum local = 3.04914e-06, global = 1.82681e-19, cumulative = 1.07574e-19
[OGL LOG] init_preconditioner : 0 ms
[OGL LOG] solve : 21 ms
BJcudaGKOCG:  Solving for p, Initial residual = 0.0140349, Final residual = 9.51049e-07, No Iterations 160
linear solve p 22012
time step continuity errors : sum local = 3.04688e-06, global = 1.28941e-20, cumulative = 1.20468e-19
ExecutionTime = 1.23 s  ClockTime = 1 s

Time = 0.02

Courant Number mean: 0.181574 max: 0.870815
DILUPBiCGStab:  Solving for Ux, Initial residual = 0.00232735, Final residual = 9.81786e-08, No Iterations 5
DILUPBiCGStab:  Solving for Uy, Initial residual = 0.00517737, Final residual = 1.34622e-07, No Iterations 5
DILUPBiCGStab:  Solving for Uz, Initial residual = 0.00910316, Final residual = 2.65787e-07, No Iterations 5
linear solve U 9717
[OGL LOG] init_preconditioner : 0 ms
[OGL LOG] solve : 20 ms
BJcudaGKOCG:  Solving for p, Initial residual = 0.0100114, Final residual = 9.68856e-07, No Iterations 149
linear solve p 21091
time step continuity errors : sum local = 3.04285e-06, global = 1.97931e-19, cumulative = 3.18399e-19
[OGL LOG] init_preconditioner : 0 ms
[OGL LOG] solve : 20 ms
BJcudaGKOCG:  Solving for p, Initial residual = 0.00751329, Final residual = 8.85709e-07, No Iterations 148
linear solve p 20509
time step continuity errors : sum local = 3.04632e-06, global = -1.51602e-19, cumulative = 1.66797e-19
ExecutionTime = 1.29 s  ClockTime = 1 s

Time = 0.024

Courant Number mean: 0.183143 max: 0.871972
DILUPBiCGStab:  Solving for Ux, Initial residual = 0.00177556, Final residual = 5.93779e-08, No Iterations 5
DILUPBiCGStab:  Solving for Uy, Initial residual = 0.00408253, Final residual = 1.0848e-07, No Iterations 5
DILUPBiCGStab:  Solving for Uz, Initial residual = 0.00675119, Final residual = 1.93177e-07, No Iterations 5
linear solve U 9826
[OGL LOG] init_preconditioner : 0 ms
[OGL LOG] solve : 20 ms
BJcudaGKOCG:  Solving for p, Initial residual = 0.00619561, Final residual = 9.58868e-07, No Iterations 150
linear solve p 21144
time step continuity errors : sum local = 3.04481e-06, global = -1.12442e-19, cumulative = 5.43549e-20
[OGL LOG] init_preconditioner : 0 ms
[OGL LOG] solve : 20 ms
BJcudaGKOCG:  Solving for p, Initial residual = 0.00497313, Final residual = 9.02259e-07, No Iterations 149
linear solve p 20458
time step continuity errors : sum local = 3.04633e-06, global = -9.10296e-20, cumulative = -3.66747e-20
ExecutionTime = 1.35 s  ClockTime = 1 s

Time = 0.028

Courant Number mean: 0.184376 max: 0.872837
DILUPBiCGStab:  Solving for Ux, Initial residual = 0.00137933, Final residual = 4.35816e-08, No Iterations 5
DILUPBiCGStab:  Solving for Uy, Initial residual = 0.00321234, Final residual = 3.22091e-08, No Iterations 5
DILUPBiCGStab:  Solving for Uz, Initial residual = 0.00511147, Final residual = 9.32195e-08, No Iterations 5
linear solve U 10057
[OGL LOG] init_preconditioner : 0 ms
[OGL LOG] solve : 19 ms
BJcudaGKOCG:  Solving for p, Initial residual = 0.00396805, Final residual = 9.86053e-07, No Iterations 144
linear solve p 20153
time step continuity errors : sum local = 3.04485e-06, global = -7.35694e-20, cumulative = -1.10244e-19
[OGL LOG] init_preconditioner : 0 ms
[OGL LOG] solve : 19 ms
BJcudaGKOCG:  Solving for p, Initial residual = 0.00329296, Final residual = 9.61097e-07, No Iterations 143
linear solve p 19973
time step continuity errors : sum local = 3.04625e-06, global = 2.39841e-19, cumulative = 1.29597e-19
ExecutionTime = 1.41 s  ClockTime = 1 s

Time = 0.032

Courant Number mean: 0.185344 max: 0.873502
DILUPBiCGStab:  Solving for Ux, Initial residual = 0.00107786, Final residual = 2.90522e-08, No Iterations 5
DILUPBiCGStab:  Solving for Uy, Initial residual = 0.00254844, Final residual = 2.92241e-08, No Iterations 5
DILUPBiCGStab:  Solving for Uz, Initial residual = 0.00394663, Final residual = 8.12212e-08, No Iterations 5
linear solve U 9714
[OGL LOG] init_preconditioner : 0 ms
[OGL LOG] solve : 19 ms
BJcudaGKOCG:  Solving for p, Initial residual = 0.00303516, Final residual = 9.8045e-07, No Iterations 142
linear solve p 19584
time step continuity errors : sum local = 3.04536e-06, global = -4.33691e-20, cumulative = 8.62278e-20
[OGL LOG] init_preconditioner : 0 ms
[OGL LOG] solve : 18 ms
BJcudaGKOCG:  Solving for p, Initial residual = 0.00256137, Final residual = 9.89731e-07, No Iterations 139
linear solve p 19195
time step continuity errors : sum local = 3.04633e-06, global = 2.80707e-19, cumulative = 3.66935e-19
ExecutionTime = 1.46 s  ClockTime = 2 s

Time = 0.036

Courant Number mean: 0.186107 max: 0.874008
DILUPBiCGStab:  Solving for Ux, Initial residual = 0.000848613, Final residual = 2.26982e-08, No Iterations 5
DILUPBiCGStab:  Solving for Uy, Initial residual = 0.00202244, Final residual = 1.52463e-08, No Iterations 5
DILUPBiCGStab:  Solving for Uz, Initial residual = 0.00304176, Final residual = 5.6668e-08, No Iterations 5
linear solve U 9970
[OGL LOG] init_preconditioner : 0 ms
[OGL LOG] solve : 18 ms
BJcudaGKOCG:  Solving for p, Initial residual = 0.00227442, Final residual = 9.76052e-07, No Iterations 136
linear solve p 18822
time step continuity errors : sum local = 3.04551e-06, global = -3.62586e-20, cumulative = 3.30676e-19
[OGL LOG] init_preconditioner : 0 ms
[OGL LOG] solve : 18 ms
BJcudaGKOCG:  Solving for p, Initial residual = 0.00193406, Final residual = 9.41404e-07, No Iterations 134
linear solve p 18519
time step continuity errors : sum local = 3.0462e-06, global = -1.73319e-19, cumulative = 1.57357e-19
ExecutionTime = 1.52 s  ClockTime = 2 s

Time = 0.04

Courant Number mean: 0.186709 max: 0.874399
DILUPBiCGStab:  Solving for Ux, Initial residual = 0.00067013, Final residual = 1.66171e-08, No Iterations 5
DILUPBiCGStab:  Solving for Uy, Initial residual = 0.00160984, Final residual = 1.26228e-08, No Iterations 5
DILUPBiCGStab:  Solving for Uz, Initial residual = 0.00235931, Final residual = 4.61678e-08, No Iterations 5
linear solve U 9717
[OGL LOG] init_preconditioner : 0 ms
[OGL LOG] solve : 18 ms
BJcudaGKOCG:  Solving for p, Initial residual = 0.00178966, Final residual = 8.75229e-07, No Iterations 133
linear solve p 18718
time step continuity errors : sum local = 3.04567e-06, global = -8.14624e-20, cumulative = 7.58947e-20
[OGL LOG] init_preconditioner : 0 ms
[OGL LOG] solve : 17 ms
BJcudaGKOCG:  Solving for p, Initial residual = 0.00153037, Final residual = 9.68586e-07, No Iterations 131
linear solve p 18121
time step continuity errors : sum local = 3.04631e-06, global = -3.82985e-21, cumulative = 7.20648e-20
ExecutionTime = 1.57 s  ClockTime = 2 s

End

