/*---------------------------------------------------------------------------*\
  =========                 |
  \\      /  F ield         | OpenFOAM: The Open Source CFD Toolbox
   \\    /   O peration     | Website:  https://openfoam.org
    \\  /    A nd           | Version:  8
     \\/     M anipulation  |
\*---------------------------------------------------------------------------*/
Build  : 8-ef60d22ea792
Exec   : icoFoam
Date   : Sep 15 2021
Time   : 14:56:59
Host   : "uc2n482.localdomain"
PID    : 3656255
I/O    : uncollated
Case   : /pfs/data5/home/kit/scc/nq7776/data/code/OBR/lidDrivenCavity3D/Variation_init/100/Variation_mesh/85/Variation_matrix_solver/CG_ILU_CUDA/1631710592
nProcs : 1
sigFpe : Enabling floating point exception trapping (FOAM_SIGFPE).
fileModificationChecking : Monitoring run-time modified files using timeStampMaster (fileModificationSkew 10)
allowSystemOperations : Allowing user-supplied system call operations

// * * * * * * * * * * * * * * * * * * * * * * * * * * * * * * * * * * * * * //
Create time

Create mesh for time = 0

Reading transportProperties

Reading field p

Reading field U

Reading/calculating face flux field phi


Starting time loop

Time = 0.00117647

Courant Number mean: 0.17078 max: 0.958539
DILUPBiCGStab:  Solving for Ux, Initial residual = 0.08035, Final residual = 0.000200532, No Iterations 5
DILUPBiCGStab:  Solving for Uy, Initial residual = 0.159613, Final residual = 0.00056519, No Iterations 5
DILUPBiCGStab:  Solving for Uz, Initial residual = 0.222246, Final residual = 0.000790216, No Iterations 5
linear solve U 655923
[OGL LOG] init_host_sparsity_pattern : 180 ms
[OGL LOG] matrix not stored update host matrix
[OGL LOG] update_host_mtx : 100 ms
[OGL LOG] matrix is not yet sorted, compute sorting idxs
[OGL LOG] compute_sort : 5773 ms
[OGL LOG] matrix is not yet sorted, sorting host matrix
[OGL LOG] sort_host_mtx_sparsity_pattern : 123 ms
[OGL LOG] sort_host_mtx : 75 ms
[OGL LOG] init_preconditioner : 233 ms
[OGL LOG] solve : 1128 ms
ILUcudaGKOCG:  Solving for p, Initial residual = 0.643964, Final residual = 9.42153e-07, No Iterations 225
linear solve p 8418187
time step continuity errors : sum local = 7.56157e-10, global = 1.73828e-20, cumulative = 1.73828e-20
[OGL LOG] init_preconditioner : 0 ms
[OGL LOG] solve : 1127 ms
ILUcudaGKOCG:  Solving for p, Initial residual = 0.369996, Final residual = 8.89779e-07, No Iterations 225
linear solve p 1146806
time step continuity errors : sum local = 6.34775e-10, global = 8.6207e-21, cumulative = 2.60035e-20
ExecutionTime = 13.45 s  ClockTime = 14 s

Time = 0.00235294

Courant Number mean: 0.17242 max: 0.959521
DILUPBiCGStab:  Solving for Ux, Initial residual = 0.0066867, Final residual = 4.22365e-05, No Iterations 5
DILUPBiCGStab:  Solving for Uy, Initial residual = 0.0171906, Final residual = 0.000144527, No Iterations 5
DILUPBiCGStab:  Solving for Uz, Initial residual = 0.0433638, Final residual = 0.000582269, No Iterations 5
linear solve U 611067
[OGL LOG] init_preconditioner : 0 ms
[OGL LOG] solve : 1131 ms
ILUcudaGKOCG:  Solving for p, Initial residual = 0.435511, Final residual = 9.65086e-07, No Iterations 226
linear solve p 1151805
time step continuity errors : sum local = 8.12316e-08, global = 6.86437e-21, cumulative = 3.28679e-20
[OGL LOG] init_preconditioner : 0 ms
[OGL LOG] solve : 1131 ms
ILUcudaGKOCG:  Solving for p, Initial residual = 0.303854, Final residual = 8.93669e-07, No Iterations 226
linear solve p 1150216
time step continuity errors : sum local = 7.0163e-08, global = 1.26792e-20, cumulative = 4.55471e-20
ExecutionTime = 16.74 s  ClockTime = 17 s

Time = 0.00352941

Courant Number mean: 0.173894 max: 0.959456
DILUPBiCGStab:  Solving for Ux, Initial residual = 0.00333713, Final residual = 3.14696e-05, No Iterations 5
DILUPBiCGStab:  Solving for Uy, Initial residual = 0.0094561, Final residual = 8.96573e-05, No Iterations 5
DILUPBiCGStab:  Solving for Uz, Initial residual = 0.0306865, Final residual = 0.000410326, No Iterations 5
linear solve U 601982
[OGL LOG] init_preconditioner : 0 ms
[OGL LOG] solve : 1127 ms
ILUcudaGKOCG:  Solving for p, Initial residual = 0.299931, Final residual = 9.19871e-07, No Iterations 225
linear solve p 1148623
time step continuity errors : sum local = 6.82547e-08, global = 2.62747e-20, cumulative = 7.18217e-20
[OGL LOG] init_preconditioner : 0 ms
[OGL LOG] solve : 1123 ms
ILUcudaGKOCG:  Solving for p, Initial residual = 0.215688, Final residual = 9.29003e-07, No Iterations 224
linear solve p 1142268
time step continuity errors : sum local = 6.84275e-08, global = 1.30448e-20, cumulative = 8.48665e-20
ExecutionTime = 20.01 s  ClockTime = 20 s

Time = 0.00470588

Courant Number mean: 0.175264 max: 0.959792
DILUPBiCGStab:  Solving for Ux, Initial residual = 0.0024873, Final residual = 2.07231e-05, No Iterations 5
DILUPBiCGStab:  Solving for Uy, Initial residual = 0.00741672, Final residual = 5.77366e-05, No Iterations 5
DILUPBiCGStab:  Solving for Uz, Initial residual = 0.0248503, Final residual = 0.000346983, No Iterations 5
linear solve U 611573
[OGL LOG] init_preconditioner : 0 ms
[OGL LOG] solve : 1116 ms
ILUcudaGKOCG:  Solving for p, Initial residual = 0.231304, Final residual = 8.95196e-07, No Iterations 223
linear solve p 1135611
time step continuity errors : sum local = 6.98858e-08, global = 1.62349e-20, cumulative = 1.01101e-19
[OGL LOG] init_preconditioner : 0 ms
[OGL LOG] solve : 1112 ms
ILUcudaGKOCG:  Solving for p, Initial residual = 0.174241, Final residual = 9.82126e-07, No Iterations 222
linear solve p 1134409
time step continuity errors : sum local = 6.91643e-08, global = -1.19003e-20, cumulative = 8.92011e-20
ExecutionTime = 23.27 s  ClockTime = 24 s

Time = 0.00588235

Courant Number mean: 0.176537 max: 0.960088
DILUPBiCGStab:  Solving for Ux, Initial residual = 0.00205611, Final residual = 1.50286e-05, No Iterations 5
DILUPBiCGStab:  Solving for Uy, Initial residual = 0.00597109, Final residual = 3.61311e-05, No Iterations 5
DILUPBiCGStab:  Solving for Uz, Initial residual = 0.0198557, Final residual = 0.00027247, No Iterations 5
linear solve U 599937
[OGL LOG] init_preconditioner : 0 ms
[OGL LOG] solve : 1111 ms
ILUcudaGKOCG:  Solving for p, Initial residual = 0.174287, Final residual = 7.71639e-07, No Iterations 222
linear solve p 1130445
time step continuity errors : sum local = 6.9156e-08, global = -2.36838e-20, cumulative = 6.55173e-20
[OGL LOG] init_preconditioner : 0 ms
[OGL LOG] solve : 1108 ms
ILUcudaGKOCG:  Solving for p, Initial residual = 0.135154, Final residual = 9.21474e-07, No Iterations 221
linear solve p 1129062
time step continuity errors : sum local = 6.87673e-08, global = -3.32969e-21, cumulative = 6.21877e-20
ExecutionTime = 26.5 s  ClockTime = 27 s

Time = 0.00705882

Courant Number mean: 0.177704 max: 0.960428
DILUPBiCGStab:  Solving for Ux, Initial residual = 0.00174905, Final residual = 1.21874e-05, No Iterations 5
DILUPBiCGStab:  Solving for Uy, Initial residual = 0.00512415, Final residual = 2.67738e-05, No Iterations 5
DILUPBiCGStab:  Solving for Uz, Initial residual = 0.0165783, Final residual = 0.0002166, No Iterations 5
linear solve U 605283
[OGL LOG] init_preconditioner : 0 ms
[OGL LOG] solve : 1096 ms
ILUcudaGKOCG:  Solving for p, Initial residual = 0.141168, Final residual = 9.77142e-07, No Iterations 219
linear solve p 1116828
time step continuity errors : sum local = 6.89462e-08, global = -8.1473e-21, cumulative = 5.40403e-20
[OGL LOG] init_preconditioner : 0 ms
[OGL LOG] solve : 1091 ms
ILUcudaGKOCG:  Solving for p, Initial residual = 0.112334, Final residual = 9.65264e-07, No Iterations 218
linear solve p 1110805
time step continuity errors : sum local = 6.897e-08, global = -8.43907e-21, cumulative = 4.56013e-20
ExecutionTime = 29.7 s  ClockTime = 30 s

Time = 0.00823529

Courant Number mean: 0.178771 max: 0.960686
DILUPBiCGStab:  Solving for Ux, Initial residual = 0.00151463, Final residual = 9.78425e-06, No Iterations 5
DILUPBiCGStab:  Solving for Uy, Initial residual = 0.00444474, Final residual = 2.00455e-05, No Iterations 5
DILUPBiCGStab:  Solving for Uz, Initial residual = 0.0136235, Final residual = 0.000162009, No Iterations 5
linear solve U 609038
[OGL LOG] init_preconditioner : 0 ms
[OGL LOG] solve : 1092 ms
ILUcudaGKOCG:  Solving for p, Initial residual = 0.113919, Final residual = 9.03495e-07, No Iterations 218
linear solve p 1111426
time step continuity errors : sum local = 6.9124e-08, global = -3.02985e-20, cumulative = 1.53028e-20
[OGL LOG] init_preconditioner : 0 ms
[OGL LOG] solve : 1091 ms
ILUcudaGKOCG:  Solving for p, Initial residual = 0.0918206, Final residual = 8.086e-07, No Iterations 218
linear solve p 1112281
time step continuity errors : sum local = 6.88122e-08, global = -1.81822e-20, cumulative = -2.87942e-21
ExecutionTime = 32.91 s  ClockTime = 33 s

Time = 0.00941176

Courant Number mean: 0.179753 max: 0.960953
DILUPBiCGStab:  Solving for Ux, Initial residual = 0.00134499, Final residual = 8.39641e-06, No Iterations 5
DILUPBiCGStab:  Solving for Uy, Initial residual = 0.00391835, Final residual = 1.64915e-05, No Iterations 5
DILUPBiCGStab:  Solving for Uz, Initial residual = 0.0115658, Final residual = 0.000123252, No Iterations 5
linear solve U 603953
[OGL LOG] init_preconditioner : 0 ms
[OGL LOG] solve : 1086 ms
ILUcudaGKOCG:  Solving for p, Initial residual = 0.0945176, Final residual = 8.11147e-07, No Iterations 217
linear solve p 1106157
time step continuity errors : sum local = 6.88201e-08, global = -1.6187e-20, cumulative = -1.90664e-20
[OGL LOG] init_preconditioner : 0 ms
[OGL LOG] solve : 1080 ms
ILUcudaGKOCG:  Solving for p, Initial residual = 0.0771002, Final residual = 9.33757e-07, No Iterations 216
linear solve p 1099107
time step continuity errors : sum local = 6.89022e-08, global = -2.37361e-20, cumulative = -4.28025e-20
ExecutionTime = 36.08 s  ClockTime = 37 s

Time = 0.0105882

Courant Number mean: 0.180649 max: 0.961168
DILUPBiCGStab:  Solving for Ux, Initial residual = 0.00118527, Final residual = 6.93748e-06, No Iterations 5
DILUPBiCGStab:  Solving for Uy, Initial residual = 0.00349479, Final residual = 1.38672e-05, No Iterations 5
DILUPBiCGStab:  Solving for Uz, Initial residual = 0.00963698, Final residual = 8.71724e-05, No Iterations 5
linear solve U 615088
[OGL LOG] init_preconditioner : 0 ms
[OGL LOG] solve : 1079 ms
ILUcudaGKOCG:  Solving for p, Initial residual = 0.0787007, Final residual = 9.07848e-07, No Iterations 216
linear solve p 1097977
time step continuity errors : sum local = 6.90233e-08, global = -2.71824e-20, cumulative = -6.99849e-20
[OGL LOG] init_preconditioner : 0 ms
[OGL LOG] solve : 1077 ms
ILUcudaGKOCG:  Solving for p, Initial residual = 0.0644995, Final residual = 9.75634e-07, No Iterations 215
linear solve p 1097752
time step continuity errors : sum local = 6.88736e-08, global = -2.08831e-20, cumulative = -9.0868e-20
ExecutionTime = 39.25 s  ClockTime = 40 s

Time = 0.0117647

Courant Number mean: 0.181477 max: 0.961382
DILUPBiCGStab:  Solving for Ux, Initial residual = 0.00107351, Final residual = 6.12225e-06, No Iterations 5
DILUPBiCGStab:  Solving for Uy, Initial residual = 0.00312572, Final residual = 1.24594e-05, No Iterations 5
DILUPBiCGStab:  Solving for Uz, Initial residual = 0.00836417, Final residual = 6.59559e-05, No Iterations 5
linear solve U 604892
[OGL LOG] init_preconditioner : 0 ms
[OGL LOG] solve : 1047 ms
ILUcudaGKOCG:  Solving for p, Initial residual = 0.0658931, Final residual = 9.37862e-07, No Iterations 209
linear solve p 1066544
time step continuity errors : sum local = 6.88478e-08, global = 2.39146e-21, cumulative = -8.84766e-20
[OGL LOG] init_preconditioner : 0 ms
[OGL LOG] solve : 1045 ms
ILUcudaGKOCG:  Solving for p, Initial residual = 0.0542653, Final residual = 8.53464e-07, No Iterations 209
linear solve p 1064860
time step continuity errors : sum local = 6.88611e-08, global = 1.34498e-20, cumulative = -7.50268e-20
ExecutionTime = 42.35 s  ClockTime = 43 s

End

