/*---------------------------------------------------------------------------*\
  =========                 |
  \\      /  F ield         | OpenFOAM: The Open Source CFD Toolbox
   \\    /   O peration     | Website:  https://openfoam.org
    \\  /    A nd           | Version:  8
     \\/     M anipulation  |
\*---------------------------------------------------------------------------*/
Build  : 8-ef60d22ea792
Exec   : icoFoam
Date   : Sep 15 2021
Time   : 14:59:37
Host   : "uc2n482.localdomain"
PID    : 3657815
I/O    : uncollated
Case   : /pfs/data5/home/kit/scc/nq7776/data/code/OBR/lidDrivenCavity3D/Variation_init/100/Variation_mesh/50/Variation_matrix_solver/CG_BJ_CUDA/Variation_maxBlockSize/16/1631710771
nProcs : 1
sigFpe : Enabling floating point exception trapping (FOAM_SIGFPE).
fileModificationChecking : Monitoring run-time modified files using timeStampMaster (fileModificationSkew 10)
allowSystemOperations : Allowing user-supplied system call operations

// * * * * * * * * * * * * * * * * * * * * * * * * * * * * * * * * * * * * * //
Create time

Create mesh for time = 0

Reading transportProperties

Reading field p

Reading field U

Reading/calculating face flux field phi


Starting time loop

Time = 0.002

Courant Number mean: 0.171832 max: 0.950949
DILUPBiCGStab:  Solving for Ux, Initial residual = 0.170437, Final residual = 6.82397e-05, No Iterations 5
DILUPBiCGStab:  Solving for Uy, Initial residual = 0.34992, Final residual = 0.000142663, No Iterations 5
DILUPBiCGStab:  Solving for Uz, Initial residual = 0.557699, Final residual = 0.000189983, No Iterations 5
linear solve U 118010
[OGL LOG] init_host_sparsity_pattern : 33 ms
[OGL LOG] matrix not stored update host matrix
[OGL LOG] update_host_mtx : 17 ms
[OGL LOG] matrix is not yet sorted, compute sorting idxs
[OGL LOG] compute_sort : 1049 ms
[OGL LOG] matrix is not yet sorted, sorting host matrix
[OGL LOG] sort_host_mtx_sparsity_pattern : 25 ms
[OGL LOG] sort_host_mtx : 14 ms
[OGL LOG] init_preconditioner : 15 ms
[OGL LOG] solve : 71 ms
BJcudaGKOCG:  Solving for p, Initial residual = 0.678275, Final residual = 9.65562e-07, No Iterations 371
linear solve p 1999839
time step continuity errors : sum local = 2.90037e-09, global = 6.80585e-21, cumulative = 6.80585e-21
[OGL LOG] init_preconditioner : 0 ms
[OGL LOG] solve : 71 ms
BJcudaGKOCG:  Solving for p, Initial residual = 0.41358, Final residual = 9.78032e-07, No Iterations 380
linear solve p 75318
time step continuity errors : sum local = 1.50382e-09, global = -2.54123e-20, cumulative = -1.86065e-20
ExecutionTime = 2.85 s  ClockTime = 3 s

Time = 0.004

Courant Number mean: 0.174856 max: 0.932415
DILUPBiCGStab:  Solving for Ux, Initial residual = 0.0115943, Final residual = 2.67525e-05, No Iterations 5
DILUPBiCGStab:  Solving for Uy, Initial residual = 0.0268869, Final residual = 4.9244e-05, No Iterations 5
DILUPBiCGStab:  Solving for Uz, Initial residual = 0.112847, Final residual = 0.000158133, No Iterations 5
linear solve U 106985
[OGL LOG] init_preconditioner : 0 ms
[OGL LOG] solve : 74 ms
BJcudaGKOCG:  Solving for p, Initial residual = 0.327331, Final residual = 9.91242e-07, No Iterations 395
linear solve p 77937
time step continuity errors : sum local = 7.21972e-07, global = 5.7355e-20, cumulative = 3.87486e-20
[OGL LOG] init_preconditioner : 0 ms
[OGL LOG] solve : 76 ms
BJcudaGKOCG:  Solving for p, Initial residual = 0.243048, Final residual = 9.75572e-07, No Iterations 393
linear solve p 80693
time step continuity errors : sum local = 6.31267e-07, global = -5.85934e-20, cumulative = -1.98449e-20
ExecutionTime = 3.19 s  ClockTime = 4 s

Time = 0.006

Courant Number mean: 0.176822 max: 0.934846
DILUPBiCGStab:  Solving for Ux, Initial residual = 0.00529441, Final residual = 9.8498e-06, No Iterations 5
DILUPBiCGStab:  Solving for Uy, Initial residual = 0.0102196, Final residual = 2.29777e-05, No Iterations 5
DILUPBiCGStab:  Solving for Uz, Initial residual = 0.048526, Final residual = 7.73781e-05, No Iterations 5
linear solve U 106742
[OGL LOG] init_preconditioner : 0 ms
[OGL LOG] solve : 69 ms
BJcudaGKOCG:  Solving for p, Initial residual = 0.174439, Final residual = 9.5515e-07, No Iterations 373
linear solve p 73313
time step continuity errors : sum local = 6.72914e-07, global = -7.85491e-21, cumulative = -2.76998e-20
[OGL LOG] init_preconditioner : 0 ms
[OGL LOG] solve : 68 ms
BJcudaGKOCG:  Solving for p, Initial residual = 0.133081, Final residual = 9.80418e-07, No Iterations 371
linear solve p 72614
time step continuity errors : sum local = 6.30598e-07, global = 1.11231e-20, cumulative = -1.65767e-20
ExecutionTime = 3.5 s  ClockTime = 4 s

Time = 0.008

Courant Number mean: 0.178238 max: 0.933359
DILUPBiCGStab:  Solving for Ux, Initial residual = 0.00289607, Final residual = 5.56898e-06, No Iterations 5
DILUPBiCGStab:  Solving for Uy, Initial residual = 0.00786353, Final residual = 1.00811e-05, No Iterations 5
DILUPBiCGStab:  Solving for Uz, Initial residual = 0.0260295, Final residual = 3.95498e-05, No Iterations 5
linear solve U 104814
[OGL LOG] init_preconditioner : 0 ms
[OGL LOG] solve : 66 ms
BJcudaGKOCG:  Solving for p, Initial residual = 0.105329, Final residual = 9.96594e-07, No Iterations 355
linear solve p 69747
time step continuity errors : sum local = 6.21094e-07, global = 8.97863e-21, cumulative = -7.59805e-21
[OGL LOG] init_preconditioner : 0 ms
[OGL LOG] solve : 65 ms
BJcudaGKOCG:  Solving for p, Initial residual = 0.0812434, Final residual = 9.99442e-07, No Iterations 353
linear solve p 69125
time step continuity errors : sum local = 6.30411e-07, global = -2.50892e-20, cumulative = -3.26873e-20
ExecutionTime = 3.81 s  ClockTime = 4 s

Time = 0.01

Courant Number mean: 0.179753 max: 0.9341
DILUPBiCGStab:  Solving for Ux, Initial residual = 0.00227171, Final residual = 4.01276e-06, No Iterations 5
DILUPBiCGStab:  Solving for Uy, Initial residual = 0.00526713, Final residual = 5.88505e-06, No Iterations 5
DILUPBiCGStab:  Solving for Uz, Initial residual = 0.0148985, Final residual = 2.07692e-05, No Iterations 5
linear solve U 105703
[OGL LOG] init_preconditioner : 0 ms
[OGL LOG] solve : 62 ms
BJcudaGKOCG:  Solving for p, Initial residual = 0.0676224, Final residual = 9.31637e-07, No Iterations 332
linear solve p 66222
time step continuity errors : sum local = 6.34907e-07, global = 3.55832e-21, cumulative = -2.91289e-20
[OGL LOG] init_preconditioner : 0 ms
[OGL LOG] solve : 62 ms
BJcudaGKOCG:  Solving for p, Initial residual = 0.0517184, Final residual = 9.07127e-07, No Iterations 331
linear solve p 66026
time step continuity errors : sum local = 6.30494e-07, global = -5.50902e-22, cumulative = -2.96798e-20
ExecutionTime = 4.13 s  ClockTime = 5 s

Time = 0.012

Courant Number mean: 0.181051 max: 0.934596
DILUPBiCGStab:  Solving for Ux, Initial residual = 0.0017552, Final residual = 1.90478e-06, No Iterations 5
DILUPBiCGStab:  Solving for Uy, Initial residual = 0.00453415, Final residual = 4.02195e-06, No Iterations 5
DILUPBiCGStab:  Solving for Uz, Initial residual = 0.0114964, Final residual = 1.2578e-05, No Iterations 5
linear solve U 105142
[OGL LOG] init_preconditioner : 0 ms
[OGL LOG] solve : 60 ms
BJcudaGKOCG:  Solving for p, Initial residual = 0.0446784, Final residual = 9.42457e-07, No Iterations 319
linear solve p 64216
time step continuity errors : sum local = 6.28819e-07, global = 7.63676e-20, cumulative = 4.66877e-20
[OGL LOG] init_preconditioner : 0 ms
[OGL LOG] solve : 60 ms
BJcudaGKOCG:  Solving for p, Initial residual = 0.0343747, Final residual = 9.18955e-07, No Iterations 318
linear solve p 64192
time step continuity errors : sum local = 6.30412e-07, global = -2.49386e-20, cumulative = 2.17492e-20
ExecutionTime = 4.43 s  ClockTime = 5 s

Time = 0.014

Courant Number mean: 0.182225 max: 0.93496
DILUPBiCGStab:  Solving for Ux, Initial residual = 0.00149061, Final residual = 9.87691e-07, No Iterations 5
DILUPBiCGStab:  Solving for Uy, Initial residual = 0.00373596, Final residual = 1.79923e-06, No Iterations 5
DILUPBiCGStab:  Solving for Uz, Initial residual = 0.00819509, Final residual = 8.40334e-06, No Iterations 5
linear solve U 110171
[OGL LOG] init_preconditioner : 0 ms
[OGL LOG] solve : 59 ms
BJcudaGKOCG:  Solving for p, Initial residual = 0.0303478, Final residual = 9.609e-07, No Iterations 315
linear solve p 63613
time step continuity errors : sum local = 6.30673e-07, global = 1.40972e-21, cumulative = 2.31589e-20
[OGL LOG] init_preconditioner : 0 ms
[OGL LOG] solve : 59 ms
BJcudaGKOCG:  Solving for p, Initial residual = 0.0232669, Final residual = 9.78241e-07, No Iterations 313
linear solve p 63067
time step continuity errors : sum local = 6.30447e-07, global = 1.96838e-21, cumulative = 2.51273e-20
ExecutionTime = 4.73 s  ClockTime = 5 s

Time = 0.016

Courant Number mean: 0.183255 max: 0.935382
DILUPBiCGStab:  Solving for Ux, Initial residual = 0.00125113, Final residual = 4.13776e-07, No Iterations 5
DILUPBiCGStab:  Solving for Uy, Initial residual = 0.00326805, Final residual = 1.01023e-06, No Iterations 5
DILUPBiCGStab:  Solving for Uz, Initial residual = 0.00684742, Final residual = 6.24839e-06, No Iterations 5
linear solve U 107113
[OGL LOG] init_preconditioner : 0 ms
[OGL LOG] solve : 57 ms
BJcudaGKOCG:  Solving for p, Initial residual = 0.0207014, Final residual = 9.36396e-07, No Iterations 311
linear solve p 61526
time step continuity errors : sum local = 6.29995e-07, global = -3.40567e-20, cumulative = -8.92939e-21
[OGL LOG] init_preconditioner : 0 ms
[OGL LOG] solve : 57 ms
BJcudaGKOCG:  Solving for p, Initial residual = 0.0160335, Final residual = 8.98411e-07, No Iterations 310
linear solve p 60921
time step continuity errors : sum local = 6.30404e-07, global = 1.60756e-20, cumulative = 7.14624e-21
ExecutionTime = 5.03 s  ClockTime = 5 s

Time = 0.018

Courant Number mean: 0.184168 max: 0.935681
DILUPBiCGStab:  Solving for Ux, Initial residual = 0.0010807, Final residual = 3.28378e-07, No Iterations 5
DILUPBiCGStab:  Solving for Uy, Initial residual = 0.00281176, Final residual = 1.01233e-06, No Iterations 5
DILUPBiCGStab:  Solving for Uz, Initial residual = 0.00553653, Final residual = 4.59514e-06, No Iterations 5
linear solve U 107244
[OGL LOG] init_preconditioner : 0 ms
[OGL LOG] solve : 54 ms
BJcudaGKOCG:  Solving for p, Initial residual = 0.0144618, Final residual = 9.58816e-07, No Iterations 291
linear solve p 58558
time step continuity errors : sum local = 6.30207e-07, global = 1.00733e-19, cumulative = 1.0788e-19
[OGL LOG] init_preconditioner : 0 ms
[OGL LOG] solve : 52 ms
BJcudaGKOCG:  Solving for p, Initial residual = 0.0112116, Final residual = 9.54023e-07, No Iterations 290
linear solve p 56413
time step continuity errors : sum local = 6.30423e-07, global = 3.1602e-20, cumulative = 1.39482e-19
ExecutionTime = 5.32 s  ClockTime = 6 s

Time = 0.02

Courant Number mean: 0.184973 max: 0.935986
DILUPBiCGStab:  Solving for Ux, Initial residual = 0.000928393, Final residual = 1.85319e-07, No Iterations 5
DILUPBiCGStab:  Solving for Uy, Initial residual = 0.00248415, Final residual = 5.62287e-07, No Iterations 5
DILUPBiCGStab:  Solving for Uz, Initial residual = 0.00474028, Final residual = 3.34109e-06, No Iterations 5
linear solve U 106000
[OGL LOG] init_preconditioner : 0 ms
[OGL LOG] solve : 53 ms
BJcudaGKOCG:  Solving for p, Initial residual = 0.0101783, Final residual = 9.81515e-07, No Iterations 292
linear solve p 56891
time step continuity errors : sum local = 6.30185e-07, global = -1.08935e-20, cumulative = 1.28588e-19
[OGL LOG] init_preconditioner : 0 ms
[OGL LOG] solve : 53 ms
BJcudaGKOCG:  Solving for p, Initial residual = 0.00803458, Final residual = 9.87026e-07, No Iterations 291
linear solve p 56742
time step continuity errors : sum local = 6.30423e-07, global = 1.4287e-20, cumulative = 1.42875e-19
ExecutionTime = 5.61 s  ClockTime = 6 s

End

