/*---------------------------------------------------------------------------*\
  =========                 |
  \\      /  F ield         | OpenFOAM: The Open Source CFD Toolbox
   \\    /   O peration     | Website:  https://openfoam.org
    \\  /    A nd           | Version:  8
     \\/     M anipulation  |
\*---------------------------------------------------------------------------*/
Build  : 8-ef60d22ea792
Exec   : icoFoam
Date   : Sep 15 2021
Time   : 15:06:56
Host   : "uc2n482.localdomain"
PID    : 3661368
I/O    : uncollated
Case   : /pfs/data5/home/kit/scc/nq7776/data/code/OBR/lidDrivenCavity3D/Variation_init/100/Variation_mesh/35/Variation_matrix_solver/BiCGStab_ILU_CUDA/1631711212
nProcs : 1
sigFpe : Enabling floating point exception trapping (FOAM_SIGFPE).
fileModificationChecking : Monitoring run-time modified files using timeStampMaster (fileModificationSkew 10)
allowSystemOperations : Allowing user-supplied system call operations

// * * * * * * * * * * * * * * * * * * * * * * * * * * * * * * * * * * * * * //
Create time

Create mesh for time = 0

Reading transportProperties

Reading field p

Reading field U

Reading/calculating face flux field phi


Starting time loop

Time = 0.00285714

Courant Number mean: 0.170224 max: 0.896231
DILUPBiCGStab:  Solving for Ux, Initial residual = 0.0535917, Final residual = 5.77204e-06, No Iterations 5
DILUPBiCGStab:  Solving for Uy, Initial residual = 0.0977818, Final residual = 6.12956e-06, No Iterations 5
DILUPBiCGStab:  Solving for Uz, Initial residual = 0.14058, Final residual = 2.6287e-05, No Iterations 5
linear solve U 32794
[OGL LOG] init_host_sparsity_pattern : 11 ms
[OGL LOG] matrix not stored update host matrix
[OGL LOG] update_host_mtx : 5 ms
[OGL LOG] matrix is not yet sorted, compute sorting idxs
[OGL LOG] compute_sort : 340 ms
[OGL LOG] matrix is not yet sorted, sorting host matrix
[OGL LOG] sort_host_mtx_sparsity_pattern : 7 ms
[OGL LOG] sort_host_mtx : 4 ms
[OGL LOG] init_preconditioner : 17 ms
[OGL LOG] solve : 78 ms
ILUcudaGKOBiCGStab:  Solving for p, Initial residual = 0.499827, Final residual = 6.38066e-07, No Iterations 65
linear solve p 1229485
time step continuity errors : sum local = 2.01511e-09, global = 9.66958e-20, cumulative = 9.66958e-20
[OGL LOG] init_preconditioner : 0 ms
[OGL LOG] solve : 81 ms
ILUcudaGKOBiCGStab:  Solving for p, Initial residual = 0.250333, Final residual = 3.21053e-07, No Iterations 68
linear solve p 83014
time step continuity errors : sum local = 8.77988e-10, global = 2.60606e-20, cumulative = 1.22756e-19
ExecutionTime = 1.58 s  ClockTime = 2 s

Time = 0.00571429

Courant Number mean: 0.173241 max: 0.901365
DILUPBiCGStab:  Solving for Ux, Initial residual = 0.00900652, Final residual = 3.93745e-06, No Iterations 5
DILUPBiCGStab:  Solving for Uy, Initial residual = 0.0172095, Final residual = 5.21186e-06, No Iterations 5
DILUPBiCGStab:  Solving for Uz, Initial residual = 0.0412806, Final residual = 1.64554e-05, No Iterations 5
linear solve U 30264
[OGL LOG] init_preconditioner : 0 ms
[OGL LOG] solve : 87 ms
ILUcudaGKOBiCGStab:  Solving for p, Initial residual = 0.196072, Final residual = 9.2758e-07, No Iterations 70
linear solve p 89290
time step continuity errors : sum local = 4.88258e-07, global = -3.38993e-20, cumulative = 8.88571e-20
[OGL LOG] init_preconditioner : 0 ms
[OGL LOG] solve : 85 ms
ILUcudaGKOBiCGStab:  Solving for p, Initial residual = 0.136245, Final residual = 6.115e-07, No Iterations 71
linear solve p 86974
time step continuity errors : sum local = 4.23212e-07, global = 2.66382e-20, cumulative = 1.15495e-19
ExecutionTime = 1.82 s  ClockTime = 2 s

Time = 0.00857143

Courant Number mean: 0.176068 max: 0.902689
DILUPBiCGStab:  Solving for Ux, Initial residual = 0.00390881, Final residual = 1.95605e-06, No Iterations 5
DILUPBiCGStab:  Solving for Uy, Initial residual = 0.0112151, Final residual = 3.28054e-06, No Iterations 5
DILUPBiCGStab:  Solving for Uz, Initial residual = 0.0238386, Final residual = 7.05218e-06, No Iterations 5
linear solve U 30788
[OGL LOG] init_preconditioner : 0 ms
[OGL LOG] solve : 82 ms
ILUcudaGKOBiCGStab:  Solving for p, Initial residual = 0.0885415, Final residual = 8.41274e-07, No Iterations 68
linear solve p 83274
time step continuity errors : sum local = 4.06894e-07, global = -1.57737e-20, cumulative = 9.97215e-20
[OGL LOG] init_preconditioner : 0 ms
[OGL LOG] solve : 79 ms
ILUcudaGKOBiCGStab:  Solving for p, Initial residual = 0.0629648, Final residual = 8.09078e-07, No Iterations 66
linear solve p 80640
time step continuity errors : sum local = 4.21488e-07, global = 3.92273e-20, cumulative = 1.38949e-19
ExecutionTime = 2.03 s  ClockTime = 2 s

Time = 0.0114286

Courant Number mean: 0.178562 max: 0.90517
DILUPBiCGStab:  Solving for Ux, Initial residual = 0.00298468, Final residual = 7.84226e-07, No Iterations 5
DILUPBiCGStab:  Solving for Uy, Initial residual = 0.00706329, Final residual = 1.21988e-06, No Iterations 5
DILUPBiCGStab:  Solving for Uz, Initial residual = 0.0136032, Final residual = 2.91744e-06, No Iterations 5
linear solve U 29720
[OGL LOG] init_preconditioner : 0 ms
[OGL LOG] solve : 74 ms
ILUcudaGKOBiCGStab:  Solving for p, Initial residual = 0.0454632, Final residual = 8.86664e-07, No Iterations 62
linear solve p 75792
time step continuity errors : sum local = 4.24679e-07, global = 1.12621e-19, cumulative = 2.51569e-19
[OGL LOG] init_preconditioner : 0 ms
[OGL LOG] solve : 78 ms
ILUcudaGKOBiCGStab:  Solving for p, Initial residual = 0.032492, Final residual = 4.87483e-07, No Iterations 65
linear solve p 79259
time step continuity errors : sum local = 4.20728e-07, global = 8.63293e-20, cumulative = 3.37899e-19
ExecutionTime = 2.24 s  ClockTime = 2 s

Time = 0.0142857

Courant Number mean: 0.180508 max: 0.90624
DILUPBiCGStab:  Solving for Ux, Initial residual = 0.00217968, Final residual = 3.96643e-07, No Iterations 5
DILUPBiCGStab:  Solving for Uy, Initial residual = 0.0055648, Final residual = 4.94586e-07, No Iterations 5
DILUPBiCGStab:  Solving for Uz, Initial residual = 0.0101198, Final residual = 1.74888e-06, No Iterations 5
linear solve U 29825
[OGL LOG] init_preconditioner : 0 ms
[OGL LOG] solve : 78 ms
ILUcudaGKOBiCGStab:  Solving for p, Initial residual = 0.0250487, Final residual = 7.51251e-07, No Iterations 65
linear solve p 79175
time step continuity errors : sum local = 4.19301e-07, global = -1.64068e-20, cumulative = 3.21492e-19
[OGL LOG] init_preconditioner : 0 ms
[OGL LOG] solve : 78 ms
ILUcudaGKOBiCGStab:  Solving for p, Initial residual = 0.0177932, Final residual = 9.10135e-07, No Iterations 65
linear solve p 79426
time step continuity errors : sum local = 4.20845e-07, global = 1.97637e-20, cumulative = 3.41256e-19
ExecutionTime = 2.45 s  ClockTime = 2 s

Time = 0.0171429

Courant Number mean: 0.182128 max: 0.907282
DILUPBiCGStab:  Solving for Ux, Initial residual = 0.00180191, Final residual = 1.99672e-07, No Iterations 5
DILUPBiCGStab:  Solving for Uy, Initial residual = 0.00453959, Final residual = 6.95805e-07, No Iterations 5
DILUPBiCGStab:  Solving for Uz, Initial residual = 0.00815772, Final residual = 1.31742e-06, No Iterations 5
linear solve U 30953
[OGL LOG] init_preconditioner : 0 ms
[OGL LOG] solve : 72 ms
ILUcudaGKOBiCGStab:  Solving for p, Initial residual = 0.0136282, Final residual = 2.48614e-07, No Iterations 60
linear solve p 73430
time step continuity errors : sum local = 4.20662e-07, global = -9.20764e-20, cumulative = 2.49179e-19
[OGL LOG] init_preconditioner : 0 ms
[OGL LOG] solve : 71 ms
ILUcudaGKOBiCGStab:  Solving for p, Initial residual = 0.0100643, Final residual = 8.83297e-07, No Iterations 59
linear solve p 72358
time step continuity errors : sum local = 4.20943e-07, global = -1.28889e-19, cumulative = 1.2029e-19
ExecutionTime = 2.64 s  ClockTime = 3 s

Time = 0.02

Courant Number mean: 0.183455 max: 0.907988
DILUPBiCGStab:  Solving for Ux, Initial residual = 0.00146256, Final residual = 2.17824e-07, No Iterations 5
DILUPBiCGStab:  Solving for Uy, Initial residual = 0.00369858, Final residual = 4.94859e-07, No Iterations 5
DILUPBiCGStab:  Solving for Uz, Initial residual = 0.00641708, Final residual = 7.05952e-07, No Iterations 5
linear solve U 29372
[OGL LOG] init_preconditioner : 0 ms
[OGL LOG] solve : 69 ms
ILUcudaGKOBiCGStab:  Solving for p, Initial residual = 0.0088596, Final residual = 7.24792e-07, No Iterations 58
linear solve p 71108
time step continuity errors : sum local = 4.20416e-07, global = -2.4494e-20, cumulative = 9.57963e-20
[OGL LOG] init_preconditioner : 0 ms
[OGL LOG] solve : 67 ms
ILUcudaGKOBiCGStab:  Solving for p, Initial residual = 0.00666894, Final residual = 9.25809e-07, No Iterations 56
linear solve p 68973
time step continuity errors : sum local = 4.21001e-07, global = -9.06767e-21, cumulative = 8.67286e-20
ExecutionTime = 2.84 s  ClockTime = 3 s

Time = 0.0228571

Courant Number mean: 0.184561 max: 0.908607
DILUPBiCGStab:  Solving for Ux, Initial residual = 0.00121469, Final residual = 1.38632e-07, No Iterations 5
DILUPBiCGStab:  Solving for Uy, Initial residual = 0.00309645, Final residual = 4.12299e-07, No Iterations 5
DILUPBiCGStab:  Solving for Uz, Initial residual = 0.00535907, Final residual = 6.21716e-07, No Iterations 5
linear solve U 30792
[OGL LOG] init_preconditioner : 0 ms
[OGL LOG] solve : 72 ms
ILUcudaGKOBiCGStab:  Solving for p, Initial residual = 0.00528189, Final residual = 7.31743e-07, No Iterations 58
linear solve p 74147
time step continuity errors : sum local = 4.20913e-07, global = 5.97998e-20, cumulative = 1.46528e-19
[OGL LOG] init_preconditioner : 0 ms
[OGL LOG] solve : 70 ms
ILUcudaGKOBiCGStab:  Solving for p, Initial residual = 0.00429691, Final residual = 7.33782e-07, No Iterations 58
linear solve p 71576
time step continuity errors : sum local = 4.20721e-07, global = 6.74347e-20, cumulative = 2.13963e-19
ExecutionTime = 3.04 s  ClockTime = 3 s

Time = 0.0257143

Courant Number mean: 0.18548 max: 0.909075
DILUPBiCGStab:  Solving for Ux, Initial residual = 0.0010082, Final residual = 7.64294e-08, No Iterations 5
DILUPBiCGStab:  Solving for Uy, Initial residual = 0.00257199, Final residual = 1.57529e-07, No Iterations 5
DILUPBiCGStab:  Solving for Uz, Initial residual = 0.00433724, Final residual = 4.48989e-07, No Iterations 5
linear solve U 30794
[OGL LOG] init_preconditioner : 0 ms
[OGL LOG] solve : 69 ms
ILUcudaGKOBiCGStab:  Solving for p, Initial residual = 0.0040268, Final residual = 9.27767e-07, No Iterations 57
linear solve p 70282
time step continuity errors : sum local = 4.20763e-07, global = 3.79933e-20, cumulative = 2.51956e-19
[OGL LOG] init_preconditioner : 0 ms
[OGL LOG] solve : 64 ms
ILUcudaGKOBiCGStab:  Solving for p, Initial residual = 0.00334514, Final residual = 6.83808e-07, No Iterations 53
linear solve p 65358
time step continuity errors : sum local = 4.21052e-07, global = -2.09773e-20, cumulative = 2.30979e-19
ExecutionTime = 3.23 s  ClockTime = 3 s

Time = 0.0285714

Courant Number mean: 0.186248 max: 0.909471
DILUPBiCGStab:  Solving for Ux, Initial residual = 0.000843016, Final residual = 6.27691e-08, No Iterations 5
DILUPBiCGStab:  Solving for Uy, Initial residual = 0.00216813, Final residual = 2.81707e-07, No Iterations 5
DILUPBiCGStab:  Solving for Uz, Initial residual = 0.00361254, Final residual = 3.90499e-07, No Iterations 5
linear solve U 30068
[OGL LOG] init_preconditioner : 0 ms
[OGL LOG] solve : 66 ms
ILUcudaGKOBiCGStab:  Solving for p, Initial residual = 0.00282506, Final residual = 6.70789e-07, No Iterations 55
linear solve p 67891
time step continuity errors : sum local = 4.20781e-07, global = -4.30311e-21, cumulative = 2.26676e-19
[OGL LOG] init_preconditioner : 0 ms
[OGL LOG] solve : 69 ms
ILUcudaGKOBiCGStab:  Solving for p, Initial residual = 0.00247018, Final residual = 9.90452e-07, No Iterations 56
linear solve p 70371
time step continuity errors : sum local = 4.21046e-07, global = -2.88119e-20, cumulative = 1.97864e-19
ExecutionTime = 3.41 s  ClockTime = 3 s

End

