/*---------------------------------------------------------------------------*\
  =========                 |
  \\      /  F ield         | OpenFOAM: The Open Source CFD Toolbox
   \\    /   O peration     | Website:  https://openfoam.org
    \\  /    A nd           | Version:  8
     \\/     M anipulation  |
\*---------------------------------------------------------------------------*/
Build  : 8-ef60d22ea792
Exec   : icoFoam
Date   : Sep 15 2021
Time   : 14:31:36
Host   : "uc2n438.localdomain"
PID    : 3550666
I/O    : uncollated
Case   : /pfs/data5/home/kit/scc/nq7776/data/code/OBR/lidDrivenCavity3D/Variation_init/100/Variation_mesh/10/Variation_matrix_solver/BiCGStab_DIC_Serial/1631709096
nProcs : 1
sigFpe : Enabling floating point exception trapping (FOAM_SIGFPE).
fileModificationChecking : Monitoring run-time modified files using timeStampMaster (fileModificationSkew 10)
allowSystemOperations : Allowing user-supplied system call operations

// * * * * * * * * * * * * * * * * * * * * * * * * * * * * * * * * * * * * * //
Create time

Create mesh for time = 0

Reading transportProperties

Reading field p

Reading field U

Reading/calculating face flux field phi


Starting time loop

Time = 0.01

Courant Number mean: 0.164367 max: 0.687382
DILUPBiCGStab:  Solving for Ux, Initial residual = 0.143876, Final residual = 4.90416e-10, No Iterations 5
DILUPBiCGStab:  Solving for Uy, Initial residual = 0.166383, Final residual = 9.49899e-10, No Iterations 5
DILUPBiCGStab:  Solving for Uz, Initial residual = 0.331866, Final residual = 6.25857e-09, No Iterations 5
linear solve U 796
DICPBiCGStab:  Solving for p, Initial residual = 0.61492, Final residual = 6.4547e-07, No Iterations 17
linear solve p 597
time step continuity errors : sum local = 3.28371e-08, global = -1.33693e-19, cumulative = -1.33693e-19
DICPBiCGStab:  Solving for p, Initial residual = 0.306169, Final residual = 2.6583e-07, No Iterations 20
linear solve p 684
time step continuity errors : sum local = 4.87018e-09, global = 3.01708e-19, cumulative = 1.68015e-19
ExecutionTime = 0.04 s  ClockTime = 0 s

Time = 0.02

Courant Number mean: 0.168824 max: 0.675339
DILUPBiCGStab:  Solving for Ux, Initial residual = 0.0355479, Final residual = 1.50459e-09, No Iterations 5
DILUPBiCGStab:  Solving for Uy, Initial residual = 0.0400337, Final residual = 6.38603e-10, No Iterations 5
DILUPBiCGStab:  Solving for Uz, Initial residual = 0.103402, Final residual = 1.8258e-09, No Iterations 5
linear solve U 634
DICPBiCGStab:  Solving for p, Initial residual = 0.15351, Final residual = 8.41069e-07, No Iterations 17
linear solve p 578
time step continuity errors : sum local = 2.50851e-08, global = -1.04054e-19, cumulative = 6.39612e-20
DICPBiCGStab:  Solving for p, Initial residual = 0.0682623, Final residual = 6.65933e-07, No Iterations 19
linear solve p 637
time step continuity errors : sum local = 1.44187e-08, global = 8.97233e-19, cumulative = 9.61194e-19
ExecutionTime = 0.04 s  ClockTime = 0 s

Time = 0.03

Courant Number mean: 0.172125 max: 0.674515
DILUPBiCGStab:  Solving for Ux, Initial residual = 0.00786034, Final residual = 3.41665e-10, No Iterations 5
DILUPBiCGStab:  Solving for Uy, Initial residual = 0.0117505, Final residual = 1.8004e-10, No Iterations 5
DILUPBiCGStab:  Solving for Uz, Initial residual = 0.0328642, Final residual = 7.87915e-10, No Iterations 5
linear solve U 630
DICPBiCGStab:  Solving for p, Initial residual = 0.0151811, Final residual = 6.9244e-07, No Iterations 14
linear solve p 491
time step continuity errors : sum local = 1.62555e-08, global = -1.25799e-19, cumulative = 8.35396e-19
DICPBiCGStab:  Solving for p, Initial residual = 0.00707746, Final residual = 9.34549e-07, No Iterations 13
linear solve p 442
time step continuity errors : sum local = 2.32131e-08, global = 5.06977e-19, cumulative = 1.34237e-18
ExecutionTime = 0.04 s  ClockTime = 0 s

Time = 0.04

Courant Number mean: 0.174438 max: 0.676483
DILUPBiCGStab:  Solving for Ux, Initial residual = 0.00346843, Final residual = 8.54257e-11, No Iterations 5
DILUPBiCGStab:  Solving for Uy, Initial residual = 0.00573687, Final residual = 8.30862e-11, No Iterations 5
DILUPBiCGStab:  Solving for Uz, Initial residual = 0.0109334, Final residual = 1.8669e-10, No Iterations 5
linear solve U 681
DICPBiCGStab:  Solving for p, Initial residual = 0.0063264, Final residual = 6.82864e-07, No Iterations 13
linear solve p 442
time step continuity errors : sum local = 2.53667e-08, global = -3.44781e-19, cumulative = 9.97591e-19
DICPBiCGStab:  Solving for p, Initial residual = 0.00351457, Final residual = 9.4616e-07, No Iterations 13
linear solve p 417
time step continuity errors : sum local = 2.23087e-08, global = -1.60173e-19, cumulative = 8.37418e-19
ExecutionTime = 0.04 s  ClockTime = 0 s

Time = 0.05

Courant Number mean: 0.17593 max: 0.678276
DILUPBiCGStab:  Solving for Ux, Initial residual = 0.00187264, Final residual = 4.14676e-11, No Iterations 5
DILUPBiCGStab:  Solving for Uy, Initial residual = 0.00338862, Final residual = 1.90716e-11, No Iterations 5
DILUPBiCGStab:  Solving for Uz, Initial residual = 0.00558941, Final residual = 9.33856e-11, No Iterations 5
linear solve U 584
DICPBiCGStab:  Solving for p, Initial residual = 0.00308733, Final residual = 6.06879e-07, No Iterations 13
linear solve p 423
time step continuity errors : sum local = 1.60256e-08, global = 9.47132e-20, cumulative = 9.32131e-19
DICPBiCGStab:  Solving for p, Initial residual = 0.00176374, Final residual = 7.76439e-07, No Iterations 13
linear solve p 434
time step continuity errors : sum local = 1.7294e-08, global = -1.03993e-19, cumulative = 8.28138e-19
ExecutionTime = 0.05 s  ClockTime = 0 s

Time = 0.06

Courant Number mean: 0.176863 max: 0.679463
DILUPBiCGStab:  Solving for Ux, Initial residual = 0.00111306, Final residual = 1.55453e-11, No Iterations 5
DILUPBiCGStab:  Solving for Uy, Initial residual = 0.00209441, Final residual = 1.0169e-11, No Iterations 5
DILUPBiCGStab:  Solving for Uz, Initial residual = 0.00302068, Final residual = 7.01363e-11, No Iterations 5
linear solve U 584
DICPBiCGStab:  Solving for p, Initial residual = 0.00188484, Final residual = 5.45384e-07, No Iterations 13
linear solve p 424
time step continuity errors : sum local = 1.34897e-08, global = -2.41899e-20, cumulative = 8.03948e-19
DICPBiCGStab:  Solving for p, Initial residual = 0.00108141, Final residual = 6.05259e-07, No Iterations 13
linear solve p 433
time step continuity errors : sum local = 1.32724e-08, global = 3.73089e-20, cumulative = 8.41257e-19
ExecutionTime = 0.05 s  ClockTime = 0 s

Time = 0.07

Courant Number mean: 0.177443 max: 0.680218
DILUPBiCGStab:  Solving for Ux, Initial residual = 0.000680106, Final residual = 7.14745e-12, No Iterations 5
DILUPBiCGStab:  Solving for Uy, Initial residual = 0.00129764, Final residual = 6.10036e-12, No Iterations 5
DILUPBiCGStab:  Solving for Uz, Initial residual = 0.00176892, Final residual = 4.59666e-11, No Iterations 5
linear solve U 584
DICPBiCGStab:  Solving for p, Initial residual = 0.00115031, Final residual = 8.27178e-07, No Iterations 12
linear solve p 395
time step continuity errors : sum local = 2.81849e-08, global = -1.46388e-19, cumulative = 6.94869e-19
DICPBiCGStab:  Solving for p, Initial residual = 0.000656012, Final residual = 9.15654e-07, No Iterations 12
linear solve p 402
time step continuity errors : sum local = 2.23516e-08, global = -5.28287e-19, cumulative = 1.66582e-19
ExecutionTime = 0.05 s  ClockTime = 0 s

Time = 0.08

Courant Number mean: 0.177802 max: 0.680682
DILUPBiCGStab:  Solving for Ux, Initial residual = 0.000418175, Final residual = 3.52537e-12, No Iterations 5
DILUPBiCGStab:  Solving for Uy, Initial residual = 0.000806338, Final residual = 3.69324e-12, No Iterations 5
DILUPBiCGStab:  Solving for Uz, Initial residual = 0.00106233, Final residual = 3.58885e-11, No Iterations 5
linear solve U 583
DICPBiCGStab:  Solving for p, Initial residual = 0.000706771, Final residual = 8.64226e-07, No Iterations 11
linear solve p 367
time step continuity errors : sum local = 3.42882e-08, global = -5.9739e-20, cumulative = 1.06843e-19
DICPBiCGStab:  Solving for p, Initial residual = 0.000402797, Final residual = 7.96511e-07, No Iterations 5
linear solve p 193
time step continuity errors : sum local = 1.73479e-08, global = -4.05564e-19, cumulative = -2.98722e-19
ExecutionTime = 0.05 s  ClockTime = 0 s

Time = 0.09

Courant Number mean: 0.178023 max: 0.680966
DILUPBiCGStab:  Solving for Ux, Initial residual = 0.000258147, Final residual = 1.73026e-12, No Iterations 5
DILUPBiCGStab:  Solving for Uy, Initial residual = 0.000500669, Final residual = 2.2402e-12, No Iterations 5
DILUPBiCGStab:  Solving for Uz, Initial residual = 0.00064657, Final residual = 1.66851e-11, No Iterations 5
linear solve U 590
DICPBiCGStab:  Solving for p, Initial residual = 0.000434462, Final residual = 6.09648e-07, No Iterations 6
linear solve p 219
time step continuity errors : sum local = 2.39277e-08, global = 3.30859e-19, cumulative = 3.21373e-20
DICPBiCGStab:  Solving for p, Initial residual = 0.000247452, Final residual = 6.94071e-07, No Iterations 5
linear solve p 178
time step continuity errors : sum local = 1.70116e-08, global = -1.38973e-19, cumulative = -1.06836e-19
ExecutionTime = 0.05 s  ClockTime = 0 s

Time = 0.1

Courant Number mean: 0.17816 max: 0.681139
DILUPBiCGStab:  Solving for Ux, Initial residual = 0.000159781, Final residual = 8.58725e-13, No Iterations 5
DILUPBiCGStab:  Solving for Uy, Initial residual = 0.000310498, Final residual = 1.37354e-12, No Iterations 5
DILUPBiCGStab:  Solving for Uz, Initial residual = 0.000397013, Final residual = 9.39434e-12, No Iterations 5
linear solve U 594
DICPBiCGStab:  Solving for p, Initial residual = 0.000268287, Final residual = 8.78802e-07, No Iterations 5
linear solve p 192
time step continuity errors : sum local = 2.9578e-08, global = -2.72244e-19, cumulative = -3.7908e-19
DICPBiCGStab:  Solving for p, Initial residual = 0.000152522, Final residual = 5.72258e-07, No Iterations 5
linear solve p 183
time step continuity errors : sum local = 1.81447e-08, global = -2.79532e-19, cumulative = -6.58612e-19
ExecutionTime = 0.06 s  ClockTime = 0 s

End

