/*---------------------------------------------------------------------------*\
  =========                 |
  \\      /  F ield         | OpenFOAM: The Open Source CFD Toolbox
   \\    /   O peration     | Website:  https://openfoam.org
    \\  /    A nd           | Version:  8
     \\/     M anipulation  |
\*---------------------------------------------------------------------------*/
Build  : 8-ef60d22ea792
Exec   : icoFoam
Date   : Sep 15 2021
Time   : 13:36:35
Host   : "uc2n482.localdomain"
PID    : 3634326
I/O    : uncollated
Case   : /pfs/data5/home/kit/scc/nq7776/data/code/OBR/lidDrivenCavity3D/Variation_init/100/Variation_mesh/25/Variation_matrix_solver/IR_NoPrecond_CUDA/Variation_innerReductionFactor/0.05/1631705792
nProcs : 1
sigFpe : Enabling floating point exception trapping (FOAM_SIGFPE).
fileModificationChecking : Monitoring run-time modified files using timeStampMaster (fileModificationSkew 10)
allowSystemOperations : Allowing user-supplied system call operations

// * * * * * * * * * * * * * * * * * * * * * * * * * * * * * * * * * * * * * //
Create time

Create mesh for time = 0

Reading transportProperties

Reading field p

Reading field U

Reading/calculating face flux field phi


Starting time loop

Time = 0.004

Courant Number mean: 0.169656 max: 0.889609
DILUPBiCGStab:  Solving for Ux, Initial residual = 0.143151, Final residual = 1.76454e-06, No Iterations 5
DILUPBiCGStab:  Solving for Uy, Initial residual = 0.204592, Final residual = 1.77082e-06, No Iterations 5
DILUPBiCGStab:  Solving for Uz, Initial residual = 0.476047, Final residual = 3.97645e-06, No Iterations 5
linear solve U 11765
[OGL LOG] init_host_sparsity_pattern : 4 ms
[OGL LOG] matrix not stored update host matrix
[OGL LOG] update_host_mtx : 2 ms
[OGL LOG] matrix is not yet sorted, compute sorting idxs
[OGL LOG] compute_sort : 108 ms
[OGL LOG] matrix is not yet sorted, sorting host matrix
[OGL LOG] sort_host_mtx_sparsity_pattern : 2 ms
[OGL LOG] sort_host_mtx : 1 ms
[OGL LOG] init_preconditioner : 0 ms
[OGL LOG] solve : 30 ms
nonecudaGKOIR:  Solving for p, Initial residual = 0.578841, Final residual = 6.01679e-07, No Iterations 5
linear solve p 909641
time step continuity errors : sum local = 4.26155e-09, global = 5.59235e-20, cumulative = 5.59235e-20
[OGL LOG] init_preconditioner : 0 ms
[OGL LOG] solve : 31 ms
nonecudaGKOIR:  Solving for p, Initial residual = 0.27554, Final residual = 1.90291e-07, No Iterations 5
linear solve p 31870
time step continuity errors : sum local = 1.00279e-09, global = 2.88192e-20, cumulative = 8.47427e-20
ExecutionTime = 1.05 s  ClockTime = 1 s

Time = 0.008

Courant Number mean: 0.173868 max: 0.868145
DILUPBiCGStab:  Solving for Ux, Initial residual = 0.0151887, Final residual = 1.22592e-06, No Iterations 5
DILUPBiCGStab:  Solving for Uy, Initial residual = 0.0247676, Final residual = 1.8083e-06, No Iterations 5
DILUPBiCGStab:  Solving for Uz, Initial residual = 0.0887879, Final residual = 3.8332e-06, No Iterations 5
linear solve U 9833
[OGL LOG] init_preconditioner : 0 ms
[OGL LOG] solve : 30 ms
nonecudaGKOIR:  Solving for p, Initial residual = 0.17531, Final residual = 8.97459e-08, No Iterations 5
linear solve p 30653
time step continuity errors : sum local = 3.28423e-06, global = 1.60559e-19, cumulative = 2.45302e-19
[OGL LOG] init_preconditioner : 0 ms
[OGL LOG] solve : 32 ms
nonecudaGKOIR:  Solving for p, Initial residual = 0.103192, Final residual = 5.073e-08, No Iterations 5
linear solve p 32601
time step continuity errors : sum local = 3.05857e-06, global = 5.13795e-20, cumulative = 2.96681e-19
ExecutionTime = 1.13 s  ClockTime = 1 s

Time = 0.012

Courant Number mean: 0.177048 max: 0.867817
DILUPBiCGStab:  Solving for Ux, Initial residual = 0.00469194, Final residual = 2.96388e-07, No Iterations 5
DILUPBiCGStab:  Solving for Uy, Initial residual = 0.00998763, Final residual = 4.81062e-07, No Iterations 5
DILUPBiCGStab:  Solving for Uz, Initial residual = 0.0313801, Final residual = 1.53361e-06, No Iterations 5
linear solve U 10043
[OGL LOG] init_preconditioner : 0 ms
[OGL LOG] solve : 25 ms
nonecudaGKOIR:  Solving for p, Initial residual = 0.0491941, Final residual = 4.37241e-07, No Iterations 4
linear solve p 25975
time step continuity errors : sum local = 3.01796e-06, global = -9.64476e-20, cumulative = 2.00234e-19
[OGL LOG] init_preconditioner : 0 ms
[OGL LOG] solve : 28 ms
nonecudaGKOIR:  Solving for p, Initial residual = 0.0326513, Final residual = 1.88061e-07, No Iterations 4
linear solve p 28582
time step continuity errors : sum local = 3.04391e-06, global = -1.46212e-20, cumulative = 1.85612e-19
ExecutionTime = 1.2 s  ClockTime = 1 s

Time = 0.016

Courant Number mean: 0.179565 max: 0.869322
DILUPBiCGStab:  Solving for Ux, Initial residual = 0.0031408, Final residual = 1.45477e-07, No Iterations 5
DILUPBiCGStab:  Solving for Uy, Initial residual = 0.00681957, Final residual = 2.61111e-07, No Iterations 5
DILUPBiCGStab:  Solving for Uz, Initial residual = 0.0130986, Final residual = 5.58334e-07, No Iterations 5
linear solve U 9896
[OGL LOG] init_preconditioner : 0 ms
[OGL LOG] solve : 27 ms
nonecudaGKOIR:  Solving for p, Initial residual = 0.0194249, Final residual = 1.70729e-07, No Iterations 4
linear solve p 27811
time step continuity errors : sum local = 3.04869e-06, global = -8.45676e-20, cumulative = 1.01045e-19
[OGL LOG] init_preconditioner : 0 ms
[OGL LOG] solve : 28 ms
nonecudaGKOIR:  Solving for p, Initial residual = 0.0140348, Final residual = 8.4291e-08, No Iterations 4
linear solve p 29237
time step continuity errors : sum local = 3.04635e-06, global = 1.20082e-19, cumulative = 2.21127e-19
ExecutionTime = 1.27 s  ClockTime = 1 s

Time = 0.02

Courant Number mean: 0.181574 max: 0.870814
DILUPBiCGStab:  Solving for Ux, Initial residual = 0.00232728, Final residual = 9.81716e-08, No Iterations 5
DILUPBiCGStab:  Solving for Uy, Initial residual = 0.00517749, Final residual = 1.34701e-07, No Iterations 5
DILUPBiCGStab:  Solving for Uz, Initial residual = 0.00910491, Final residual = 2.66233e-07, No Iterations 5
linear solve U 9909
[OGL LOG] init_preconditioner : 0 ms
[OGL LOG] solve : 31 ms
nonecudaGKOIR:  Solving for p, Initial residual = 0.0100116, Final residual = 6.6611e-08, No Iterations 4
linear solve p 31805
time step continuity errors : sum local = 3.04234e-06, global = -3.88295e-20, cumulative = 1.82297e-19
[OGL LOG] init_preconditioner : 0 ms
[OGL LOG] solve : 22 ms
nonecudaGKOIR:  Solving for p, Initial residual = 0.00751342, Final residual = 8.04383e-07, No Iterations 3
linear solve p 23401
time step continuity errors : sum local = 3.04614e-06, global = -3.1059e-20, cumulative = 1.51238e-19
ExecutionTime = 1.35 s  ClockTime = 1 s

Time = 0.024

Courant Number mean: 0.183143 max: 0.871972
DILUPBiCGStab:  Solving for Ux, Initial residual = 0.00177561, Final residual = 5.93607e-08, No Iterations 5
DILUPBiCGStab:  Solving for Uy, Initial residual = 0.00408239, Final residual = 1.08516e-07, No Iterations 5
DILUPBiCGStab:  Solving for Uz, Initial residual = 0.00674945, Final residual = 1.93424e-07, No Iterations 5
linear solve U 10373
[OGL LOG] init_preconditioner : 0 ms
[OGL LOG] solve : 22 ms
nonecudaGKOIR:  Solving for p, Initial residual = 0.00619574, Final residual = 8.12693e-07, No Iterations 3
linear solve p 22806
time step continuity errors : sum local = 3.04469e-06, global = -9.16731e-20, cumulative = 5.9565e-20
[OGL LOG] init_preconditioner : 0 ms
[OGL LOG] solve : 21 ms
nonecudaGKOIR:  Solving for p, Initial residual = 0.00497322, Final residual = 5.83714e-07, No Iterations 3
linear solve p 22297
time step continuity errors : sum local = 3.04602e-06, global = -5.28072e-20, cumulative = 6.75776e-21
ExecutionTime = 1.41 s  ClockTime = 1 s

Time = 0.028

Courant Number mean: 0.184376 max: 0.872837
DILUPBiCGStab:  Solving for Ux, Initial residual = 0.00137928, Final residual = 4.35314e-08, No Iterations 5
DILUPBiCGStab:  Solving for Uy, Initial residual = 0.00321243, Final residual = 3.22265e-08, No Iterations 5
DILUPBiCGStab:  Solving for Uz, Initial residual = 0.00511187, Final residual = 9.34405e-08, No Iterations 5
linear solve U 10013
[OGL LOG] init_preconditioner : 0 ms
[OGL LOG] solve : 21 ms
nonecudaGKOIR:  Solving for p, Initial residual = 0.00396806, Final residual = 4.83346e-07, No Iterations 3
linear solve p 22094
time step continuity errors : sum local = 3.04444e-06, global = -3.69287e-20, cumulative = -3.01709e-20
[OGL LOG] init_preconditioner : 0 ms
[OGL LOG] solve : 21 ms
nonecudaGKOIR:  Solving for p, Initial residual = 0.00329289, Final residual = 3.61743e-07, No Iterations 3
linear solve p 22299
time step continuity errors : sum local = 3.04584e-06, global = 4.99667e-20, cumulative = 1.97958e-20
ExecutionTime = 1.47 s  ClockTime = 1 s

Time = 0.032

Courant Number mean: 0.185344 max: 0.873502
DILUPBiCGStab:  Solving for Ux, Initial residual = 0.00107783, Final residual = 2.89984e-08, No Iterations 5
DILUPBiCGStab:  Solving for Uy, Initial residual = 0.0025485, Final residual = 2.92117e-08, No Iterations 5
DILUPBiCGStab:  Solving for Uz, Initial residual = 0.00394603, Final residual = 8.12016e-08, No Iterations 5
linear solve U 9860
[OGL LOG] init_preconditioner : 0 ms
[OGL LOG] solve : 21 ms
nonecudaGKOIR:  Solving for p, Initial residual = 0.0030355, Final residual = 3.45666e-07, No Iterations 3
linear solve p 22535
time step continuity errors : sum local = 3.04486e-06, global = 6.87519e-20, cumulative = 8.85477e-20
[OGL LOG] init_preconditioner : 0 ms
[OGL LOG] solve : 21 ms
nonecudaGKOIR:  Solving for p, Initial residual = 0.00256182, Final residual = 2.83868e-07, No Iterations 3
linear solve p 21690
time step continuity errors : sum local = 3.0458e-06, global = 4.22904e-20, cumulative = 1.30838e-19
ExecutionTime = 1.53 s  ClockTime = 1 s

Time = 0.036

Courant Number mean: 0.186107 max: 0.874008
DILUPBiCGStab:  Solving for Ux, Initial residual = 0.000848573, Final residual = 2.26661e-08, No Iterations 5
DILUPBiCGStab:  Solving for Uy, Initial residual = 0.00202252, Final residual = 1.52568e-08, No Iterations 5
DILUPBiCGStab:  Solving for Uz, Initial residual = 0.00304067, Final residual = 5.6811e-08, No Iterations 5
linear solve U 9936
[OGL LOG] init_preconditioner : 0 ms
[OGL LOG] solve : 21 ms
nonecudaGKOIR:  Solving for p, Initial residual = 0.00227487, Final residual = 2.99281e-07, No Iterations 3
linear solve p 21948
time step continuity errors : sum local = 3.04503e-06, global = -5.18344e-20, cumulative = 7.90037e-20
[OGL LOG] init_preconditioner : 0 ms
[OGL LOG] solve : 21 ms
nonecudaGKOIR:  Solving for p, Initial residual = 0.00193436, Final residual = 2.04649e-07, No Iterations 3
linear solve p 21907
time step continuity errors : sum local = 3.04574e-06, global = -3.53372e-21, cumulative = 7.547e-20
ExecutionTime = 1.59 s  ClockTime = 1 s

Time = 0.04

Courant Number mean: 0.186709 max: 0.874399
DILUPBiCGStab:  Solving for Ux, Initial residual = 0.000670137, Final residual = 1.65637e-08, No Iterations 5
DILUPBiCGStab:  Solving for Uy, Initial residual = 0.00160978, Final residual = 1.26129e-08, No Iterations 5
DILUPBiCGStab:  Solving for Uz, Initial residual = 0.0023593, Final residual = 4.63137e-08, No Iterations 5
linear solve U 10549
[OGL LOG] init_preconditioner : 0 ms
[OGL LOG] solve : 22 ms
nonecudaGKOIR:  Solving for p, Initial residual = 0.00178908, Final residual = 2.22321e-07, No Iterations 3
linear solve p 23052
time step continuity errors : sum local = 3.04525e-06, global = -5.25921e-20, cumulative = 2.28779e-20
[OGL LOG] init_preconditioner : 0 ms
[OGL LOG] solve : 21 ms
nonecudaGKOIR:  Solving for p, Initial residual = 0.00152996, Final residual = 1.6933e-07, No Iterations 3
linear solve p 22045
time step continuity errors : sum local = 3.04573e-06, global = -3.65101e-20, cumulative = -1.36322e-20
ExecutionTime = 1.66 s  ClockTime = 1 s

End

