/*---------------------------------------------------------------------------*\
  =========                 |
  \\      /  F ield         | OpenFOAM: The Open Source CFD Toolbox
   \\    /   O peration     | Website:  https://openfoam.org
    \\  /    A nd           | Version:  8
     \\/     M anipulation  |
\*---------------------------------------------------------------------------*/
Build  : 8-ef60d22ea792
Exec   : icoFoam
Date   : Sep 15 2021
Time   : 14:12:03
Host   : "uc2n482.localdomain"
PID    : 3642231
I/O    : uncollated
Case   : /pfs/data5/home/kit/scc/nq7776/data/code/OBR/lidDrivenCavity3D/Variation_init/100/Variation_mesh/100/Variation_matrix_solver/CG_BJ_CUDA/Variation_maxBlockSize/16/1631707883
nProcs : 1
sigFpe : Enabling floating point exception trapping (FOAM_SIGFPE).
fileModificationChecking : Monitoring run-time modified files using timeStampMaster (fileModificationSkew 10)
allowSystemOperations : Allowing user-supplied system call operations

// * * * * * * * * * * * * * * * * * * * * * * * * * * * * * * * * * * * * * //
Create time

Create mesh for time = 0

Reading transportProperties

Reading field p

Reading field U

Reading/calculating face flux field phi


Starting time loop

Time = 0.001

Courant Number mean: 0.171005 max: 0.964718
DILUPBiCGStab:  Solving for Ux, Initial residual = 0.00221104, Final residual = 2.10455e-05, No Iterations 5
DILUPBiCGStab:  Solving for Uy, Initial residual = 0.00671465, Final residual = 5.53885e-05, No Iterations 5
DILUPBiCGStab:  Solving for Uz, Initial residual = 0.0303966, Final residual = 0.000635532, No Iterations 5
linear solve U 1158044
[OGL LOG] init_host_sparsity_pattern : 303 ms
[OGL LOG] matrix not stored update host matrix
[OGL LOG] update_host_mtx : 164 ms
[OGL LOG] matrix is not yet sorted, compute sorting idxs
[OGL LOG] compute_sort : 9579 ms
[OGL LOG] matrix is not yet sorted, sorting host matrix
[OGL LOG] sort_host_mtx_sparsity_pattern : 211 ms
[OGL LOG] sort_host_mtx : 153 ms
[OGL LOG] init_preconditioner : 110 ms
[OGL LOG] solve : 941 ms
BJcudaGKOCG:  Solving for p, Initial residual = 0.148074, Final residual = 9.93183e-07, No Iterations 683
linear solve p 12319548
time step continuity errors : sum local = 3.17361e-10, global = 3.93635e-21, cumulative = 3.93635e-21
[OGL LOG] init_preconditioner : 0 ms
[OGL LOG] solve : 921 ms
BJcudaGKOCG:  Solving for p, Initial residual = 0.126694, Final residual = 9.68121e-07, No Iterations 682
linear solve p 953695
time step continuity errors : sum local = 3.09886e-10, global = -1.25024e-20, cumulative = -8.566e-21
ExecutionTime = 20.22 s  ClockTime = 20 s

Time = 0.002

Courant Number mean: 0.172431 max: 0.965079
DILUPBiCGStab:  Solving for Ux, Initial residual = 0.00200108, Final residual = 1.87328e-05, No Iterations 5
DILUPBiCGStab:  Solving for Uy, Initial residual = 0.00604332, Final residual = 4.75883e-05, No Iterations 5
DILUPBiCGStab:  Solving for Uz, Initial residual = 0.0264606, Final residual = 0.000565299, No Iterations 5
linear solve U 1104061
[OGL LOG] init_preconditioner : 0 ms
[OGL LOG] solve : 916 ms
BJcudaGKOCG:  Solving for p, Initial residual = 0.132747, Final residual = 9.6939e-07, No Iterations 679
linear solve p 954278
time step continuity errors : sum local = 4.05268e-08, global = -7.80343e-21, cumulative = -1.63694e-20
[OGL LOG] init_preconditioner : 0 ms
[OGL LOG] solve : 916 ms
BJcudaGKOCG:  Solving for p, Initial residual = 0.113614, Final residual = 9.86496e-07, No Iterations 677
linear solve p 949223
time step continuity errors : sum local = 4.06004e-08, global = -7.23208e-22, cumulative = -1.70926e-20
ExecutionTime = 23.85 s  ClockTime = 24 s

Time = 0.003

Courant Number mean: 0.173747 max: 0.965402
DILUPBiCGStab:  Solving for Ux, Initial residual = 0.00178539, Final residual = 1.36893e-05, No Iterations 5
DILUPBiCGStab:  Solving for Uy, Initial residual = 0.00542562, Final residual = 3.58979e-05, No Iterations 5
DILUPBiCGStab:  Solving for Uz, Initial residual = 0.0226265, Final residual = 0.000473491, No Iterations 5
linear solve U 1094194
[OGL LOG] init_preconditioner : 0 ms
[OGL LOG] solve : 916 ms
BJcudaGKOCG:  Solving for p, Initial residual = 0.115648, Final residual = 9.65722e-07, No Iterations 679
linear solve p 948723
time step continuity errors : sum local = 4.06545e-08, global = -2.27739e-20, cumulative = -3.98666e-20
[OGL LOG] init_preconditioner : 0 ms
[OGL LOG] solve : 922 ms
BJcudaGKOCG:  Solving for p, Initial residual = 0.0996548, Final residual = 9.50474e-07, No Iterations 678
linear solve p 957367
time step continuity errors : sum local = 4.06021e-08, global = -7.7167e-21, cumulative = -4.75833e-20
ExecutionTime = 27.47 s  ClockTime = 28 s

Time = 0.004

Courant Number mean: 0.174968 max: 0.965699
DILUPBiCGStab:  Solving for Ux, Initial residual = 0.00162106, Final residual = 1.17383e-05, No Iterations 5
DILUPBiCGStab:  Solving for Uy, Initial residual = 0.00491229, Final residual = 2.98286e-05, No Iterations 5
DILUPBiCGStab:  Solving for Uz, Initial residual = 0.0199444, Final residual = 0.000417692, No Iterations 5
linear solve U 1083106
[OGL LOG] init_preconditioner : 0 ms
[OGL LOG] solve : 910 ms
BJcudaGKOCG:  Solving for p, Initial residual = 0.102854, Final residual = 9.61543e-07, No Iterations 671
linear solve p 945313
time step continuity errors : sum local = 4.05675e-08, global = 3.60765e-21, cumulative = -4.39756e-20
[OGL LOG] init_preconditioner : 0 ms
[OGL LOG] solve : 927 ms
BJcudaGKOCG:  Solving for p, Initial residual = 0.0887984, Final residual = 9.90321e-07, No Iterations 667
linear solve p 960255
time step continuity errors : sum local = 4.06015e-08, global = -1.16987e-20, cumulative = -5.56743e-20
ExecutionTime = 31.07 s  ClockTime = 31 s

Time = 0.005

Courant Number mean: 0.176093 max: 0.965959
DILUPBiCGStab:  Solving for Ux, Initial residual = 0.00147176, Final residual = 1.01481e-05, No Iterations 5
DILUPBiCGStab:  Solving for Uy, Initial residual = 0.00446502, Final residual = 2.56131e-05, No Iterations 5
DILUPBiCGStab:  Solving for Uz, Initial residual = 0.0171701, Final residual = 0.000346308, No Iterations 5
linear solve U 1095689
[OGL LOG] init_preconditioner : 0 ms
[OGL LOG] solve : 965 ms
BJcudaGKOCG:  Solving for p, Initial residual = 0.0910045, Final residual = 9.75273e-07, No Iterations 674
linear solve p 999572
time step continuity errors : sum local = 4.06308e-08, global = -6.86819e-21, cumulative = -6.25425e-20
[OGL LOG] init_preconditioner : 0 ms
[OGL LOG] solve : 963 ms
BJcudaGKOCG:  Solving for p, Initial residual = 0.0783621, Final residual = 9.93321e-07, No Iterations 671
linear solve p 996006
time step continuity errors : sum local = 4.06078e-08, global = 1.19341e-20, cumulative = -5.06083e-20
ExecutionTime = 34.76 s  ClockTime = 35 s

Time = 0.006

Courant Number mean: 0.177137 max: 0.966208
DILUPBiCGStab:  Solving for Ux, Initial residual = 0.00134469, Final residual = 8.76471e-06, No Iterations 5
DILUPBiCGStab:  Solving for Uy, Initial residual = 0.00407362, Final residual = 2.14998e-05, No Iterations 5
DILUPBiCGStab:  Solving for Uz, Initial residual = 0.0152815, Final residual = 0.000303073, No Iterations 5
linear solve U 1098960
[OGL LOG] init_preconditioner : 0 ms
[OGL LOG] solve : 946 ms
BJcudaGKOCG:  Solving for p, Initial residual = 0.080754, Final residual = 9.99053e-07, No Iterations 661
linear solve p 978943
time step continuity errors : sum local = 4.05834e-08, global = 2.30668e-20, cumulative = -2.75415e-20
[OGL LOG] init_preconditioner : 0 ms
[OGL LOG] solve : 945 ms
BJcudaGKOCG:  Solving for p, Initial residual = 0.0696004, Final residual = 9.55783e-07, No Iterations 660
linear solve p 979464
time step continuity errors : sum local = 4.05878e-08, global = 1.95792e-20, cumulative = -7.96234e-21
ExecutionTime = 38.43 s  ClockTime = 39 s

Time = 0.007

Courant Number mean: 0.178102 max: 0.966418
DILUPBiCGStab:  Solving for Ux, Initial residual = 0.0012264, Final residual = 7.64846e-06, No Iterations 5
DILUPBiCGStab:  Solving for Uy, Initial residual = 0.00371956, Final residual = 1.89633e-05, No Iterations 5
DILUPBiCGStab:  Solving for Uz, Initial residual = 0.0132331, Final residual = 0.000248054, No Iterations 5
linear solve U 1081126
[OGL LOG] init_preconditioner : 0 ms
[OGL LOG] solve : 952 ms
BJcudaGKOCG:  Solving for p, Initial residual = 0.0717595, Final residual = 9.9381e-07, No Iterations 663
linear solve p 983813
time step continuity errors : sum local = 4.06201e-08, global = 9.28969e-21, cumulative = 1.32735e-21
[OGL LOG] init_preconditioner : 0 ms
[OGL LOG] solve : 948 ms
BJcudaGKOCG:  Solving for p, Initial residual = 0.0617189, Final residual = 9.97312e-07, No Iterations 660
linear solve p 980882
time step continuity errors : sum local = 4.06036e-08, global = 5.2908e-21, cumulative = 6.61815e-21
ExecutionTime = 42.07 s  ClockTime = 42 s

Time = 0.008

Courant Number mean: 0.179 max: 0.966628
DILUPBiCGStab:  Solving for Ux, Initial residual = 0.00112589, Final residual = 6.62582e-06, No Iterations 5
DILUPBiCGStab:  Solving for Uy, Initial residual = 0.0034133, Final residual = 1.6071e-05, No Iterations 5
DILUPBiCGStab:  Solving for Uz, Initial residual = 0.0118635, Final residual = 0.000215865, No Iterations 5
linear solve U 1080852
[OGL LOG] init_preconditioner : 0 ms
[OGL LOG] solve : 943 ms
BJcudaGKOCG:  Solving for p, Initial residual = 0.0635236, Final residual = 9.31185e-07, No Iterations 658
linear solve p 975385
time step continuity errors : sum local = 4.05668e-08, global = -6.12454e-21, cumulative = 4.93611e-22
[OGL LOG] init_preconditioner : 0 ms
[OGL LOG] solve : 944 ms
BJcudaGKOCG:  Solving for p, Initial residual = 0.0546621, Final residual = 9.24516e-07, No Iterations 657
linear solve p 977236
time step continuity errors : sum local = 4.05756e-08, global = -3.60616e-21, cumulative = -3.11255e-21
ExecutionTime = 45.71 s  ClockTime = 46 s

Time = 0.009

Courant Number mean: 0.17983 max: 0.966798
DILUPBiCGStab:  Solving for Ux, Initial residual = 0.00103087, Final residual = 5.80572e-06, No Iterations 5
DILUPBiCGStab:  Solving for Uy, Initial residual = 0.00312802, Final residual = 1.44158e-05, No Iterations 5
DILUPBiCGStab:  Solving for Uz, Initial residual = 0.0103343, Final residual = 0.000173937, No Iterations 5
linear solve U 1091130
[OGL LOG] init_preconditioner : 0 ms
[OGL LOG] solve : 933 ms
BJcudaGKOCG:  Solving for p, Initial residual = 0.0566849, Final residual = 9.49001e-07, No Iterations 657
linear solve p 965755
time step continuity errors : sum local = 4.05966e-08, global = 1.35147e-20, cumulative = 1.04021e-20
[OGL LOG] init_preconditioner : 0 ms
[OGL LOG] solve : 947 ms
BJcudaGKOCG:  Solving for p, Initial residual = 0.0487028, Final residual = 9.8523e-07, No Iterations 655
linear solve p 991079
time step continuity errors : sum local = 4.05956e-08, global = -7.14905e-21, cumulative = 3.2531e-21
ExecutionTime = 49.37 s  ClockTime = 50 s

Time = 0.01

Courant Number mean: 0.180604 max: 0.966976
DILUPBiCGStab:  Solving for Ux, Initial residual = 0.000950164, Final residual = 5.04517e-06, No Iterations 5
DILUPBiCGStab:  Solving for Uy, Initial residual = 0.00288484, Final residual = 1.23334e-05, No Iterations 5
DILUPBiCGStab:  Solving for Uz, Initial residual = 0.00931958, Final residual = 0.000151129, No Iterations 5
linear solve U 1075589
[OGL LOG] init_preconditioner : 0 ms
[OGL LOG] solve : 935 ms
BJcudaGKOCG:  Solving for p, Initial residual = 0.0500835, Final residual = 9.66855e-07, No Iterations 655
linear solve p 967802
time step continuity errors : sum local = 4.0579e-08, global = 1.13387e-20, cumulative = 1.45918e-20
[OGL LOG] init_preconditioner : 0 ms
[OGL LOG] solve : 935 ms
BJcudaGKOCG:  Solving for p, Initial residual = 0.0430398, Final residual = 9.44913e-07, No Iterations 654
linear solve p 967222
time step continuity errors : sum local = 4.05807e-08, global = -2.15335e-20, cumulative = -6.94176e-21
ExecutionTime = 52.98 s  ClockTime = 53 s

End

