/*---------------------------------------------------------------------------*\
  =========                 |
  \\      /  F ield         | OpenFOAM: The Open Source CFD Toolbox
   \\    /   O peration     | Website:  https://openfoam.org
    \\  /    A nd           | Version:  8
     \\/     M anipulation  |
\*---------------------------------------------------------------------------*/
Build  : 8-ef60d22ea792
Exec   : icoFoam
Date   : Sep 15 2021
Time   : 14:59:49
Host   : "uc2n482.localdomain"
PID    : 3657911
I/O    : uncollated
Case   : /pfs/data5/home/kit/scc/nq7776/data/code/OBR/lidDrivenCavity3D/Variation_init/100/Variation_mesh/50/Variation_matrix_solver/CG_BJ_CUDA/Variation_maxBlockSize/8/1631710783
nProcs : 1
sigFpe : Enabling floating point exception trapping (FOAM_SIGFPE).
fileModificationChecking : Monitoring run-time modified files using timeStampMaster (fileModificationSkew 10)
allowSystemOperations : Allowing user-supplied system call operations

// * * * * * * * * * * * * * * * * * * * * * * * * * * * * * * * * * * * * * //
Create time

Create mesh for time = 0

Reading transportProperties

Reading field p

Reading field U

Reading/calculating face flux field phi


Starting time loop

Time = 0.002

Courant Number mean: 0.171832 max: 0.950949
DILUPBiCGStab:  Solving for Ux, Initial residual = 0.170437, Final residual = 6.82397e-05, No Iterations 5
DILUPBiCGStab:  Solving for Uy, Initial residual = 0.34992, Final residual = 0.000142663, No Iterations 5
DILUPBiCGStab:  Solving for Uz, Initial residual = 0.557699, Final residual = 0.000189983, No Iterations 5
linear solve U 115391
[OGL LOG] init_host_sparsity_pattern : 36 ms
[OGL LOG] matrix not stored update host matrix
[OGL LOG] update_host_mtx : 20 ms
[OGL LOG] matrix is not yet sorted, compute sorting idxs
[OGL LOG] compute_sort : 1047 ms
[OGL LOG] matrix is not yet sorted, sorting host matrix
[OGL LOG] sort_host_mtx_sparsity_pattern : 24 ms
[OGL LOG] sort_host_mtx : 13 ms
[OGL LOG] init_preconditioner : 13 ms
[OGL LOG] solve : 63 ms
BJcudaGKOCG:  Solving for p, Initial residual = 0.678275, Final residual = 9.59175e-07, No Iterations 371
linear solve p 1980215
time step continuity errors : sum local = 2.88133e-09, global = 3.76169e-20, cumulative = 3.76169e-20
[OGL LOG] init_preconditioner : 0 ms
[OGL LOG] solve : 64 ms
BJcudaGKOCG:  Solving for p, Initial residual = 0.41358, Final residual = 9.23701e-07, No Iterations 381
linear solve p 68261
time step continuity errors : sum local = 1.42022e-09, global = 2.80842e-20, cumulative = 6.5701e-20
ExecutionTime = 2.79 s  ClockTime = 3 s

Time = 0.004

Courant Number mean: 0.174856 max: 0.932415
DILUPBiCGStab:  Solving for Ux, Initial residual = 0.0115943, Final residual = 2.67526e-05, No Iterations 5
DILUPBiCGStab:  Solving for Uy, Initial residual = 0.0268869, Final residual = 4.9244e-05, No Iterations 5
DILUPBiCGStab:  Solving for Uz, Initial residual = 0.112848, Final residual = 0.000158136, No Iterations 5
linear solve U 104186
[OGL LOG] init_preconditioner : 0 ms
[OGL LOG] solve : 67 ms
BJcudaGKOCG:  Solving for p, Initial residual = 0.327331, Final residual = 9.84326e-07, No Iterations 396
linear solve p 70926
time step continuity errors : sum local = 7.21982e-07, global = 1.55384e-20, cumulative = 8.12394e-20
[OGL LOG] init_preconditioner : 0 ms
[OGL LOG] solve : 66 ms
BJcudaGKOCG:  Solving for p, Initial residual = 0.243048, Final residual = 9.94234e-07, No Iterations 394
linear solve p 70429
time step continuity errors : sum local = 6.31265e-07, global = 2.1036e-20, cumulative = 1.02275e-19
ExecutionTime = 3.11 s  ClockTime = 3 s

Time = 0.006

Courant Number mean: 0.176822 max: 0.934846
DILUPBiCGStab:  Solving for Ux, Initial residual = 0.00529441, Final residual = 9.8498e-06, No Iterations 5
DILUPBiCGStab:  Solving for Uy, Initial residual = 0.0102196, Final residual = 2.29777e-05, No Iterations 5
DILUPBiCGStab:  Solving for Uz, Initial residual = 0.0485258, Final residual = 7.73752e-05, No Iterations 5
linear solve U 109991
[OGL LOG] init_preconditioner : 0 ms
[OGL LOG] solve : 65 ms
BJcudaGKOCG:  Solving for p, Initial residual = 0.174439, Final residual = 8.90336e-07, No Iterations 375
linear solve p 69353
time step continuity errors : sum local = 6.72905e-07, global = -2.74803e-20, cumulative = 7.47951e-20
[OGL LOG] init_preconditioner : 0 ms
[OGL LOG] solve : 62 ms
BJcudaGKOCG:  Solving for p, Initial residual = 0.133081, Final residual = 9.58326e-07, No Iterations 373
linear solve p 66523
time step continuity errors : sum local = 6.30583e-07, global = 2.11897e-20, cumulative = 9.59848e-20
ExecutionTime = 3.42 s  ClockTime = 4 s

Time = 0.008

Courant Number mean: 0.178238 max: 0.933359
DILUPBiCGStab:  Solving for Ux, Initial residual = 0.00289606, Final residual = 5.56898e-06, No Iterations 5
DILUPBiCGStab:  Solving for Uy, Initial residual = 0.00786353, Final residual = 1.00811e-05, No Iterations 5
DILUPBiCGStab:  Solving for Uz, Initial residual = 0.0260297, Final residual = 3.95499e-05, No Iterations 5
linear solve U 107573
[OGL LOG] init_preconditioner : 0 ms
[OGL LOG] solve : 61 ms
BJcudaGKOCG:  Solving for p, Initial residual = 0.105329, Final residual = 9.99759e-07, No Iterations 356
linear solve p 65347
time step continuity errors : sum local = 6.21096e-07, global = 8.68912e-21, cumulative = 1.04674e-19
[OGL LOG] init_preconditioner : 0 ms
[OGL LOG] solve : 61 ms
BJcudaGKOCG:  Solving for p, Initial residual = 0.0812437, Final residual = 9.76014e-07, No Iterations 354
linear solve p 64714
time step continuity errors : sum local = 6.30401e-07, global = -3.22285e-20, cumulative = 7.24454e-20
ExecutionTime = 3.73 s  ClockTime = 4 s

Time = 0.01

Courant Number mean: 0.179753 max: 0.9341
DILUPBiCGStab:  Solving for Ux, Initial residual = 0.00227171, Final residual = 4.01277e-06, No Iterations 5
DILUPBiCGStab:  Solving for Uy, Initial residual = 0.00526714, Final residual = 5.88506e-06, No Iterations 5
DILUPBiCGStab:  Solving for Uz, Initial residual = 0.0148985, Final residual = 2.07695e-05, No Iterations 5
linear solve U 114164
[OGL LOG] init_preconditioner : 0 ms
[OGL LOG] solve : 57 ms
BJcudaGKOCG:  Solving for p, Initial residual = 0.0676228, Final residual = 9.97898e-07, No Iterations 333
linear solve p 61627
time step continuity errors : sum local = 6.34933e-07, global = -3.48419e-20, cumulative = 3.76035e-20
[OGL LOG] init_preconditioner : 0 ms
[OGL LOG] solve : 57 ms
BJcudaGKOCG:  Solving for p, Initial residual = 0.0517187, Final residual = 9.42437e-07, No Iterations 332
linear solve p 60915
time step continuity errors : sum local = 6.30499e-07, global = -4.06287e-20, cumulative = -3.02519e-21
ExecutionTime = 4.04 s  ClockTime = 4 s

Time = 0.012

Courant Number mean: 0.181051 max: 0.934596
DILUPBiCGStab:  Solving for Ux, Initial residual = 0.0017552, Final residual = 1.90477e-06, No Iterations 5
DILUPBiCGStab:  Solving for Uy, Initial residual = 0.00453415, Final residual = 4.02195e-06, No Iterations 5
DILUPBiCGStab:  Solving for Uz, Initial residual = 0.0114962, Final residual = 1.25778e-05, No Iterations 5
linear solve U 108009
[OGL LOG] init_preconditioner : 0 ms
[OGL LOG] solve : 55 ms
BJcudaGKOCG:  Solving for p, Initial residual = 0.0446787, Final residual = 9.10129e-07, No Iterations 321
linear solve p 59220
time step continuity errors : sum local = 6.28793e-07, global = -4.38346e-20, cumulative = -4.68598e-20
[OGL LOG] init_preconditioner : 0 ms
[OGL LOG] solve : 55 ms
BJcudaGKOCG:  Solving for p, Initial residual = 0.034375, Final residual = 9.96202e-07, No Iterations 319
linear solve p 58712
time step continuity errors : sum local = 6.30428e-07, global = -1.86046e-20, cumulative = -6.54644e-20
ExecutionTime = 4.33 s  ClockTime = 5 s

Time = 0.014

Courant Number mean: 0.182225 max: 0.93496
DILUPBiCGStab:  Solving for Ux, Initial residual = 0.00149061, Final residual = 9.87689e-07, No Iterations 5
DILUPBiCGStab:  Solving for Uy, Initial residual = 0.00373596, Final residual = 1.79925e-06, No Iterations 5
DILUPBiCGStab:  Solving for Uz, Initial residual = 0.00819519, Final residual = 8.40352e-06, No Iterations 5
linear solve U 106625
[OGL LOG] init_preconditioner : 0 ms
[OGL LOG] solve : 54 ms
BJcudaGKOCG:  Solving for p, Initial residual = 0.0303482, Final residual = 9.83397e-07, No Iterations 316
linear solve p 58548
time step continuity errors : sum local = 6.30664e-07, global = -2.43062e-20, cumulative = -8.97706e-20
[OGL LOG] init_preconditioner : 0 ms
[OGL LOG] solve : 54 ms
BJcudaGKOCG:  Solving for p, Initial residual = 0.0232673, Final residual = 9.42869e-07, No Iterations 315
linear solve p 58566
time step continuity errors : sum local = 6.3043e-07, global = 4.68422e-21, cumulative = -8.50864e-20
ExecutionTime = 4.62 s  ClockTime = 5 s

Time = 0.016

Courant Number mean: 0.183255 max: 0.935382
DILUPBiCGStab:  Solving for Ux, Initial residual = 0.00125113, Final residual = 4.13777e-07, No Iterations 5
DILUPBiCGStab:  Solving for Uy, Initial residual = 0.00326805, Final residual = 1.01026e-06, No Iterations 5
DILUPBiCGStab:  Solving for Uz, Initial residual = 0.00684761, Final residual = 6.24856e-06, No Iterations 5
linear solve U 105826
[OGL LOG] init_preconditioner : 0 ms
[OGL LOG] solve : 53 ms
BJcudaGKOCG:  Solving for p, Initial residual = 0.0207016, Final residual = 9.10861e-07, No Iterations 313
linear solve p 56931
time step continuity errors : sum local = 6.29963e-07, global = -3.54985e-21, cumulative = -8.86362e-20
[OGL LOG] init_preconditioner : 0 ms
[OGL LOG] solve : 53 ms
BJcudaGKOCG:  Solving for p, Initial residual = 0.0160337, Final residual = 9.04063e-07, No Iterations 312
linear solve p 56738
time step continuity errors : sum local = 6.30395e-07, global = 3.02492e-20, cumulative = -5.8387e-20
ExecutionTime = 4.91 s  ClockTime = 5 s

Time = 0.018

Courant Number mean: 0.184168 max: 0.935681
DILUPBiCGStab:  Solving for Ux, Initial residual = 0.0010807, Final residual = 3.28377e-07, No Iterations 5
DILUPBiCGStab:  Solving for Uy, Initial residual = 0.00281176, Final residual = 1.01241e-06, No Iterations 5
DILUPBiCGStab:  Solving for Uz, Initial residual = 0.00553658, Final residual = 4.59517e-06, No Iterations 5
linear solve U 104650
[OGL LOG] init_preconditioner : 0 ms
[OGL LOG] solve : 49 ms
BJcudaGKOCG:  Solving for p, Initial residual = 0.0144618, Final residual = 9.92151e-07, No Iterations 292
linear solve p 53279
time step continuity errors : sum local = 6.30196e-07, global = 4.31662e-20, cumulative = -1.52208e-20
[OGL LOG] init_preconditioner : 0 ms
[OGL LOG] solve : 49 ms
BJcudaGKOCG:  Solving for p, Initial residual = 0.0112116, Final residual = 9.8369e-07, No Iterations 291
linear solve p 53697
time step continuity errors : sum local = 6.30417e-07, global = 5.92547e-20, cumulative = 4.40338e-20
ExecutionTime = 5.18 s  ClockTime = 6 s

Time = 0.02

Courant Number mean: 0.184973 max: 0.935986
DILUPBiCGStab:  Solving for Ux, Initial residual = 0.000928396, Final residual = 1.85321e-07, No Iterations 5
DILUPBiCGStab:  Solving for Uy, Initial residual = 0.00248414, Final residual = 5.62324e-07, No Iterations 5
DILUPBiCGStab:  Solving for Uz, Initial residual = 0.00474014, Final residual = 3.34142e-06, No Iterations 5
linear solve U 108429
[OGL LOG] init_preconditioner : 0 ms
[OGL LOG] solve : 50 ms
BJcudaGKOCG:  Solving for p, Initial residual = 0.0101783, Final residual = 9.20327e-07, No Iterations 295
linear solve p 54710
time step continuity errors : sum local = 6.30149e-07, global = -1.00288e-20, cumulative = 3.4005e-20
[OGL LOG] init_preconditioner : 0 ms
[OGL LOG] solve : 50 ms
BJcudaGKOCG:  Solving for p, Initial residual = 0.00803463, Final residual = 9.99383e-07, No Iterations 293
linear solve p 53888
time step continuity errors : sum local = 6.30423e-07, global = -3.35241e-20, cumulative = 4.80918e-22
ExecutionTime = 5.47 s  ClockTime = 6 s

End

