/*---------------------------------------------------------------------------*\
  =========                 |
  \\      /  F ield         | OpenFOAM: The Open Source CFD Toolbox
   \\    /   O peration     | Website:  https://openfoam.org
    \\  /    A nd           | Version:  8
     \\/     M anipulation  |
\*---------------------------------------------------------------------------*/
Build  : 8-ef60d22ea792
Exec   : icoFoam
Date   : Sep 15 2021
Time   : 13:07:42
Host   : "uc2n482.localdomain"
PID    : 3626254
I/O    : uncollated
Case   : /pfs/data5/home/kit/scc/nq7776/data/code/OBR/lidDrivenCavity3D/Variation_init/100/Variation_mesh/5/Variation_matrix_solver/IR_NoPrecond_CUDA/Variation_innerReductionFactor/0.05/1631704060
nProcs : 1
sigFpe : Enabling floating point exception trapping (FOAM_SIGFPE).
fileModificationChecking : Monitoring run-time modified files using timeStampMaster (fileModificationSkew 10)
allowSystemOperations : Allowing user-supplied system call operations

// * * * * * * * * * * * * * * * * * * * * * * * * * * * * * * * * * * * * * //
Create time

Create mesh for time = 0

Reading transportProperties

Reading field p

Reading field U

Reading/calculating face flux field phi


Starting time loop

Time = 0.02

Courant Number mean: 0.144178 max: 0.344046
DILUPBiCGStab:  Solving for Ux, Initial residual = 0.270102, Final residual = 1.39043e-14, No Iterations 5
DILUPBiCGStab:  Solving for Uy, Initial residual = 0.217087, Final residual = 1.19184e-13, No Iterations 5
DILUPBiCGStab:  Solving for Uz, Initial residual = 0.216079, Final residual = 2.72531e-14, No Iterations 5
linear solve U 198
[OGL LOG] init_host_sparsity_pattern : 0 ms
[OGL LOG] matrix not stored update host matrix
[OGL LOG] update_host_mtx : 0 ms
[OGL LOG] matrix is not yet sorted, compute sorting idxs
[OGL LOG] compute_sort : 0 ms
[OGL LOG] matrix is not yet sorted, sorting host matrix
[OGL LOG] sort_host_mtx_sparsity_pattern : 0 ms
[OGL LOG] sort_host_mtx : 0 ms
[OGL LOG] init_preconditioner : 0 ms
[OGL LOG] solve : 9 ms
nonecudaGKOIR:  Solving for p, Initial residual = 0.599316, Final residual = 8.5511e-08, No Iterations 5
linear solve p 747323
time step continuity errors : sum local = 9.91413e-09, global = -4.00091e-19, cumulative = -4.00091e-19
[OGL LOG] init_preconditioner : 0 ms
[OGL LOG] solve : 10 ms
nonecudaGKOIR:  Solving for p, Initial residual = 0.288319, Final residual = 3.13613e-08, No Iterations 5
linear solve p 10266
time step continuity errors : sum local = 1.36925e-09, global = -7.45654e-19, cumulative = -1.14574e-18
ExecutionTime = 0.8 s  ClockTime = 0 s

Time = 0.04

Courant Number mean: 0.143461 max: 0.370002
DILUPBiCGStab:  Solving for Ux, Initial residual = 0.0735166, Final residual = 6.10753e-14, No Iterations 5
DILUPBiCGStab:  Solving for Uy, Initial residual = 0.0725789, Final residual = 1.59981e-13, No Iterations 5
DILUPBiCGStab:  Solving for Uz, Initial residual = 0.174731, Final residual = 2.4838e-13, No Iterations 5
linear solve U 119
[OGL LOG] init_preconditioner : 0 ms
[OGL LOG] solve : 8 ms
nonecudaGKOIR:  Solving for p, Initial residual = 0.212157, Final residual = 4.87005e-07, No Iterations 4
linear solve p 8798
time step continuity errors : sum local = 0.000264124, global = -5.28337e-19, cumulative = -1.67408e-18
[OGL LOG] init_preconditioner : 0 ms
[OGL LOG] solve : 7 ms
nonecudaGKOIR:  Solving for p, Initial residual = 0.0746227, Final residual = 1.28391e-07, No Iterations 4
linear solve p 7939
time step continuity errors : sum local = 0.000237017, global = -5.26219e-19, cumulative = -2.2003e-18
ExecutionTime = 0.81 s  ClockTime = 0 s

Time = 0.06

Courant Number mean: 0.145501 max: 0.37555
DILUPBiCGStab:  Solving for Ux, Initial residual = 0.0154115, Final residual = 1.4945e-15, No Iterations 5
DILUPBiCGStab:  Solving for Uy, Initial residual = 0.0201049, Final residual = 2.28396e-14, No Iterations 5
DILUPBiCGStab:  Solving for Uz, Initial residual = 0.0978127, Final residual = 1.16435e-13, No Iterations 5
linear solve U 99
[OGL LOG] init_preconditioner : 0 ms
[OGL LOG] solve : 5 ms
nonecudaGKOIR:  Solving for p, Initial residual = 0.0170458, Final residual = 4.38368e-07, No Iterations 3
linear solve p 5685
time step continuity errors : sum local = 0.000237523, global = -7.49624e-19, cumulative = -2.94992e-18
[OGL LOG] init_preconditioner : 0 ms
[OGL LOG] solve : 5 ms
nonecudaGKOIR:  Solving for p, Initial residual = 0.0036503, Final residual = 1.93976e-07, No Iterations 3
linear solve p 5921
time step continuity errors : sum local = 0.000237431, global = -5.29396e-19, cumulative = -3.47932e-18
ExecutionTime = 0.82 s  ClockTime = 0 s

Time = 0.08

Courant Number mean: 0.147029 max: 0.378253
DILUPBiCGStab:  Solving for Ux, Initial residual = 0.00478798, Final residual = 3.38618e-15, No Iterations 5
DILUPBiCGStab:  Solving for Uy, Initial residual = 0.00642995, Final residual = 1.20399e-14, No Iterations 5
DILUPBiCGStab:  Solving for Uz, Initial residual = 0.0284314, Final residual = 4.44299e-14, No Iterations 5
linear solve U 98
[OGL LOG] init_preconditioner : 0 ms
[OGL LOG] solve : 5 ms
nonecudaGKOIR:  Solving for p, Initial residual = 0.00482335, Final residual = 2.79887e-07, No Iterations 3
linear solve p 5751
time step continuity errors : sum local = 0.00023796, global = 1.36478e-18, cumulative = -2.11454e-18
[OGL LOG] init_preconditioner : 0 ms
[OGL LOG] solve : 5 ms
nonecudaGKOIR:  Solving for p, Initial residual = 0.00114492, Final residual = 8.93676e-08, No Iterations 3
linear solve p 5922
time step continuity errors : sum local = 0.000237673, global = -8.47033e-20, cumulative = -2.19924e-18
ExecutionTime = 0.83 s  ClockTime = 0 s

Time = 0.1

Courant Number mean: 0.14778 max: 0.379477
DILUPBiCGStab:  Solving for Ux, Initial residual = 0.00171227, Final residual = 8.30663e-16, No Iterations 5
DILUPBiCGStab:  Solving for Uy, Initial residual = 0.00257347, Final residual = 2.28107e-15, No Iterations 5
DILUPBiCGStab:  Solving for Uz, Initial residual = 0.0107953, Final residual = 1.44783e-14, No Iterations 5
linear solve U 92
[OGL LOG] init_preconditioner : 0 ms
[OGL LOG] solve : 5 ms
nonecudaGKOIR:  Solving for p, Initial residual = 0.00160393, Final residual = 1.34006e-07, No Iterations 3
linear solve p 5824
time step continuity errors : sum local = 0.000237721, global = -7.0092e-19, cumulative = -2.90016e-18
[OGL LOG] init_preconditioner : 0 ms
[OGL LOG] solve : 4 ms
nonecudaGKOIR:  Solving for p, Initial residual = 0.000367527, Final residual = 3.64181e-07, No Iterations 2
linear solve p 4489
time step continuity errors : sum local = 0.000237672, global = 2.75286e-20, cumulative = -2.87263e-18
ExecutionTime = 0.84 s  ClockTime = 0 s

Time = 0.12

Courant Number mean: 0.148155 max: 0.380093
DILUPBiCGStab:  Solving for Ux, Initial residual = 0.000689997, Final residual = 3.07027e-16, No Iterations 5
DILUPBiCGStab:  Solving for Uy, Initial residual = 0.00109054, Final residual = 3.92744e-16, No Iterations 5
DILUPBiCGStab:  Solving for Uz, Initial residual = 0.00414452, Final residual = 5.00041e-15, No Iterations 5
linear solve U 93
[OGL LOG] init_preconditioner : 0 ms
[OGL LOG] solve : 5 ms
nonecudaGKOIR:  Solving for p, Initial residual = 0.00067955, Final residual = 5.06221e-08, No Iterations 3
linear solve p 5741
time step continuity errors : sum local = 0.00023767, global = -9.44442e-19, cumulative = -3.81707e-18
[OGL LOG] init_preconditioner : 0 ms
[OGL LOG] solve : 4 ms
nonecudaGKOIR:  Solving for p, Initial residual = 0.000161296, Final residual = 3.37733e-07, No Iterations 2
linear solve p 4453
time step continuity errors : sum local = 0.000237656, global = -8.38563e-19, cumulative = -4.65564e-18
ExecutionTime = 0.86 s  ClockTime = 0 s

Time = 0.14

Courant Number mean: 0.148339 max: 0.380409
DILUPBiCGStab:  Solving for Ux, Initial residual = 0.000300351, Final residual = 1.45265e-16, No Iterations 5
DILUPBiCGStab:  Solving for Uy, Initial residual = 0.000488833, Final residual = 2.05708e-16, No Iterations 5
DILUPBiCGStab:  Solving for Uz, Initial residual = 0.00167053, Final residual = 1.77705e-15, No Iterations 5
linear solve U 92
[OGL LOG] init_preconditioner : 0 ms
[OGL LOG] solve : 4 ms
nonecudaGKOIR:  Solving for p, Initial residual = 0.000315606, Final residual = 3.70973e-07, No Iterations 2
linear solve p 4437
time step continuity errors : sum local = 0.000237649, global = 1.16467e-19, cumulative = -4.53917e-18
[OGL LOG] init_preconditioner : 0 ms
[OGL LOG] solve : 4 ms
nonecudaGKOIR:  Solving for p, Initial residual = 7.18723e-05, Final residual = 1.27693e-07, No Iterations 2
linear solve p 4405
time step continuity errors : sum local = 0.000237646, global = 1.3129e-18, cumulative = -3.22627e-18
ExecutionTime = 0.87 s  ClockTime = 0 s

Time = 0.16

Courant Number mean: 0.148428 max: 0.380568
DILUPBiCGStab:  Solving for Ux, Initial residual = 0.000135437, Final residual = 6.74452e-17, No Iterations 5
DILUPBiCGStab:  Solving for Uy, Initial residual = 0.000228969, Final residual = 1.43722e-16, No Iterations 5
DILUPBiCGStab:  Solving for Uz, Initial residual = 0.000705446, Final residual = 6.05767e-16, No Iterations 5
linear solve U 93
[OGL LOG] init_preconditioner : 0 ms
[OGL LOG] solve : 4 ms
nonecudaGKOIR:  Solving for p, Initial residual = 0.000149592, Final residual = 3.06772e-07, No Iterations 2
linear solve p 4378
time step continuity errors : sum local = 0.000237642, global = 4.2034e-19, cumulative = -2.80593e-18
[OGL LOG] init_preconditioner : 0 ms
[OGL LOG] solve : 4 ms
nonecudaGKOIR:  Solving for p, Initial residual = 3.37946e-05, Final residual = 4.78891e-08, No Iterations 2
linear solve p 4350
time step continuity errors : sum local = 0.000237641, global = 7.41154e-19, cumulative = -2.06478e-18
ExecutionTime = 0.88 s  ClockTime = 0 s

Time = 0.18

Courant Number mean: 0.148472 max: 0.380648
DILUPBiCGStab:  Solving for Ux, Initial residual = 6.19371e-05, Final residual = 2.98727e-17, No Iterations 5
DILUPBiCGStab:  Solving for Uy, Initial residual = 0.000108778, Final residual = 7.7039e-17, No Iterations 5
DILUPBiCGStab:  Solving for Uz, Initial residual = 0.00031324, Final residual = 1.89699e-16, No Iterations 5
linear solve U 91
[OGL LOG] init_preconditioner : 0 ms
[OGL LOG] solve : 4 ms
nonecudaGKOIR:  Solving for p, Initial residual = 7.09188e-05, Final residual = 6.51301e-08, No Iterations 2
linear solve p 4584
time step continuity errors : sum local = 0.000237637, global = -8.81973e-19, cumulative = -2.94675e-18
[OGL LOG] init_preconditioner : 0 ms
[OGL LOG] solve : 1 ms
nonecudaGKOIR:  Solving for p, Initial residual = 1.58032e-05, Final residual = 6.1915e-07, No Iterations 1
linear solve p 1800
time step continuity errors : sum local = 0.000237643, global = -1.24302e-18, cumulative = -4.18977e-18
ExecutionTime = 0.88 s  ClockTime = 0 s

Time = 0.2

Courant Number mean: 0.148493 max: 0.380688
DILUPBiCGStab:  Solving for Ux, Initial residual = 2.86662e-05, Final residual = 1.23486e-17, No Iterations 5
DILUPBiCGStab:  Solving for Uy, Initial residual = 5.15706e-05, Final residual = 3.69639e-17, No Iterations 5
DILUPBiCGStab:  Solving for Uz, Initial residual = 0.000145096, Final residual = 5.93367e-17, No Iterations 5
linear solve U 92
[OGL LOG] init_preconditioner : 0 ms
[OGL LOG] solve : 1 ms
nonecudaGKOIR:  Solving for p, Initial residual = 3.36331e-05, Final residual = 9.35611e-07, No Iterations 1
linear solve p 1561
time step continuity errors : sum local = 0.000237643, global = 1.54584e-18, cumulative = -2.64393e-18
[OGL LOG] init_preconditioner : 0 ms
[OGL LOG] solve : 1 ms
nonecudaGKOIR:  Solving for p, Initial residual = 7.46137e-06, Final residual = 2.68807e-07, No Iterations 1
linear solve p 1626
time step continuity errors : sum local = 0.000237638, global = -3.19755e-19, cumulative = -2.96369e-18
ExecutionTime = 0.89 s  ClockTime = 0 s

End

