/*---------------------------------------------------------------------------*\
  =========                 |
  \\      /  F ield         | OpenFOAM: The Open Source CFD Toolbox
   \\    /   O peration     | Website:  https://openfoam.org
    \\  /    A nd           | Version:  8
     \\/     M anipulation  |
\*---------------------------------------------------------------------------*/
Build  : 8-ef60d22ea792
Exec   : icoFoam
Date   : Sep 15 2021
Time   : 13:29:52
Host   : "uc2n482.localdomain"
PID    : 3631330
I/O    : uncollated
Case   : /pfs/data5/home/kit/scc/nq7776/data/code/OBR/lidDrivenCavity3D/Variation_init/100/Variation_mesh/75/Variation_matrix_solver/CG_NoPrecond_CUDA/1631705374
nProcs : 1
sigFpe : Enabling floating point exception trapping (FOAM_SIGFPE).
fileModificationChecking : Monitoring run-time modified files using timeStampMaster (fileModificationSkew 10)
allowSystemOperations : Allowing user-supplied system call operations

// * * * * * * * * * * * * * * * * * * * * * * * * * * * * * * * * * * * * * //
Create time

Create mesh for time = 0

Reading transportProperties

Reading field p

Reading field U

Reading/calculating face flux field phi


Starting time loop

Time = 0.00133333

Courant Number mean: 0.170873 max: 0.955248
DILUPBiCGStab:  Solving for Ux, Initial residual = 0.150945, Final residual = 8.53015e-05, No Iterations 5
DILUPBiCGStab:  Solving for Uy, Initial residual = 0.292287, Final residual = 0.000196272, No Iterations 5
DILUPBiCGStab:  Solving for Uz, Initial residual = 0.443155, Final residual = 0.000590488, No Iterations 5
linear solve U 439879
[OGL LOG] init_host_sparsity_pattern : 120 ms
[OGL LOG] matrix not stored update host matrix
[OGL LOG] update_host_mtx : 66 ms
[OGL LOG] matrix is not yet sorted, compute sorting idxs
[OGL LOG] compute_sort : 3785 ms
[OGL LOG] matrix is not yet sorted, sorting host matrix
[OGL LOG] sort_host_mtx_sparsity_pattern : 84 ms
[OGL LOG] sort_host_mtx : 53 ms
[OGL LOG] init_preconditioner : 0 ms
[OGL LOG] solve : 391 ms
nonecudaGKOCG:  Solving for p, Initial residual = 0.621595, Final residual = 9.59084e-07, No Iterations 616
linear solve p 5285481
time step continuity errors : sum local = 1.16763e-09, global = 2.0841e-20, cumulative = 2.0841e-20
[OGL LOG] init_preconditioner : 0 ms
[OGL LOG] solve : 380 ms
nonecudaGKOCG:  Solving for p, Initial residual = 0.292224, Final residual = 9.39563e-07, No Iterations 619
linear solve p 393111
time step continuity errors : sum local = 6.53649e-10, global = -2.62512e-20, cumulative = -5.41027e-21
ExecutionTime = 8.29 s  ClockTime = 8 s

Time = 0.00266667

Courant Number mean: 0.172833 max: 0.953296
DILUPBiCGStab:  Solving for Ux, Initial residual = 0.00633141, Final residual = 3.0255e-05, No Iterations 5
DILUPBiCGStab:  Solving for Uy, Initial residual = 0.015214, Final residual = 6.99149e-05, No Iterations 5
DILUPBiCGStab:  Solving for Uz, Initial residual = 0.076168, Final residual = 0.000480834, No Iterations 5
linear solve U 418131
[OGL LOG] init_preconditioner : 0 ms
[OGL LOG] solve : 390 ms
nonecudaGKOCG:  Solving for p, Initial residual = 0.306073, Final residual = 9.98026e-07, No Iterations 621
linear solve p 403584
time step continuity errors : sum local = 1.64119e-07, global = -1.96902e-20, cumulative = -2.51005e-20
[OGL LOG] init_preconditioner : 0 ms
[OGL LOG] solve : 391 ms
nonecudaGKOCG:  Solving for p, Initial residual = 0.226014, Final residual = 9.88884e-07, No Iterations 619
linear solve p 404005
time step continuity errors : sum local = 1.58404e-07, global = -1.8179e-20, cumulative = -4.32795e-20
ExecutionTime = 9.77 s  ClockTime = 9 s

Time = 0.004

Courant Number mean: 0.174523 max: 0.954278
DILUPBiCGStab:  Solving for Ux, Initial residual = 0.00265329, Final residual = 1.63441e-05, No Iterations 5
DILUPBiCGStab:  Solving for Uy, Initial residual = 0.00797253, Final residual = 4.00533e-05, No Iterations 5
DILUPBiCGStab:  Solving for Uz, Initial residual = 0.0352939, Final residual = 0.000275922, No Iterations 5
linear solve U 400455
[OGL LOG] init_preconditioner : 0 ms
[OGL LOG] solve : 386 ms
nonecudaGKOCG:  Solving for p, Initial residual = 0.192303, Final residual = 9.58892e-07, No Iterations 612
linear solve p 399231
time step continuity errors : sum local = 1.60796e-07, global = 2.00837e-20, cumulative = -2.31958e-20
[OGL LOG] init_preconditioner : 0 ms
[OGL LOG] solve : 381 ms
nonecudaGKOCG:  Solving for p, Initial residual = 0.148949, Final residual = 9.71457e-07, No Iterations 609
linear solve p 394783
time step continuity errors : sum local = 1.5815e-07, global = -6.97865e-21, cumulative = -3.01744e-20
ExecutionTime = 11.2 s  ClockTime = 11 s

Time = 0.00533333

Courant Number mean: 0.176005 max: 0.954647
DILUPBiCGStab:  Solving for Ux, Initial residual = 0.00207788, Final residual = 1.18175e-05, No Iterations 5
DILUPBiCGStab:  Solving for Uy, Initial residual = 0.00644365, Final residual = 2.45217e-05, No Iterations 5
DILUPBiCGStab:  Solving for Uz, Initial residual = 0.0233945, Final residual = 0.000159841, No Iterations 5
linear solve U 402312
[OGL LOG] init_preconditioner : 0 ms
[OGL LOG] solve : 372 ms
nonecudaGKOCG:  Solving for p, Initial residual = 0.142974, Final residual = 9.53634e-07, No Iterations 607
linear solve p 385370
time step continuity errors : sum local = 1.573e-07, global = -2.62198e-20, cumulative = -5.63942e-20
[OGL LOG] init_preconditioner : 0 ms
[OGL LOG] solve : 372 ms
nonecudaGKOCG:  Solving for p, Initial residual = 0.114364, Final residual = 9.81431e-07, No Iterations 605
linear solve p 385900
time step continuity errors : sum local = 1.57966e-07, global = -3.47392e-21, cumulative = -5.98682e-20
ExecutionTime = 12.63 s  ClockTime = 12 s

Time = 0.00666667

Courant Number mean: 0.177347 max: 0.955032
DILUPBiCGStab:  Solving for Ux, Initial residual = 0.00176722, Final residual = 9.5957e-06, No Iterations 5
DILUPBiCGStab:  Solving for Uy, Initial residual = 0.00540512, Final residual = 1.95419e-05, No Iterations 5
DILUPBiCGStab:  Solving for Uz, Initial residual = 0.0162633, Final residual = 0.00010289, No Iterations 5
linear solve U 399676
[OGL LOG] init_preconditioner : 0 ms
[OGL LOG] solve : 376 ms
nonecudaGKOCG:  Solving for p, Initial residual = 0.108082, Final residual = 9.62447e-07, No Iterations 600
linear solve p 390052
time step continuity errors : sum local = 1.59347e-07, global = 7.40344e-21, cumulative = -5.24647e-20
[OGL LOG] init_preconditioner : 0 ms
[OGL LOG] solve : 375 ms
nonecudaGKOCG:  Solving for p, Initial residual = 0.086316, Final residual = 9.54554e-07, No Iterations 598
linear solve p 389998
time step continuity errors : sum local = 1.58143e-07, global = -3.71925e-20, cumulative = -8.96572e-20
ExecutionTime = 14.06 s  ClockTime = 14 s

Time = 0.008

Courant Number mean: 0.178568 max: 0.955457
DILUPBiCGStab:  Solving for Ux, Initial residual = 0.00153483, Final residual = 7.80236e-06, No Iterations 5
DILUPBiCGStab:  Solving for Uy, Initial residual = 0.00468744, Final residual = 1.38562e-05, No Iterations 5
DILUPBiCGStab:  Solving for Uz, Initial residual = 0.0134867, Final residual = 6.70286e-05, No Iterations 5
linear solve U 399706
[OGL LOG] init_preconditioner : 0 ms
[OGL LOG] solve : 372 ms
nonecudaGKOCG:  Solving for p, Initial residual = 0.0849203, Final residual = 9.60065e-07, No Iterations 597
linear solve p 385606
time step continuity errors : sum local = 1.57344e-07, global = 1.19241e-20, cumulative = -7.77331e-20
[OGL LOG] init_preconditioner : 0 ms
[OGL LOG] solve : 368 ms
nonecudaGKOCG:  Solving for p, Initial residual = 0.068547, Final residual = 9.4149e-07, No Iterations 596
linear solve p 381320
time step continuity errors : sum local = 1.57963e-07, global = 2.96611e-20, cumulative = -4.8072e-20
ExecutionTime = 15.47 s  ClockTime = 15 s

Time = 0.00933333

Courant Number mean: 0.17967 max: 0.955718
DILUPBiCGStab:  Solving for Ux, Initial residual = 0.00135005, Final residual = 6.54092e-06, No Iterations 5
DILUPBiCGStab:  Solving for Uy, Initial residual = 0.00411444, Final residual = 1.15749e-05, No Iterations 5
DILUPBiCGStab:  Solving for Uz, Initial residual = 0.0103841, Final residual = 4.52428e-05, No Iterations 5
linear solve U 403910
[OGL LOG] init_preconditioner : 0 ms
[OGL LOG] solve : 372 ms
nonecudaGKOCG:  Solving for p, Initial residual = 0.0672328, Final residual = 9.77512e-07, No Iterations 592
linear solve p 385059
time step continuity errors : sum local = 1.5866e-07, global = 2.1289e-20, cumulative = -2.6783e-20
[OGL LOG] init_preconditioner : 0 ms
[OGL LOG] solve : 356 ms
nonecudaGKOCG:  Solving for p, Initial residual = 0.0542779, Final residual = 9.81838e-07, No Iterations 591
linear solve p 369166
time step continuity errors : sum local = 1.58103e-07, global = 3.49512e-20, cumulative = 8.16825e-21
ExecutionTime = 16.87 s  ClockTime = 17 s

Time = 0.0106667

Courant Number mean: 0.180675 max: 0.956053
DILUPBiCGStab:  Solving for Ux, Initial residual = 0.00120421, Final residual = 5.42777e-06, No Iterations 5
DILUPBiCGStab:  Solving for Uy, Initial residual = 0.00364518, Final residual = 8.93485e-06, No Iterations 5
DILUPBiCGStab:  Solving for Uz, Initial residual = 0.00897979, Final residual = 3.40019e-05, No Iterations 5
linear solve U 403920
[OGL LOG] init_preconditioner : 0 ms
[OGL LOG] solve : 225 ms
nonecudaGKOCG:  Solving for p, Initial residual = 0.0535937, Final residual = 9.73126e-07, No Iterations 350
linear solve p 238023
time step continuity errors : sum local = 1.57629e-07, global = -3.31856e-20, cumulative = -2.50173e-20
[OGL LOG] init_preconditioner : 0 ms
[OGL LOG] solve : 228 ms
nonecudaGKOCG:  Solving for p, Initial residual = 0.0434623, Final residual = 9.81055e-07, No Iterations 350
linear solve p 241202
time step continuity errors : sum local = 1.58053e-07, global = -9.64761e-21, cumulative = -3.46649e-20
ExecutionTime = 18 s  ClockTime = 18 s

Time = 0.012

Courant Number mean: 0.181586 max: 0.956269
DILUPBiCGStab:  Solving for Ux, Initial residual = 0.00107259, Final residual = 4.24445e-06, No Iterations 5
DILUPBiCGStab:  Solving for Uy, Initial residual = 0.00324668, Final residual = 7.89838e-06, No Iterations 5
DILUPBiCGStab:  Solving for Uz, Initial residual = 0.00732459, Final residual = 2.66061e-05, No Iterations 5
linear solve U 407340
[OGL LOG] init_preconditioner : 0 ms
[OGL LOG] solve : 360 ms
nonecudaGKOCG:  Solving for p, Initial residual = 0.0432822, Final residual = 9.49323e-07, No Iterations 584
linear solve p 374001
time step continuity errors : sum local = 1.58342e-07, global = 1.63886e-20, cumulative = -1.82763e-20
[OGL LOG] init_preconditioner : 0 ms
[OGL LOG] solve : 354 ms
nonecudaGKOCG:  Solving for p, Initial residual = 0.0351257, Final residual = 9.81075e-07, No Iterations 582
linear solve p 367595
time step continuity errors : sum local = 1.58067e-07, global = -3.58348e-21, cumulative = -2.18598e-20
ExecutionTime = 19.4 s  ClockTime = 19 s

Time = 0.0133333

Courant Number mean: 0.182419 max: 0.956526
DILUPBiCGStab:  Solving for Ux, Initial residual = 0.000967498, Final residual = 3.81073e-06, No Iterations 5
DILUPBiCGStab:  Solving for Uy, Initial residual = 0.00291389, Final residual = 6.31454e-06, No Iterations 5
DILUPBiCGStab:  Solving for Uz, Initial residual = 0.00649799, Final residual = 2.03933e-05, No Iterations 5
linear solve U 402029
[OGL LOG] init_preconditioner : 0 ms
[OGL LOG] solve : 367 ms
nonecudaGKOCG:  Solving for p, Initial residual = 0.0346811, Final residual = 9.64061e-07, No Iterations 582
linear solve p 382160
time step continuity errors : sum local = 1.57734e-07, global = -4.66253e-20, cumulative = -6.84851e-20
[OGL LOG] init_preconditioner : 0 ms
[OGL LOG] solve : 354 ms
nonecudaGKOCG:  Solving for p, Initial residual = 0.0282215, Final residual = 9.81764e-07, No Iterations 580
linear solve p 367315
time step continuity errors : sum local = 1.57999e-07, global = 2.08541e-20, cumulative = -4.7631e-20
ExecutionTime = 20.81 s  ClockTime = 21 s

End

