/*---------------------------------------------------------------------------*\
  =========                 |
  \\      /  F ield         | OpenFOAM: The Open Source CFD Toolbox
   \\    /   O peration     | Website:  https://openfoam.org
    \\  /    A nd           | Version:  8
     \\/     M anipulation  |
\*---------------------------------------------------------------------------*/
Build  : 8-ef60d22ea792
Exec   : icoFoam
Date   : Sep 15 2021
Time   : 13:27:39
Host   : "uc2n482.localdomain"
PID    : 3630889
I/O    : uncollated
Case   : /pfs/data5/home/kit/scc/nq7776/data/code/OBR/lidDrivenCavity3D/Variation_init/100/Variation_mesh/75/Variation_matrix_solver/CG_BJ_CUDA/Variation_maxBlockSize/1/1631705242
nProcs : 1
sigFpe : Enabling floating point exception trapping (FOAM_SIGFPE).
fileModificationChecking : Monitoring run-time modified files using timeStampMaster (fileModificationSkew 10)
allowSystemOperations : Allowing user-supplied system call operations

// * * * * * * * * * * * * * * * * * * * * * * * * * * * * * * * * * * * * * //
Create time

Create mesh for time = 0

Reading transportProperties

Reading field p

Reading field U

Reading/calculating face flux field phi


Starting time loop

Time = 0.00133333

Courant Number mean: 0.170873 max: 0.955248
DILUPBiCGStab:  Solving for Ux, Initial residual = 0.150945, Final residual = 8.53015e-05, No Iterations 5
DILUPBiCGStab:  Solving for Uy, Initial residual = 0.292287, Final residual = 0.000196272, No Iterations 5
DILUPBiCGStab:  Solving for Uz, Initial residual = 0.443155, Final residual = 0.000590488, No Iterations 5
linear solve U 436674
[OGL LOG] init_host_sparsity_pattern : 120 ms
[OGL LOG] matrix not stored update host matrix
[OGL LOG] update_host_mtx : 66 ms
[OGL LOG] matrix is not yet sorted, compute sorting idxs
[OGL LOG] compute_sort : 3797 ms
[OGL LOG] matrix is not yet sorted, sorting host matrix
[OGL LOG] sort_host_mtx_sparsity_pattern : 87 ms
[OGL LOG] sort_host_mtx : 50 ms
[OGL LOG] init_preconditioner : 1 ms
[OGL LOG] solve : 371 ms
BJcudaGKOCG:  Solving for p, Initial residual = 0.621595, Final residual = 9.37221e-07, No Iterations 605
linear solve p 5271184
time step continuity errors : sum local = 1.141e-09, global = 3.48358e-21, cumulative = 3.48358e-21
[OGL LOG] init_preconditioner : 0 ms
[OGL LOG] solve : 372 ms
BJcudaGKOCG:  Solving for p, Initial residual = 0.292224, Final residual = 9.5897e-07, No Iterations 608
linear solve p 385270
time step continuity errors : sum local = 6.6714e-10, global = -1.80786e-20, cumulative = -1.45951e-20
ExecutionTime = 8.3 s  ClockTime = 8 s

Time = 0.00266667

Courant Number mean: 0.172833 max: 0.953296
DILUPBiCGStab:  Solving for Ux, Initial residual = 0.00633141, Final residual = 3.0255e-05, No Iterations 5
DILUPBiCGStab:  Solving for Uy, Initial residual = 0.015214, Final residual = 6.99148e-05, No Iterations 5
DILUPBiCGStab:  Solving for Uz, Initial residual = 0.0761679, Final residual = 0.00048084, No Iterations 5
linear solve U 419454
[OGL LOG] init_preconditioner : 0 ms
[OGL LOG] solve : 378 ms
BJcudaGKOCG:  Solving for p, Initial residual = 0.306073, Final residual = 9.55306e-07, No Iterations 614
linear solve p 391628
time step continuity errors : sum local = 1.64101e-07, global = -1.78908e-20, cumulative = -3.24859e-20
[OGL LOG] init_preconditioner : 0 ms
[OGL LOG] solve : 374 ms
BJcudaGKOCG:  Solving for p, Initial residual = 0.226014, Final residual = 9.63431e-07, No Iterations 612
linear solve p 386904
time step continuity errors : sum local = 1.5839e-07, global = 2.42039e-20, cumulative = -8.28195e-21
ExecutionTime = 9.74 s  ClockTime = 10 s

Time = 0.004

Courant Number mean: 0.174523 max: 0.954278
DILUPBiCGStab:  Solving for Ux, Initial residual = 0.00265329, Final residual = 1.6344e-05, No Iterations 5
DILUPBiCGStab:  Solving for Uy, Initial residual = 0.00797253, Final residual = 4.00531e-05, No Iterations 5
DILUPBiCGStab:  Solving for Uz, Initial residual = 0.0352947, Final residual = 0.000275941, No Iterations 5
linear solve U 401169
[OGL LOG] init_preconditioner : 0 ms
[OGL LOG] solve : 370 ms
BJcudaGKOCG:  Solving for p, Initial residual = 0.192303, Final residual = 9.86091e-07, No Iterations 602
linear solve p 383207
time step continuity errors : sum local = 1.60805e-07, global = -1.77535e-20, cumulative = -2.60354e-20
[OGL LOG] init_preconditioner : 0 ms
[OGL LOG] solve : 369 ms
BJcudaGKOCG:  Solving for p, Initial residual = 0.148948, Final residual = 9.53509e-07, No Iterations 600
linear solve p 382853
time step continuity errors : sum local = 1.5815e-07, global = -1.14226e-20, cumulative = -3.74581e-20
ExecutionTime = 11.15 s  ClockTime = 11 s

Time = 0.00533333

Courant Number mean: 0.176005 max: 0.954647
DILUPBiCGStab:  Solving for Ux, Initial residual = 0.00207787, Final residual = 1.18175e-05, No Iterations 5
DILUPBiCGStab:  Solving for Uy, Initial residual = 0.00644363, Final residual = 2.45218e-05, No Iterations 5
DILUPBiCGStab:  Solving for Uz, Initial residual = 0.0233936, Final residual = 0.000159845, No Iterations 5
linear solve U 398923
[OGL LOG] init_preconditioner : 0 ms
[OGL LOG] solve : 361 ms
BJcudaGKOCG:  Solving for p, Initial residual = 0.142973, Final residual = 9.79109e-07, No Iterations 588
linear solve p 374037
time step continuity errors : sum local = 1.57314e-07, global = -2.48399e-20, cumulative = -6.22979e-20
[OGL LOG] init_preconditioner : 0 ms
[OGL LOG] solve : 375 ms
BJcudaGKOCG:  Solving for p, Initial residual = 0.114364, Final residual = 9.83719e-07, No Iterations 594
linear solve p 388869
time step continuity errors : sum local = 1.57975e-07, global = -2.83136e-20, cumulative = -9.06116e-20
ExecutionTime = 12.56 s  ClockTime = 13 s

Time = 0.00666667

Courant Number mean: 0.177347 max: 0.955032
DILUPBiCGStab:  Solving for Ux, Initial residual = 0.00176722, Final residual = 9.5957e-06, No Iterations 5
DILUPBiCGStab:  Solving for Uy, Initial residual = 0.00540511, Final residual = 1.95419e-05, No Iterations 5
DILUPBiCGStab:  Solving for Uz, Initial residual = 0.0162624, Final residual = 0.000102894, No Iterations 5
linear solve U 399376
[OGL LOG] init_preconditioner : 0 ms
[OGL LOG] solve : 363 ms
BJcudaGKOCG:  Solving for p, Initial residual = 0.108081, Final residual = 9.47789e-07, No Iterations 592
linear solve p 376724
time step continuity errors : sum local = 1.59345e-07, global = -1.17592e-20, cumulative = -1.02371e-19
[OGL LOG] init_preconditioner : 0 ms
[OGL LOG] solve : 364 ms
BJcudaGKOCG:  Solving for p, Initial residual = 0.0863154, Final residual = 9.45328e-07, No Iterations 590
linear solve p 379143
time step continuity errors : sum local = 1.58143e-07, global = 1.84315e-20, cumulative = -8.39393e-20
ExecutionTime = 13.97 s  ClockTime = 14 s

Time = 0.008

Courant Number mean: 0.178568 max: 0.955457
DILUPBiCGStab:  Solving for Ux, Initial residual = 0.00153482, Final residual = 7.80235e-06, No Iterations 5
DILUPBiCGStab:  Solving for Uy, Initial residual = 0.00468742, Final residual = 1.38562e-05, No Iterations 5
DILUPBiCGStab:  Solving for Uz, Initial residual = 0.0134872, Final residual = 6.70316e-05, No Iterations 5
linear solve U 399105
[OGL LOG] init_preconditioner : 0 ms
[OGL LOG] solve : 362 ms
BJcudaGKOCG:  Solving for p, Initial residual = 0.0849197, Final residual = 9.55367e-07, No Iterations 588
linear solve p 375697
time step continuity errors : sum local = 1.57353e-07, global = 1.41365e-21, cumulative = -8.25256e-20
[OGL LOG] init_preconditioner : 0 ms
[OGL LOG] solve : 360 ms
BJcudaGKOCG:  Solving for p, Initial residual = 0.0685465, Final residual = 9.63025e-07, No Iterations 586
linear solve p 373838
time step continuity errors : sum local = 1.57971e-07, global = -1.94902e-20, cumulative = -1.02016e-19
ExecutionTime = 15.37 s  ClockTime = 16 s

Time = 0.00933333

Courant Number mean: 0.17967 max: 0.955718
DILUPBiCGStab:  Solving for Ux, Initial residual = 0.00135004, Final residual = 6.54085e-06, No Iterations 5
DILUPBiCGStab:  Solving for Uy, Initial residual = 0.00411443, Final residual = 1.1575e-05, No Iterations 5
DILUPBiCGStab:  Solving for Uz, Initial residual = 0.0103839, Final residual = 4.52419e-05, No Iterations 5
linear solve U 396900
[OGL LOG] init_preconditioner : 0 ms
[OGL LOG] solve : 357 ms
BJcudaGKOCG:  Solving for p, Initial residual = 0.0672324, Final residual = 9.98213e-07, No Iterations 583
linear solve p 370646
time step continuity errors : sum local = 1.58677e-07, global = -3.06928e-20, cumulative = -1.32709e-19
[OGL LOG] init_preconditioner : 0 ms
[OGL LOG] solve : 360 ms
BJcudaGKOCG:  Solving for p, Initial residual = 0.0542777, Final residual = 9.23963e-07, No Iterations 582
linear solve p 373136
time step continuity errors : sum local = 1.58091e-07, global = 5.19849e-21, cumulative = -1.2751e-19
ExecutionTime = 16.75 s  ClockTime = 17 s

Time = 0.0106667

Courant Number mean: 0.180675 max: 0.956053
DILUPBiCGStab:  Solving for Ux, Initial residual = 0.00120421, Final residual = 5.42765e-06, No Iterations 5
DILUPBiCGStab:  Solving for Uy, Initial residual = 0.00364518, Final residual = 8.93476e-06, No Iterations 5
DILUPBiCGStab:  Solving for Uz, Initial residual = 0.00897999, Final residual = 3.40032e-05, No Iterations 5
linear solve U 406684
[OGL LOG] init_preconditioner : 0 ms
[OGL LOG] solve : 213 ms
BJcudaGKOCG:  Solving for p, Initial residual = 0.0535928, Final residual = 9.68935e-07, No Iterations 344
linear solve p 226532
time step continuity errors : sum local = 1.5762e-07, global = 4.24585e-22, cumulative = -1.27085e-19
[OGL LOG] init_preconditioner : 0 ms
[OGL LOG] solve : 212 ms
BJcudaGKOCG:  Solving for p, Initial residual = 0.0434615, Final residual = 9.81153e-07, No Iterations 344
linear solve p 225734
time step continuity errors : sum local = 1.58049e-07, global = -1.40981e-20, cumulative = -1.41184e-19
ExecutionTime = 17.84 s  ClockTime = 18 s

Time = 0.012

Courant Number mean: 0.181586 max: 0.956269
DILUPBiCGStab:  Solving for Ux, Initial residual = 0.00107259, Final residual = 4.2446e-06, No Iterations 5
DILUPBiCGStab:  Solving for Uy, Initial residual = 0.00324669, Final residual = 7.89853e-06, No Iterations 5
DILUPBiCGStab:  Solving for Uz, Initial residual = 0.00732392, Final residual = 2.66021e-05, No Iterations 5
linear solve U 396265
[OGL LOG] init_preconditioner : 0 ms
[OGL LOG] solve : 354 ms
BJcudaGKOCG:  Solving for p, Initial residual = 0.0432815, Final residual = 9.39923e-07, No Iterations 575
linear solve p 367981
time step continuity errors : sum local = 1.58348e-07, global = 2.38492e-20, cumulative = -1.17334e-19
[OGL LOG] init_preconditioner : 0 ms
[OGL LOG] solve : 358 ms
BJcudaGKOCG:  Solving for p, Initial residual = 0.0351251, Final residual = 9.85209e-07, No Iterations 573
linear solve p 371594
time step continuity errors : sum local = 1.58068e-07, global = 5.54845e-21, cumulative = -1.11786e-19
ExecutionTime = 19.23 s  ClockTime = 19 s

Time = 0.0133333

Courant Number mean: 0.182419 max: 0.956526
DILUPBiCGStab:  Solving for Ux, Initial residual = 0.000967494, Final residual = 3.81049e-06, No Iterations 5
DILUPBiCGStab:  Solving for Uy, Initial residual = 0.00291387, Final residual = 6.31442e-06, No Iterations 5
DILUPBiCGStab:  Solving for Uz, Initial residual = 0.00649863, Final residual = 2.03942e-05, No Iterations 5
linear solve U 399024
[OGL LOG] init_preconditioner : 0 ms
[OGL LOG] solve : 352 ms
BJcudaGKOCG:  Solving for p, Initial residual = 0.0346806, Final residual = 9.91436e-07, No Iterations 572
linear solve p 365496
time step continuity errors : sum local = 1.57749e-07, global = 3.91077e-20, cumulative = -7.26782e-20
[OGL LOG] init_preconditioner : 0 ms
[OGL LOG] solve : 367 ms
BJcudaGKOCG:  Solving for p, Initial residual = 0.0282211, Final residual = 9.53171e-07, No Iterations 571
linear solve p 380712
time step continuity errors : sum local = 1.57995e-07, global = 1.43743e-20, cumulative = -5.83039e-20
ExecutionTime = 20.63 s  ClockTime = 21 s

End

