/*---------------------------------------------------------------------------*\
  =========                 |
  \\      /  F ield         | OpenFOAM: The Open Source CFD Toolbox
   \\    /   O peration     | Website:  https://openfoam.org
    \\  /    A nd           | Version:  8
     \\/     M anipulation  |
\*---------------------------------------------------------------------------*/
Build  : 8-ef60d22ea792
Exec   : icoFoam
Date   : Sep 15 2021
Time   : 13:35:50
Host   : "uc2n482.localdomain"
PID    : 3633495
I/O    : uncollated
Case   : /pfs/data5/home/kit/scc/nq7776/data/code/OBR/lidDrivenCavity3D/Variation_init/100/Variation_mesh/25/Variation_matrix_solver/CG_BJ_CUDA/Variation_maxBlockSize/16/1631705748
nProcs : 1
sigFpe : Enabling floating point exception trapping (FOAM_SIGFPE).
fileModificationChecking : Monitoring run-time modified files using timeStampMaster (fileModificationSkew 10)
allowSystemOperations : Allowing user-supplied system call operations

// * * * * * * * * * * * * * * * * * * * * * * * * * * * * * * * * * * * * * //
Create time

Create mesh for time = 0

Reading transportProperties

Reading field p

Reading field U

Reading/calculating face flux field phi


Starting time loop

Time = 0.004

Courant Number mean: 0.169656 max: 0.889609
DILUPBiCGStab:  Solving for Ux, Initial residual = 0.143151, Final residual = 1.76454e-06, No Iterations 5
DILUPBiCGStab:  Solving for Uy, Initial residual = 0.204592, Final residual = 1.77082e-06, No Iterations 5
DILUPBiCGStab:  Solving for Uz, Initial residual = 0.476047, Final residual = 3.97645e-06, No Iterations 5
linear solve U 11701
[OGL LOG] init_host_sparsity_pattern : 4 ms
[OGL LOG] matrix not stored update host matrix
[OGL LOG] update_host_mtx : 2 ms
[OGL LOG] matrix is not yet sorted, compute sorting idxs
[OGL LOG] compute_sort : 109 ms
[OGL LOG] matrix is not yet sorted, sorting host matrix
[OGL LOG] sort_host_mtx_sparsity_pattern : 2 ms
[OGL LOG] sort_host_mtx : 1 ms
[OGL LOG] init_preconditioner : 2 ms
[OGL LOG] solve : 26 ms
BJcudaGKOCG:  Solving for p, Initial residual = 0.578841, Final residual = 9.13564e-07, No Iterations 186
linear solve p 892898
time step continuity errors : sum local = 6.46023e-09, global = -1.10632e-19, cumulative = -1.10632e-19
[OGL LOG] init_preconditioner : 0 ms
[OGL LOG] solve : 25 ms
BJcudaGKOCG:  Solving for p, Initial residual = 0.27554, Final residual = 8.85052e-07, No Iterations 186
linear solve p 25663
time step continuity errors : sum local = 3.88101e-09, global = -1.27015e-20, cumulative = -1.23334e-19
ExecutionTime = 1.03 s  ClockTime = 1 s

Time = 0.008

Courant Number mean: 0.173868 max: 0.868145
DILUPBiCGStab:  Solving for Ux, Initial residual = 0.0151888, Final residual = 1.22595e-06, No Iterations 5
DILUPBiCGStab:  Solving for Uy, Initial residual = 0.0247675, Final residual = 1.80845e-06, No Iterations 5
DILUPBiCGStab:  Solving for Uz, Initial residual = 0.0887898, Final residual = 3.82995e-06, No Iterations 5
linear solve U 9724
[OGL LOG] init_preconditioner : 0 ms
[OGL LOG] solve : 24 ms
BJcudaGKOCG:  Solving for p, Initial residual = 0.17531, Final residual = 9.19382e-07, No Iterations 182
linear solve p 24774
time step continuity errors : sum local = 3.2848e-06, global = -4.94604e-20, cumulative = -1.72794e-19
[OGL LOG] init_preconditioner : 0 ms
[OGL LOG] solve : 24 ms
BJcudaGKOCG:  Solving for p, Initial residual = 0.103193, Final residual = 8.92921e-07, No Iterations 180
linear solve p 24474
time step continuity errors : sum local = 3.05917e-06, global = -1.11641e-19, cumulative = -2.84435e-19
ExecutionTime = 1.1 s  ClockTime = 2 s

Time = 0.012

Courant Number mean: 0.177048 max: 0.867817
DILUPBiCGStab:  Solving for Ux, Initial residual = 0.00469193, Final residual = 2.96385e-07, No Iterations 5
DILUPBiCGStab:  Solving for Uy, Initial residual = 0.00998769, Final residual = 4.81038e-07, No Iterations 5
DILUPBiCGStab:  Solving for Uz, Initial residual = 0.0313803, Final residual = 1.53395e-06, No Iterations 5
linear solve U 10016
[OGL LOG] init_preconditioner : 0 ms
[OGL LOG] solve : 22 ms
BJcudaGKOCG:  Solving for p, Initial residual = 0.049194, Final residual = 9.84078e-07, No Iterations 162
linear solve p 22497
time step continuity errors : sum local = 3.01843e-06, global = -4.30465e-20, cumulative = -3.27482e-19
[OGL LOG] init_preconditioner : 0 ms
[OGL LOG] solve : 21 ms
BJcudaGKOCG:  Solving for p, Initial residual = 0.0326512, Final residual = 9.44466e-07, No Iterations 160
linear solve p 22045
time step continuity errors : sum local = 3.04442e-06, global = -1.38763e-19, cumulative = -4.66245e-19
ExecutionTime = 1.16 s  ClockTime = 2 s

Time = 0.016

Courant Number mean: 0.179565 max: 0.869322
DILUPBiCGStab:  Solving for Ux, Initial residual = 0.00314076, Final residual = 1.45472e-07, No Iterations 5
DILUPBiCGStab:  Solving for Uy, Initial residual = 0.00681959, Final residual = 2.61083e-07, No Iterations 5
DILUPBiCGStab:  Solving for Uz, Initial residual = 0.0130985, Final residual = 5.59831e-07, No Iterations 5
linear solve U 9595
[OGL LOG] init_preconditioner : 0 ms
[OGL LOG] solve : 21 ms
BJcudaGKOCG:  Solving for p, Initial residual = 0.019424, Final residual = 9.04976e-07, No Iterations 162
linear solve p 22451
time step continuity errors : sum local = 3.04922e-06, global = 1.49113e-19, cumulative = -3.17132e-19
[OGL LOG] init_preconditioner : 0 ms
[OGL LOG] solve : 22 ms
BJcudaGKOCG:  Solving for p, Initial residual = 0.014034, Final residual = 9.14379e-07, No Iterations 161
linear solve p 22478
time step continuity errors : sum local = 3.04691e-06, global = -9.4115e-20, cumulative = -4.11247e-19
ExecutionTime = 1.21 s  ClockTime = 2 s

Time = 0.02

Courant Number mean: 0.181574 max: 0.870815
DILUPBiCGStab:  Solving for Ux, Initial residual = 0.00232736, Final residual = 9.81722e-08, No Iterations 5
DILUPBiCGStab:  Solving for Uy, Initial residual = 0.00517731, Final residual = 1.34687e-07, No Iterations 5
DILUPBiCGStab:  Solving for Uz, Initial residual = 0.0091046, Final residual = 2.65838e-07, No Iterations 5
linear solve U 9684
[OGL LOG] init_preconditioner : 0 ms
[OGL LOG] solve : 20 ms
BJcudaGKOCG:  Solving for p, Initial residual = 0.0100108, Final residual = 9.59821e-07, No Iterations 154
linear solve p 21358
time step continuity errors : sum local = 3.04284e-06, global = -6.59213e-20, cumulative = -4.77169e-19
[OGL LOG] init_preconditioner : 0 ms
[OGL LOG] solve : 21 ms
BJcudaGKOCG:  Solving for p, Initial residual = 0.00751295, Final residual = 9.21368e-07, No Iterations 153
linear solve p 21669
time step continuity errors : sum local = 3.04619e-06, global = -4.01911e-20, cumulative = -5.1736e-19
ExecutionTime = 1.28 s  ClockTime = 2 s

Time = 0.024

Courant Number mean: 0.183143 max: 0.871972
DILUPBiCGStab:  Solving for Ux, Initial residual = 0.00177564, Final residual = 5.93678e-08, No Iterations 5
DILUPBiCGStab:  Solving for Uy, Initial residual = 0.00408236, Final residual = 1.08524e-07, No Iterations 5
DILUPBiCGStab:  Solving for Uz, Initial residual = 0.00674725, Final residual = 1.93091e-07, No Iterations 5
linear solve U 9673
[OGL LOG] init_preconditioner : 0 ms
[OGL LOG] solve : 24 ms
BJcudaGKOCG:  Solving for p, Initial residual = 0.00619511, Final residual = 9.68766e-07, No Iterations 151
linear solve p 24949
time step continuity errors : sum local = 3.04478e-06, global = 1.43018e-19, cumulative = -3.74342e-19
[OGL LOG] init_preconditioner : 0 ms
[OGL LOG] solve : 20 ms
BJcudaGKOCG:  Solving for p, Initial residual = 0.00497283, Final residual = 9.2857e-07, No Iterations 149
linear solve p 20983
time step continuity errors : sum local = 3.04639e-06, global = -2.53485e-19, cumulative = -6.27826e-19
ExecutionTime = 1.34 s  ClockTime = 2 s

Time = 0.028

Courant Number mean: 0.184376 max: 0.872837
DILUPBiCGStab:  Solving for Ux, Initial residual = 0.00137929, Final residual = 4.35459e-08, No Iterations 5
DILUPBiCGStab:  Solving for Uy, Initial residual = 0.00321243, Final residual = 3.22452e-08, No Iterations 5
DILUPBiCGStab:  Solving for Uz, Initial residual = 0.00511155, Final residual = 9.31738e-08, No Iterations 5
linear solve U 10042
[OGL LOG] init_preconditioner : 0 ms
[OGL LOG] solve : 19 ms
BJcudaGKOCG:  Solving for p, Initial residual = 0.00396806, Final residual = 9.20803e-07, No Iterations 143
linear solve p 20404
time step continuity errors : sum local = 3.04478e-06, global = 6.79909e-20, cumulative = -5.59835e-19
[OGL LOG] init_preconditioner : 0 ms
[OGL LOG] solve : 19 ms
BJcudaGKOCG:  Solving for p, Initial residual = 0.00329297, Final residual = 9.79803e-07, No Iterations 141
linear solve p 20216
time step continuity errors : sum local = 3.04634e-06, global = -5.3148e-20, cumulative = -6.12983e-19
ExecutionTime = 1.4 s  ClockTime = 2 s

Time = 0.032

Courant Number mean: 0.185344 max: 0.873502
DILUPBiCGStab:  Solving for Ux, Initial residual = 0.00107783, Final residual = 2.90412e-08, No Iterations 5
DILUPBiCGStab:  Solving for Uy, Initial residual = 0.00254852, Final residual = 2.92031e-08, No Iterations 5
DILUPBiCGStab:  Solving for Uz, Initial residual = 0.00394602, Final residual = 8.10488e-08, No Iterations 5
linear solve U 9804
[OGL LOG] init_preconditioner : 0 ms
[OGL LOG] solve : 19 ms
BJcudaGKOCG:  Solving for p, Initial residual = 0.00303526, Final residual = 8.86584e-07, No Iterations 141
linear solve p 19614
time step continuity errors : sum local = 3.0451e-06, global = 1.20644e-19, cumulative = -4.92339e-19
[OGL LOG] init_preconditioner : 0 ms
[OGL LOG] solve : 18 ms
BJcudaGKOCG:  Solving for p, Initial residual = 0.00256164, Final residual = 9.96322e-07, No Iterations 138
linear solve p 19104
time step continuity errors : sum local = 3.04628e-06, global = -9.9571e-20, cumulative = -5.9191e-19
ExecutionTime = 1.45 s  ClockTime = 2 s

Time = 0.036

Courant Number mean: 0.186107 max: 0.874008
DILUPBiCGStab:  Solving for Ux, Initial residual = 0.000848593, Final residual = 2.27003e-08, No Iterations 5
DILUPBiCGStab:  Solving for Uy, Initial residual = 0.0020225, Final residual = 1.52537e-08, No Iterations 5
DILUPBiCGStab:  Solving for Uz, Initial residual = 0.00304095, Final residual = 5.67429e-08, No Iterations 5
linear solve U 9630
[OGL LOG] init_preconditioner : 0 ms
[OGL LOG] solve : 19 ms
BJcudaGKOCG:  Solving for p, Initial residual = 0.00227438, Final residual = 9.83486e-07, No Iterations 137
linear solve p 19674
time step continuity errors : sum local = 3.04551e-06, global = 3.25926e-20, cumulative = -5.59317e-19
[OGL LOG] init_preconditioner : 0 ms
[OGL LOG] solve : 18 ms
BJcudaGKOCG:  Solving for p, Initial residual = 0.00193408, Final residual = 9.90803e-07, No Iterations 134
linear solve p 19442
time step continuity errors : sum local = 3.04629e-06, global = -1.27368e-19, cumulative = -6.86685e-19
ExecutionTime = 1.51 s  ClockTime = 2 s

Time = 0.04

Courant Number mean: 0.186709 max: 0.874399
DILUPBiCGStab:  Solving for Ux, Initial residual = 0.000670143, Final residual = 1.66224e-08, No Iterations 5
DILUPBiCGStab:  Solving for Uy, Initial residual = 0.00160981, Final residual = 1.26022e-08, No Iterations 5
DILUPBiCGStab:  Solving for Uz, Initial residual = 0.00236043, Final residual = 4.62553e-08, No Iterations 5
linear solve U 9820
[OGL LOG] init_preconditioner : 0 ms
[OGL LOG] solve : 17 ms
BJcudaGKOCG:  Solving for p, Initial residual = 0.00178951, Final residual = 9.71059e-07, No Iterations 130
linear solve p 18016
time step continuity errors : sum local = 3.04569e-06, global = 8.30638e-20, cumulative = -6.03621e-19
[OGL LOG] init_preconditioner : 0 ms
[OGL LOG] solve : 17 ms
BJcudaGKOCG:  Solving for p, Initial residual = 0.00153018, Final residual = 9.96678e-07, No Iterations 128
linear solve p 17774
time step continuity errors : sum local = 3.04634e-06, global = -1.21784e-19, cumulative = -7.25405e-19
ExecutionTime = 1.56 s  ClockTime = 2 s

End

