/*---------------------------------------------------------------------------*\
  =========                 |
  \\      /  F ield         | OpenFOAM: The Open Source CFD Toolbox
   \\    /   O peration     | Website:  https://openfoam.org
    \\  /    A nd           | Version:  8
     \\/     M anipulation  |
\*---------------------------------------------------------------------------*/
Build  : 8-ef60d22ea792
Exec   : icoFoam
Date   : Sep 15 2021
Time   : 13:27:32
Host   : "uc2n438.localdomain"
PID    : 3542101
I/O    : uncollated
Case   : /pfs/data5/home/kit/scc/nq7776/data/code/OBR/lidDrivenCavity3D/Variation_init/100/Variation_mesh/25/Variation_matrix_solver/CG_DIC_Serial/1631705252
nProcs : 1
sigFpe : Enabling floating point exception trapping (FOAM_SIGFPE).
fileModificationChecking : Monitoring run-time modified files using timeStampMaster (fileModificationSkew 10)
allowSystemOperations : Allowing user-supplied system call operations

// * * * * * * * * * * * * * * * * * * * * * * * * * * * * * * * * * * * * * //
Create time

Create mesh for time = 0

Reading transportProperties

Reading field p

Reading field U

Reading/calculating face flux field phi


Starting time loop

Time = 0.004

Courant Number mean: 0.169656 max: 0.889609
DILUPBiCGStab:  Solving for Ux, Initial residual = 0.143151, Final residual = 1.76454e-06, No Iterations 5
DILUPBiCGStab:  Solving for Uy, Initial residual = 0.204592, Final residual = 1.77082e-06, No Iterations 5
DILUPBiCGStab:  Solving for Uz, Initial residual = 0.476047, Final residual = 3.97645e-06, No Iterations 5
linear solve U 11973
DICPCG:  Solving for p, Initial residual = 0.578841, Final residual = 7.43643e-07, No Iterations 65
linear solve p 17100
time step continuity errors : sum local = 5.25371e-09, global = -2.27442e-19, cumulative = -2.27442e-19
DICPCG:  Solving for p, Initial residual = 0.27554, Final residual = 7.27519e-07, No Iterations 65
linear solve p 16862
time step continuity errors : sum local = 3.18672e-09, global = 1.14463e-19, cumulative = -1.12978e-19
ExecutionTime = 0.17 s  ClockTime = 0 s

Time = 0.008

Courant Number mean: 0.173868 max: 0.868145
DILUPBiCGStab:  Solving for Ux, Initial residual = 0.0151888, Final residual = 1.22594e-06, No Iterations 5
DILUPBiCGStab:  Solving for Uy, Initial residual = 0.0247674, Final residual = 1.80832e-06, No Iterations 5
DILUPBiCGStab:  Solving for Uz, Initial residual = 0.0887897, Final residual = 3.83184e-06, No Iterations 5
linear solve U 10302
DICPCG:  Solving for p, Initial residual = 0.175259, Final residual = 7.83e-07, No Iterations 64
linear solve p 16729
time step continuity errors : sum local = 3.34758e-09, global = -1.63174e-19, cumulative = -2.76152e-19
DICPCG:  Solving for p, Initial residual = 0.103203, Final residual = 4.81334e-07, No Iterations 64
linear solve p 16769
time step continuity errors : sum local = 2.04395e-09, global = 3.27004e-20, cumulative = -2.43452e-19
ExecutionTime = 0.22 s  ClockTime = 0 s

Time = 0.012

Courant Number mean: 0.177048 max: 0.867817
DILUPBiCGStab:  Solving for Ux, Initial residual = 0.004692, Final residual = 2.96362e-07, No Iterations 5
DILUPBiCGStab:  Solving for Uy, Initial residual = 0.00998768, Final residual = 4.81435e-07, No Iterations 5
DILUPBiCGStab:  Solving for Uz, Initial residual = 0.0313761, Final residual = 1.53361e-06, No Iterations 5
linear solve U 10194
DICPCG:  Solving for p, Initial residual = 0.0492001, Final residual = 6.8253e-07, No Iterations 62
linear solve p 16326
time step continuity errors : sum local = 2.80742e-09, global = -2.45332e-20, cumulative = -2.67985e-19
DICPCG:  Solving for p, Initial residual = 0.0326567, Final residual = 8.41589e-07, No Iterations 61
linear solve p 15996
time step continuity errors : sum local = 3.46732e-09, global = -7.09618e-20, cumulative = -3.38947e-19
ExecutionTime = 0.27 s  ClockTime = 0 s

Time = 0.016

Courant Number mean: 0.179565 max: 0.869322
DILUPBiCGStab:  Solving for Ux, Initial residual = 0.00314092, Final residual = 1.45464e-07, No Iterations 5
DILUPBiCGStab:  Solving for Uy, Initial residual = 0.00681968, Final residual = 2.60861e-07, No Iterations 5
DILUPBiCGStab:  Solving for Uz, Initial residual = 0.0130998, Final residual = 5.57981e-07, No Iterations 5
linear solve U 10514
DICPCG:  Solving for p, Initial residual = 0.0194296, Final residual = 7.41026e-07, No Iterations 58
linear solve p 15252
time step continuity errors : sum local = 3.03001e-09, global = -1.28211e-19, cumulative = -4.67157e-19
DICPCG:  Solving for p, Initial residual = 0.0140388, Final residual = 8.98504e-07, No Iterations 57
linear solve p 15016
time step continuity errors : sum local = 3.66989e-09, global = 1.46113e-20, cumulative = -4.52546e-19
ExecutionTime = 0.32 s  ClockTime = 0 s

Time = 0.02

Courant Number mean: 0.181574 max: 0.870815
DILUPBiCGStab:  Solving for Ux, Initial residual = 0.00232733, Final residual = 9.81833e-08, No Iterations 5
DILUPBiCGStab:  Solving for Uy, Initial residual = 0.00517745, Final residual = 1.3506e-07, No Iterations 5
DILUPBiCGStab:  Solving for Uz, Initial residual = 0.00910666, Final residual = 2.66267e-07, No Iterations 5
linear solve U 10369
DICPCG:  Solving for p, Initial residual = 0.0100121, Final residual = 7.41789e-07, No Iterations 55
linear solve p 14569
time step continuity errors : sum local = 3.02946e-09, global = 3.15528e-20, cumulative = -4.20993e-19
DICPCG:  Solving for p, Initial residual = 0.00751431, Final residual = 5.80588e-07, No Iterations 55
linear solve p 14489
time step continuity errors : sum local = 2.37325e-09, global = 3.80501e-20, cumulative = -3.82943e-19
ExecutionTime = 0.36 s  ClockTime = 0 s

Time = 0.024

Courant Number mean: 0.183143 max: 0.871972
DILUPBiCGStab:  Solving for Ux, Initial residual = 0.00177564, Final residual = 5.93708e-08, No Iterations 5
DILUPBiCGStab:  Solving for Uy, Initial residual = 0.00408235, Final residual = 1.08614e-07, No Iterations 5
DILUPBiCGStab:  Solving for Uz, Initial residual = 0.00674902, Final residual = 1.93343e-07, No Iterations 5
linear solve U 10333
DICPCG:  Solving for p, Initial residual = 0.00619785, Final residual = 9.69416e-07, No Iterations 56
linear solve p 14727
time step continuity errors : sum local = 3.96142e-09, global = -8.20553e-20, cumulative = -4.64998e-19
DICPCG:  Solving for p, Initial residual = 0.00497495, Final residual = 8.08954e-07, No Iterations 56
linear solve p 14721
time step continuity errors : sum local = 3.30627e-09, global = 1.89321e-20, cumulative = -4.46066e-19
ExecutionTime = 0.41 s  ClockTime = 1 s

Time = 0.028

Courant Number mean: 0.184376 max: 0.872837
DILUPBiCGStab:  Solving for Ux, Initial residual = 0.00137932, Final residual = 4.3552e-08, No Iterations 5
DILUPBiCGStab:  Solving for Uy, Initial residual = 0.00321233, Final residual = 3.22711e-08, No Iterations 5
DILUPBiCGStab:  Solving for Uz, Initial residual = 0.00511447, Final residual = 9.32899e-08, No Iterations 5
linear solve U 10273
DICPCG:  Solving for p, Initial residual = 0.00396868, Final residual = 8.49111e-07, No Iterations 54
linear solve p 14218
time step continuity errors : sum local = 3.47163e-09, global = 9.0228e-20, cumulative = -3.55838e-19
DICPCG:  Solving for p, Initial residual = 0.00329371, Final residual = 9.78706e-07, No Iterations 53
linear solve p 13946
time step continuity errors : sum local = 4.00225e-09, global = -5.73802e-21, cumulative = -3.61576e-19
ExecutionTime = 0.46 s  ClockTime = 1 s

Time = 0.032

Courant Number mean: 0.185344 max: 0.873502
DILUPBiCGStab:  Solving for Ux, Initial residual = 0.00107785, Final residual = 2.90171e-08, No Iterations 5
DILUPBiCGStab:  Solving for Uy, Initial residual = 0.00254845, Final residual = 2.92743e-08, No Iterations 5
DILUPBiCGStab:  Solving for Uz, Initial residual = 0.00394497, Final residual = 8.14584e-08, No Iterations 5
linear solve U 10199
DICPCG:  Solving for p, Initial residual = 0.00303615, Final residual = 9.15333e-07, No Iterations 53
linear solve p 14710
time step continuity errors : sum local = 3.74223e-09, global = 6.52445e-20, cumulative = -2.96332e-19
DICPCG:  Solving for p, Initial residual = 0.00256244, Final residual = 8.48715e-07, No Iterations 52
linear solve p 13810
time step continuity errors : sum local = 3.47036e-09, global = -1.3456e-20, cumulative = -3.09788e-19
ExecutionTime = 0.5 s  ClockTime = 1 s

Time = 0.036

Courant Number mean: 0.186106 max: 0.874008
DILUPBiCGStab:  Solving for Ux, Initial residual = 0.000848596, Final residual = 2.26696e-08, No Iterations 5
DILUPBiCGStab:  Solving for Uy, Initial residual = 0.00202243, Final residual = 1.52821e-08, No Iterations 5
DILUPBiCGStab:  Solving for Uz, Initial residual = 0.00304004, Final residual = 5.66045e-08, No Iterations 5
linear solve U 10230
DICPCG:  Solving for p, Initial residual = 0.00227468, Final residual = 8.87802e-07, No Iterations 51
linear solve p 13506
time step continuity errors : sum local = 3.62946e-09, global = 1.03779e-20, cumulative = -2.9941e-19
DICPCG:  Solving for p, Initial residual = 0.00193444, Final residual = 6.90338e-07, No Iterations 51
linear solve p 13524
time step continuity errors : sum local = 2.82274e-09, global = -2.36099e-19, cumulative = -5.35508e-19
ExecutionTime = 0.55 s  ClockTime = 1 s

Time = 0.04

Courant Number mean: 0.186708 max: 0.874399
DILUPBiCGStab:  Solving for Ux, Initial residual = 0.000670149, Final residual = 1.65809e-08, No Iterations 5
DILUPBiCGStab:  Solving for Uy, Initial residual = 0.00160975, Final residual = 1.26239e-08, No Iterations 5
DILUPBiCGStab:  Solving for Uz, Initial residual = 0.00235787, Final residual = 4.60115e-08, No Iterations 5
linear solve U 10407
DICPCG:  Solving for p, Initial residual = 0.00178968, Final residual = 6.97572e-07, No Iterations 51
linear solve p 13581
time step continuity errors : sum local = 2.85191e-09, global = 4.42247e-20, cumulative = -4.91284e-19
DICPCG:  Solving for p, Initial residual = 0.00153043, Final residual = 9.07135e-07, No Iterations 50
linear solve p 13204
time step continuity errors : sum local = 3.70916e-09, global = 3.18402e-20, cumulative = -4.59444e-19
ExecutionTime = 0.59 s  ClockTime = 1 s

End

