/*---------------------------------------------------------------------------*\
  =========                 |
  \\      /  F ield         | OpenFOAM: The Open Source CFD Toolbox
   \\    /   O peration     | Website:  https://openfoam.org
    \\  /    A nd           | Version:  8
     \\/     M anipulation  |
\*---------------------------------------------------------------------------*/
Build  : 8-ef60d22ea792
Exec   : icoFoam
Date   : Sep 15 2021
Time   : 14:35:27
Host   : "uc2n438.localdomain"
PID    : 3552335
I/O    : uncollated
Case   : /pfs/data5/home/kit/scc/nq7776/data/code/OBR/lidDrivenCavity3D/Variation_init/100/Variation_mesh/60/Variation_matrix_solver/BiCGStab_DIC_Serial/1631709319
nProcs : 1
sigFpe : Enabling floating point exception trapping (FOAM_SIGFPE).
fileModificationChecking : Monitoring run-time modified files using timeStampMaster (fileModificationSkew 10)
allowSystemOperations : Allowing user-supplied system call operations

// * * * * * * * * * * * * * * * * * * * * * * * * * * * * * * * * * * * * * //
Create time

Create mesh for time = 0

Reading transportProperties

Reading field p

Reading field U

Reading/calculating face flux field phi


Starting time loop

Time = 0.00166667

Courant Number mean: 0.170807 max: 0.952211
DILUPBiCGStab:  Solving for Ux, Initial residual = 0.0792055, Final residual = 5.33372e-05, No Iterations 5
DILUPBiCGStab:  Solving for Uy, Initial residual = 0.156482, Final residual = 0.000119358, No Iterations 5
DILUPBiCGStab:  Solving for Uz, Initial residual = 0.184257, Final residual = 0.000287594, No Iterations 5
linear solve U 212917
DICPBiCGStab:  Solving for p, Initial residual = 0.585485, Final residual = 4.4538e-07, No Iterations 104
linear solve p 1037359
time step continuity errors : sum local = 6.47086e-10, global = 6.94225e-21, cumulative = 6.94225e-21
DICPBiCGStab:  Solving for p, Initial residual = 0.3301, Final residual = 5.56439e-07, No Iterations 122
linear solve p 1249285
time step continuity errors : sum local = 4.89867e-10, global = 6.95256e-22, cumulative = 7.63751e-21
ExecutionTime = 3.63 s  ClockTime = 3 s

Time = 0.00333333

Courant Number mean: 0.172961 max: 0.94273
DILUPBiCGStab:  Solving for Ux, Initial residual = 0.00658967, Final residual = 1.48975e-05, No Iterations 5
DILUPBiCGStab:  Solving for Uy, Initial residual = 0.0148854, Final residual = 2.89954e-05, No Iterations 5
DILUPBiCGStab:  Solving for Uz, Initial residual = 0.0322422, Final residual = 0.000137078, No Iterations 5
linear solve U 198790
DICPBiCGStab:  Solving for p, Initial residual = 0.177966, Final residual = 5.72298e-07, No Iterations 105
linear solve p 1066697
time step continuity errors : sum local = 9.10554e-10, global = 4.70411e-21, cumulative = 1.23416e-20
DICPBiCGStab:  Solving for p, Initial residual = 0.10963, Final residual = 6.92623e-07, No Iterations 111
linear solve p 1124940
time step continuity errors : sum local = 6.25262e-10, global = 1.57704e-20, cumulative = 2.8112e-20
ExecutionTime = 6.14 s  ClockTime = 6 s

Time = 0.005

Courant Number mean: 0.174942 max: 0.942976
DILUPBiCGStab:  Solving for Ux, Initial residual = 0.00280012, Final residual = 1.07547e-05, No Iterations 5
DILUPBiCGStab:  Solving for Uy, Initial residual = 0.00743775, Final residual = 1.82988e-05, No Iterations 5
DILUPBiCGStab:  Solving for Uz, Initial residual = 0.0191447, Final residual = 5.75719e-05, No Iterations 5
linear solve U 196639
DICPBiCGStab:  Solving for p, Initial residual = 0.0894824, Final residual = 9.76796e-07, No Iterations 114
linear solve p 1173146
time step continuity errors : sum local = 8.16317e-10, global = 2.3814e-20, cumulative = 5.19261e-20
DICPBiCGStab:  Solving for p, Initial residual = 0.0649642, Final residual = 7.74763e-07, No Iterations 116
linear solve p 1183228
time step continuity errors : sum local = 6.43997e-10, global = -2.53614e-20, cumulative = 2.65646e-20
ExecutionTime = 8.81 s  ClockTime = 9 s

Time = 0.00666667

Courant Number mean: 0.176691 max: 0.943696
DILUPBiCGStab:  Solving for Ux, Initial residual = 0.00221791, Final residual = 6.67296e-06, No Iterations 5
DILUPBiCGStab:  Solving for Uy, Initial residual = 0.00622835, Final residual = 1.23715e-05, No Iterations 5
DILUPBiCGStab:  Solving for Uz, Initial residual = 0.0153444, Final residual = 3.99857e-05, No Iterations 5
linear solve U 194673
DICPBiCGStab:  Solving for p, Initial residual = 0.0605736, Final residual = 9.82889e-07, No Iterations 113
linear solve p 1146277
time step continuity errors : sum local = 7.91721e-10, global = -3.67557e-20, cumulative = -1.0191e-20
DICPBiCGStab:  Solving for p, Initial residual = 0.0455428, Final residual = 5.48973e-07, No Iterations 104
linear solve p 1064787
time step continuity errors : sum local = 7.86082e-10, global = 3.60739e-20, cumulative = 2.58829e-20
ExecutionTime = 11.32 s  ClockTime = 11 s

Time = 0.00833333

Courant Number mean: 0.178237 max: 0.944213
DILUPBiCGStab:  Solving for Ux, Initial residual = 0.00187914, Final residual = 3.86827e-06, No Iterations 5
DILUPBiCGStab:  Solving for Uy, Initial residual = 0.0051589, Final residual = 8.50657e-06, No Iterations 5
DILUPBiCGStab:  Solving for Uz, Initial residual = 0.0114306, Final residual = 2.71687e-05, No Iterations 5
linear solve U 198981
DICPBiCGStab:  Solving for p, Initial residual = 0.0439725, Final residual = 9.66235e-07, No Iterations 108
linear solve p 1108730
time step continuity errors : sum local = 7.8246e-10, global = 2.74319e-20, cumulative = 5.33148e-20
DICPBiCGStab:  Solving for p, Initial residual = 0.0332733, Final residual = 8.65655e-07, No Iterations 105
linear solve p 1064561
time step continuity errors : sum local = 7.53039e-10, global = -6.09083e-20, cumulative = -7.59356e-21
ExecutionTime = 13.81 s  ClockTime = 14 s

Time = 0.01

Courant Number mean: 0.179608 max: 0.944763
DILUPBiCGStab:  Solving for Ux, Initial residual = 0.00161295, Final residual = 2.23197e-06, No Iterations 5
DILUPBiCGStab:  Solving for Uy, Initial residual = 0.00452706, Final residual = 5.72673e-06, No Iterations 5
DILUPBiCGStab:  Solving for Uz, Initial residual = 0.00988209, Final residual = 2.14791e-05, No Iterations 5
linear solve U 194487
DICPBiCGStab:  Solving for p, Initial residual = 0.0318479, Final residual = 8.27883e-07, No Iterations 100
linear solve p 1015540
time step continuity errors : sum local = 1.14937e-09, global = 9.22784e-21, cumulative = 1.63429e-21
DICPBiCGStab:  Solving for p, Initial residual = 0.0245635, Final residual = 9.86493e-07, No Iterations 93
linear solve p 954154
time step continuity errors : sum local = 1.43624e-09, global = 6.23666e-20, cumulative = 6.40009e-20
ExecutionTime = 16.1 s  ClockTime = 16 s

Time = 0.0116667

Courant Number mean: 0.180821 max: 0.94515
DILUPBiCGStab:  Solving for Ux, Initial residual = 0.00140407, Final residual = 1.25349e-06, No Iterations 5
DILUPBiCGStab:  Solving for Uy, Initial residual = 0.00388763, Final residual = 3.61724e-06, No Iterations 5
DILUPBiCGStab:  Solving for Uz, Initial residual = 0.00791526, Final residual = 1.62676e-05, No Iterations 5
linear solve U 198971
DICPBiCGStab:  Solving for p, Initial residual = 0.0241315, Final residual = 7.2402e-07, No Iterations 109
linear solve p 1117004
time step continuity errors : sum local = 6.81812e-10, global = -4.12506e-20, cumulative = 2.27503e-20
DICPBiCGStab:  Solving for p, Initial residual = 0.0187435, Final residual = 7.60623e-07, No Iterations 57
linear solve p 581094
time step continuity errors : sum local = 5.97333e-10, global = 5.04179e-21, cumulative = 2.77921e-20
ExecutionTime = 18.11 s  ClockTime = 18 s

Time = 0.0133333

Courant Number mean: 0.181902 max: 0.945552
DILUPBiCGStab:  Solving for Ux, Initial residual = 0.00123013, Final residual = 1.04664e-06, No Iterations 5
DILUPBiCGStab:  Solving for Uy, Initial residual = 0.00346636, Final residual = 2.8121e-06, No Iterations 5
DILUPBiCGStab:  Solving for Uz, Initial residual = 0.00707122, Final residual = 1.26392e-05, No Iterations 5
linear solve U 193150
DICPBiCGStab:  Solving for p, Initial residual = 0.0177732, Final residual = 8.90395e-07, No Iterations 101
linear solve p 1025026
time step continuity errors : sum local = 7.90646e-10, global = -3.92384e-20, cumulative = -1.14463e-20
DICPBiCGStab:  Solving for p, Initial residual = 0.014021, Final residual = 7.99287e-07, No Iterations 99
linear solve p 1009286
time step continuity errors : sum local = 7.9953e-10, global = 1.20438e-20, cumulative = 5.97525e-22
ExecutionTime = 20.45 s  ClockTime = 20 s

Time = 0.015

Courant Number mean: 0.182863 max: 0.945851
DILUPBiCGStab:  Solving for Ux, Initial residual = 0.00108614, Final residual = 7.2977e-07, No Iterations 5
DILUPBiCGStab:  Solving for Uy, Initial residual = 0.00302328, Final residual = 1.6109e-06, No Iterations 5
DILUPBiCGStab:  Solving for Uz, Initial residual = 0.00587756, Final residual = 9.35798e-06, No Iterations 5
linear solve U 198033
DICPBiCGStab:  Solving for p, Initial residual = 0.0137854, Final residual = 9.61972e-07, No Iterations 59
linear solve p 609865
time step continuity errors : sum local = 7.68457e-10, global = -1.36559e-20, cumulative = -1.30583e-20
DICPBiCGStab:  Solving for p, Initial residual = 0.0109312, Final residual = 8.17053e-07, No Iterations 55
linear solve p 561006
time step continuity errors : sum local = 8.64374e-10, global = -4.44851e-21, cumulative = -1.75068e-20
ExecutionTime = 21.94 s  ClockTime = 22 s

Time = 0.0166667

Courant Number mean: 0.183724 max: 0.946149
DILUPBiCGStab:  Solving for Ux, Initial residual = 0.000958646, Final residual = 7.5576e-07, No Iterations 5
DILUPBiCGStab:  Solving for Uy, Initial residual = 0.0027194, Final residual = 1.46181e-06, No Iterations 5
DILUPBiCGStab:  Solving for Uz, Initial residual = 0.00528004, Final residual = 7.8112e-06, No Iterations 5
linear solve U 196453
DICPBiCGStab:  Solving for p, Initial residual = 0.0102888, Final residual = 8.89249e-07, No Iterations 97
linear solve p 980897
time step continuity errors : sum local = 1.13272e-09, global = 1.8502e-20, cumulative = 9.95181e-22
DICPBiCGStab:  Solving for p, Initial residual = 0.0082941, Final residual = 9.28229e-07, No Iterations 50
linear solve p 508143
time step continuity errors : sum local = 1.31426e-09, global = -2.32793e-20, cumulative = -2.22841e-20
ExecutionTime = 23.74 s  ClockTime = 24 s

End

