/*---------------------------------------------------------------------------*\
  =========                 |
  \\      /  F ield         | OpenFOAM: The Open Source CFD Toolbox
   \\    /   O peration     | Website:  https://openfoam.org
    \\  /    A nd           | Version:  8
     \\/     M anipulation  |
\*---------------------------------------------------------------------------*/
Build  : 8-ef60d22ea792
Exec   : icoFoam
Date   : Sep 15 2021
Time   : 14:31:36
Host   : "uc2n438.localdomain"
PID    : 3550732
I/O    : uncollated
Case   : /pfs/data5/home/kit/scc/nq7776/data/code/OBR/lidDrivenCavity3D/Variation_init/100/Variation_mesh/10/Variation_matrix_solver/BiCGStab_NoPrecond_Serial/1631709096
nProcs : 1
sigFpe : Enabling floating point exception trapping (FOAM_SIGFPE).
fileModificationChecking : Monitoring run-time modified files using timeStampMaster (fileModificationSkew 10)
allowSystemOperations : Allowing user-supplied system call operations

// * * * * * * * * * * * * * * * * * * * * * * * * * * * * * * * * * * * * * //
Create time

Create mesh for time = 0

Reading transportProperties

Reading field p

Reading field U

Reading/calculating face flux field phi


Starting time loop

Time = 0.01

Courant Number mean: 0.164367 max: 0.687382
DILUPBiCGStab:  Solving for Ux, Initial residual = 0.143876, Final residual = 4.90416e-10, No Iterations 5
DILUPBiCGStab:  Solving for Uy, Initial residual = 0.166383, Final residual = 9.49899e-10, No Iterations 5
DILUPBiCGStab:  Solving for Uz, Initial residual = 0.331866, Final residual = 6.25857e-09, No Iterations 5
linear solve U 888
nonePBiCGStab:  Solving for p, Initial residual = 0.61492, Final residual = 4.68623e-07, No Iterations 71
linear solve p 1601
time step continuity errors : sum local = 2.85805e-08, global = 3.7877e-19, cumulative = 3.7877e-19
nonePBiCGStab:  Solving for p, Initial residual = 0.306167, Final residual = 9.33253e-07, No Iterations 72
linear solve p 1509
time step continuity errors : sum local = 3.19441e-08, global = -2.07701e-19, cumulative = 1.71069e-19
ExecutionTime = 0.05 s  ClockTime = 1 s

Time = 0.02

Courant Number mean: 0.168824 max: 0.675339
DILUPBiCGStab:  Solving for Ux, Initial residual = 0.0355466, Final residual = 1.50452e-09, No Iterations 5
DILUPBiCGStab:  Solving for Uy, Initial residual = 0.0400355, Final residual = 6.37607e-10, No Iterations 5
DILUPBiCGStab:  Solving for Uz, Initial residual = 0.103378, Final residual = 1.87241e-09, No Iterations 5
linear solve U 712
nonePBiCGStab:  Solving for p, Initial residual = 0.153507, Final residual = 6.02685e-07, No Iterations 67
linear solve p 1365
time step continuity errors : sum local = 2.30445e-08, global = 1.32897e-19, cumulative = 3.03966e-19
nonePBiCGStab:  Solving for p, Initial residual = 0.0682546, Final residual = 2.38912e-07, No Iterations 65
linear solve p 1356
time step continuity errors : sum local = 9.31075e-09, global = -6.12652e-19, cumulative = -3.08686e-19
ExecutionTime = 0.05 s  ClockTime = 1 s

Time = 0.03

Courant Number mean: 0.172125 max: 0.674515
DILUPBiCGStab:  Solving for Ux, Initial residual = 0.00786032, Final residual = 3.41666e-10, No Iterations 5
DILUPBiCGStab:  Solving for Uy, Initial residual = 0.0117505, Final residual = 1.79961e-10, No Iterations 5
DILUPBiCGStab:  Solving for Uz, Initial residual = 0.032868, Final residual = 7.74599e-10, No Iterations 5
linear solve U 618
nonePBiCGStab:  Solving for p, Initial residual = 0.0151795, Final residual = 9.88302e-07, No Iterations 55
linear solve p 1062
time step continuity errors : sum local = 2.85898e-08, global = 3.21122e-19, cumulative = 1.24356e-20
nonePBiCGStab:  Solving for p, Initial residual = 0.00707626, Final residual = 9.90131e-07, No Iterations 51
linear solve p 1056
time step continuity errors : sum local = 3.9419e-08, global = -3.36712e-19, cumulative = -3.24277e-19
ExecutionTime = 0.05 s  ClockTime = 1 s

Time = 0.04

Courant Number mean: 0.174438 max: 0.676483
DILUPBiCGStab:  Solving for Ux, Initial residual = 0.00346776, Final residual = 8.53648e-11, No Iterations 5
DILUPBiCGStab:  Solving for Uy, Initial residual = 0.00573768, Final residual = 8.31199e-11, No Iterations 5
DILUPBiCGStab:  Solving for Uz, Initial residual = 0.0109264, Final residual = 1.89378e-10, No Iterations 5
linear solve U 624
nonePBiCGStab:  Solving for p, Initial residual = 0.00632412, Final residual = 8.52128e-07, No Iterations 58
linear solve p 1078
time step continuity errors : sum local = 2.07615e-08, global = -1.6599e-19, cumulative = -4.90267e-19
nonePBiCGStab:  Solving for p, Initial residual = 0.00351212, Final residual = 7.34735e-07, No Iterations 47
linear solve p 934
time step continuity errors : sum local = 2.75845e-08, global = 3.85764e-19, cumulative = -1.04503e-19
ExecutionTime = 0.06 s  ClockTime = 1 s

Time = 0.05

Courant Number mean: 0.17593 max: 0.678276
DILUPBiCGStab:  Solving for Ux, Initial residual = 0.00187267, Final residual = 4.14485e-11, No Iterations 5
DILUPBiCGStab:  Solving for Uy, Initial residual = 0.00338857, Final residual = 1.90713e-11, No Iterations 5
DILUPBiCGStab:  Solving for Uz, Initial residual = 0.0055916, Final residual = 9.36772e-11, No Iterations 5
linear solve U 617
nonePBiCGStab:  Solving for p, Initial residual = 0.00308743, Final residual = 9.65682e-07, No Iterations 49
linear solve p 907
time step continuity errors : sum local = 3.80915e-08, global = 4.77966e-20, cumulative = -5.67063e-20
nonePBiCGStab:  Solving for p, Initial residual = 0.00176356, Final residual = 7.1187e-07, No Iterations 48
linear solve p 889
time step continuity errors : sum local = 2.82493e-08, global = -7.25814e-19, cumulative = -7.8252e-19
ExecutionTime = 0.06 s  ClockTime = 1 s

Time = 0.06

Courant Number mean: 0.176863 max: 0.679463
DILUPBiCGStab:  Solving for Ux, Initial residual = 0.00111251, Final residual = 1.55564e-11, No Iterations 5
DILUPBiCGStab:  Solving for Uy, Initial residual = 0.00209543, Final residual = 1.0147e-11, No Iterations 5
DILUPBiCGStab:  Solving for Uz, Initial residual = 0.00301377, Final residual = 7.75535e-11, No Iterations 5
linear solve U 617
nonePBiCGStab:  Solving for p, Initial residual = 0.00188282, Final residual = 6.41514e-07, No Iterations 49
linear solve p 918
time step continuity errors : sum local = 2.36527e-08, global = -6.80998e-19, cumulative = -1.46352e-18
nonePBiCGStab:  Solving for p, Initial residual = 0.00107923, Final residual = 7.76318e-07, No Iterations 47
linear solve p 1000
time step continuity errors : sum local = 3.0574e-08, global = 6.61877e-19, cumulative = -8.01641e-19
ExecutionTime = 0.06 s  ClockTime = 1 s

Time = 0.07

Courant Number mean: 0.177443 max: 0.680218
DILUPBiCGStab:  Solving for Ux, Initial residual = 0.00067974, Final residual = 7.14195e-12, No Iterations 5
DILUPBiCGStab:  Solving for Uy, Initial residual = 0.00129836, Final residual = 6.08724e-12, No Iterations 5
DILUPBiCGStab:  Solving for Uz, Initial residual = 0.00176436, Final residual = 4.69872e-11, No Iterations 5
linear solve U 584
nonePBiCGStab:  Solving for p, Initial residual = 0.00114911, Final residual = 8.3344e-07, No Iterations 48
linear solve p 844
time step continuity errors : sum local = 3.34451e-08, global = -2.75754e-19, cumulative = -1.0774e-18
nonePBiCGStab:  Solving for p, Initial residual = 0.000655124, Final residual = 9.87307e-07, No Iterations 23
linear solve p 426
time step continuity errors : sum local = 3.74642e-08, global = -4.01034e-19, cumulative = -1.47843e-18
ExecutionTime = 0.06 s  ClockTime = 1 s

Time = 0.08

Courant Number mean: 0.177802 max: 0.680682
DILUPBiCGStab:  Solving for Ux, Initial residual = 0.000418023, Final residual = 3.50677e-12, No Iterations 5
DILUPBiCGStab:  Solving for Uy, Initial residual = 0.000806724, Final residual = 3.68787e-12, No Iterations 5
DILUPBiCGStab:  Solving for Uz, Initial residual = 0.00106058, Final residual = 3.09308e-11, No Iterations 5
linear solve U 585
nonePBiCGStab:  Solving for p, Initial residual = 0.000705914, Final residual = 9.59182e-07, No Iterations 22
linear solve p 404
time step continuity errors : sum local = 2.18068e-08, global = 4.28104e-19, cumulative = -1.05033e-18
nonePBiCGStab:  Solving for p, Initial residual = 0.000402429, Final residual = 9.34307e-07, No Iterations 20
linear solve p 366
time step continuity errors : sum local = 3.02588e-08, global = 2.48062e-19, cumulative = -8.02263e-19
ExecutionTime = 0.07 s  ClockTime = 1 s

Time = 0.09

Courant Number mean: 0.178023 max: 0.680966
DILUPBiCGStab:  Solving for Ux, Initial residual = 0.00025858, Final residual = 1.75658e-12, No Iterations 5
DILUPBiCGStab:  Solving for Uy, Initial residual = 0.00049975, Final residual = 2.25583e-12, No Iterations 5
DILUPBiCGStab:  Solving for Uz, Initial residual = 0.000647776, Final residual = 1.03977e-11, No Iterations 5
linear solve U 583
nonePBiCGStab:  Solving for p, Initial residual = 0.000435742, Final residual = 8.92165e-07, No Iterations 20
linear solve p 371
time step continuity errors : sum local = 2.32036e-08, global = 1.37657e-19, cumulative = -6.64606e-19
nonePBiCGStab:  Solving for p, Initial residual = 0.000248472, Final residual = 9.91956e-07, No Iterations 17
linear solve p 316
time step continuity errors : sum local = 2.47303e-08, global = -3.59262e-19, cumulative = -1.02387e-18
ExecutionTime = 0.07 s  ClockTime = 1 s

Time = 0.1

Courant Number mean: 0.17816 max: 0.681139
DILUPBiCGStab:  Solving for Ux, Initial residual = 0.000160013, Final residual = 8.55203e-13, No Iterations 5
DILUPBiCGStab:  Solving for Uy, Initial residual = 0.000310032, Final residual = 1.37537e-12, No Iterations 5
DILUPBiCGStab:  Solving for Uz, Initial residual = 0.000397401, Final residual = 7.87195e-12, No Iterations 5
linear solve U 588
nonePBiCGStab:  Solving for p, Initial residual = 0.000268347, Final residual = 9.38805e-07, No Iterations 17
linear solve p 320
time step continuity errors : sum local = 2.27136e-08, global = 1.7032e-19, cumulative = -8.53547e-19
nonePBiCGStab:  Solving for p, Initial residual = 0.000152931, Final residual = 8.28566e-07, No Iterations 15
linear solve p 284
time step continuity errors : sum local = 1.79893e-08, global = -6.68367e-20, cumulative = -9.20384e-19
ExecutionTime = 0.07 s  ClockTime = 1 s

End

