/*---------------------------------------------------------------------------*\
  =========                 |
  \\      /  F ield         | OpenFOAM: The Open Source CFD Toolbox
   \\    /   O peration     | Website:  https://openfoam.org
    \\  /    A nd           | Version:  8
     \\/     M anipulation  |
\*---------------------------------------------------------------------------*/
Build  : 8-ef60d22ea792
Exec   : icoFoam
Date   : Sep 15 2021
Time   : 13:31:36
Host   : "uc2n438.localdomain"
PID    : 3543113
I/O    : uncollated
Case   : /pfs/data5/home/kit/scc/nq7776/data/code/OBR/lidDrivenCavity3D/Variation_init/100/Variation_mesh/95/Variation_matrix_solver/CG_DIC_Serial/1631705463
nProcs : 1
sigFpe : Enabling floating point exception trapping (FOAM_SIGFPE).
fileModificationChecking : Monitoring run-time modified files using timeStampMaster (fileModificationSkew 10)
allowSystemOperations : Allowing user-supplied system call operations

// * * * * * * * * * * * * * * * * * * * * * * * * * * * * * * * * * * * * * //
Create time

Create mesh for time = 0

Reading transportProperties

Reading field p

Reading field U

Reading/calculating face flux field phi


Starting time loop

Time = 0.00105263

Courant Number mean: 0.170953 max: 0.961002
DILUPBiCGStab:  Solving for Ux, Initial residual = 0.0461445, Final residual = 0.000180416, No Iterations 5
DILUPBiCGStab:  Solving for Uy, Initial residual = 0.0921486, Final residual = 0.000510127, No Iterations 5
DILUPBiCGStab:  Solving for Uz, Initial residual = 0.140517, Final residual = 0.000914824, No Iterations 5
linear solve U 906994
DICPCG:  Solving for p, Initial residual = 0.555784, Final residual = 8.73667e-07, No Iterations 253
linear solve p 5342413
time step continuity errors : sum local = 5.24058e-10, global = 4.30107e-21, cumulative = 4.30107e-21
DICPCG:  Solving for p, Initial residual = 0.409115, Final residual = 9.09713e-07, No Iterations 252
linear solve p 5302557
time step continuity errors : sum local = 5.3941e-10, global = 8.2439e-21, cumulative = 1.2545e-20
ExecutionTime = 16.1 s  ClockTime = 16 s

Time = 0.00210526

Courant Number mean: 0.172907 max: 0.963527
DILUPBiCGStab:  Solving for Ux, Initial residual = 0.0057989, Final residual = 0.000102249, No Iterations 5
DILUPBiCGStab:  Solving for Uy, Initial residual = 0.0179524, Final residual = 0.000259399, No Iterations 5
DILUPBiCGStab:  Solving for Uz, Initial residual = 0.0487242, Final residual = 0.000750916, No Iterations 5
linear solve U 840226
DICPCG:  Solving for p, Initial residual = 0.503489, Final residual = 9.81032e-07, No Iterations 253
linear solve p 5343989
time step continuity errors : sum local = 5.65071e-10, global = 1.15869e-21, cumulative = 1.37037e-20
DICPCG:  Solving for p, Initial residual = 0.458977, Final residual = 8.98242e-07, No Iterations 253
linear solve p 5347721
time step continuity errors : sum local = 5.02861e-10, global = 1.79296e-20, cumulative = 3.16333e-20
ExecutionTime = 28.08 s  ClockTime = 28 s

Time = 0.00315789

Courant Number mean: 0.174172 max: 0.964644
DILUPBiCGStab:  Solving for Ux, Initial residual = 0.00445243, Final residual = 6.52279e-05, No Iterations 5
DILUPBiCGStab:  Solving for Uy, Initial residual = 0.012065, Final residual = 0.000168357, No Iterations 5
DILUPBiCGStab:  Solving for Uz, Initial residual = 0.0401152, Final residual = 0.000539576, No Iterations 5
linear solve U 832478
DICPCG:  Solving for p, Initial residual = 0.416682, Final residual = 9.99725e-07, No Iterations 253
linear solve p 5331000
time step continuity errors : sum local = 5.04259e-10, global = 1.11636e-20, cumulative = 4.27969e-20
DICPCG:  Solving for p, Initial residual = 0.362938, Final residual = 9.17259e-07, No Iterations 253
linear solve p 5343329
time step continuity errors : sum local = 4.64102e-10, global = -2.1009e-21, cumulative = 4.0696e-20
ExecutionTime = 40.03 s  ClockTime = 40 s

Time = 0.00421053

Courant Number mean: 0.175231 max: 0.964262
DILUPBiCGStab:  Solving for Ux, Initial residual = 0.00304046, Final residual = 4.39367e-05, No Iterations 5
DILUPBiCGStab:  Solving for Uy, Initial residual = 0.0100843, Final residual = 0.00011836, No Iterations 5
DILUPBiCGStab:  Solving for Uz, Initial residual = 0.0379148, Final residual = 0.000583585, No Iterations 5
linear solve U 830248
DICPCG:  Solving for p, Initial residual = 0.363933, Final residual = 9.38127e-07, No Iterations 253
linear solve p 5328846
time step continuity errors : sum local = 4.2857e-10, global = 2.17498e-20, cumulative = 6.24458e-20
DICPCG:  Solving for p, Initial residual = 0.315845, Final residual = 9.38109e-07, No Iterations 252
linear solve p 5301832
time step continuity errors : sum local = 4.24369e-10, global = 8.60797e-21, cumulative = 7.10538e-20
ExecutionTime = 51.92 s  ClockTime = 52 s

Time = 0.00526316

Courant Number mean: 0.176336 max: 0.964276
DILUPBiCGStab:  Solving for Ux, Initial residual = 0.0025878, Final residual = 2.67228e-05, No Iterations 5
DILUPBiCGStab:  Solving for Uy, Initial residual = 0.00746163, Final residual = 8.17593e-05, No Iterations 5
DILUPBiCGStab:  Solving for Uz, Initial residual = 0.0329231, Final residual = 0.00051267, No Iterations 5
linear solve U 831167
DICPCG:  Solving for p, Initial residual = 0.312121, Final residual = 8.86198e-07, No Iterations 252
linear solve p 5303026
time step continuity errors : sum local = 3.86558e-10, global = 1.32271e-20, cumulative = 8.42809e-20
DICPCG:  Solving for p, Initial residual = 0.265291, Final residual = 9.2674e-07, No Iterations 251
linear solve p 5275286
time step continuity errors : sum local = 4.04628e-10, global = -3.50329e-21, cumulative = 8.07776e-20
ExecutionTime = 63.77 s  ClockTime = 64 s

Time = 0.00631579

Courant Number mean: 0.177349 max: 0.964727
DILUPBiCGStab:  Solving for Ux, Initial residual = 0.00207793, Final residual = 1.83522e-05, No Iterations 5
DILUPBiCGStab:  Solving for Uy, Initial residual = 0.00661451, Final residual = 5.47926e-05, No Iterations 5
DILUPBiCGStab:  Solving for Uz, Initial residual = 0.0282995, Final residual = 0.000462599, No Iterations 5
linear solve U 830962
DICPCG:  Solving for p, Initial residual = 0.27755, Final residual = 9.88139e-07, No Iterations 249
linear solve p 5236363
time step continuity errors : sum local = 4.02629e-10, global = 6.63492e-21, cumulative = 8.74126e-20
DICPCG:  Solving for p, Initial residual = 0.236137, Final residual = 9.14489e-07, No Iterations 249
linear solve p 5227514
time step continuity errors : sum local = 3.70262e-10, global = 1.35666e-21, cumulative = 8.87692e-20
ExecutionTime = 75.51 s  ClockTime = 76 s

Time = 0.00736842

Courant Number mean: 0.178317 max: 0.96464
DILUPBiCGStab:  Solving for Ux, Initial residual = 0.00183609, Final residual = 1.33699e-05, No Iterations 5
DILUPBiCGStab:  Solving for Uy, Initial residual = 0.00549411, Final residual = 3.92373e-05, No Iterations 5
DILUPBiCGStab:  Solving for Uz, Initial residual = 0.0240653, Final residual = 0.00040019, No Iterations 5
linear solve U 833184
DICPCG:  Solving for p, Initial residual = 0.238912, Final residual = 9.67308e-07, No Iterations 248
linear solve p 5230830
time step continuity errors : sum local = 3.85331e-10, global = -1.03666e-20, cumulative = 7.84026e-20
DICPCG:  Solving for p, Initial residual = 0.200881, Final residual = 8.86905e-07, No Iterations 248
linear solve p 5438155
time step continuity errors : sum local = 3.53519e-10, global = 3.59023e-21, cumulative = 8.19928e-20
ExecutionTime = 87.46 s  ClockTime = 88 s

Time = 0.00842105

Courant Number mean: 0.179217 max: 0.96507
DILUPBiCGStab:  Solving for Ux, Initial residual = 0.00158213, Final residual = 1.00623e-05, No Iterations 5
DILUPBiCGStab:  Solving for Uy, Initial residual = 0.00491134, Final residual = 2.89946e-05, No Iterations 5
DILUPBiCGStab:  Solving for Uz, Initial residual = 0.0201125, Final residual = 0.000347251, No Iterations 5
linear solve U 831457
DICPCG:  Solving for p, Initial residual = 0.213074, Final residual = 9.25798e-07, No Iterations 247
linear solve p 5193733
time step continuity errors : sum local = 3.49661e-10, global = 5.08032e-21, cumulative = 8.70731e-20
DICPCG:  Solving for p, Initial residual = 0.179434, Final residual = 8.48212e-07, No Iterations 247
linear solve p 5187902
time step continuity errors : sum local = 3.18922e-10, global = -1.32795e-20, cumulative = 7.37936e-20
ExecutionTime = 99.12 s  ClockTime = 99 s

Time = 0.00947368

Courant Number mean: 0.180056 max: 0.965049
DILUPBiCGStab:  Solving for Ux, Initial residual = 0.0014055, Final residual = 8.06028e-06, No Iterations 5
DILUPBiCGStab:  Solving for Uy, Initial residual = 0.00428036, Final residual = 2.17303e-05, No Iterations 5
DILUPBiCGStab:  Solving for Uz, Initial residual = 0.0170698, Final residual = 0.000288361, No Iterations 5
linear solve U 834192
DICPCG:  Solving for p, Initial residual = 0.183715, Final residual = 8.54499e-07, No Iterations 246
linear solve p 5188671
time step continuity errors : sum local = 3.19345e-10, global = 1.13252e-20, cumulative = 8.51188e-20
DICPCG:  Solving for p, Initial residual = 0.153465, Final residual = 9.08827e-07, No Iterations 245
linear solve p 5374116
time step continuity errors : sum local = 3.39785e-10, global = 2.60656e-20, cumulative = 1.11184e-19
ExecutionTime = 110.96 s  ClockTime = 111 s

Time = 0.0105263

Courant Number mean: 0.180839 max: 0.965378
DILUPBiCGStab:  Solving for Ux, Initial residual = 0.00124838, Final residual = 6.53091e-06, No Iterations 5
DILUPBiCGStab:  Solving for Uy, Initial residual = 0.00384668, Final residual = 1.73213e-05, No Iterations 5
DILUPBiCGStab:  Solving for Uz, Initial residual = 0.0143267, Final residual = 0.000249236, No Iterations 5
linear solve U 831799
DICPCG:  Solving for p, Initial residual = 0.163286, Final residual = 8.86774e-07, No Iterations 245
linear solve p 5153627
time step continuity errors : sum local = 3.18227e-10, global = 2.03484e-20, cumulative = 1.31533e-19
DICPCG:  Solving for p, Initial residual = 0.136568, Final residual = 8.00886e-07, No Iterations 245
linear solve p 5144955
time step continuity errors : sum local = 2.86488e-10, global = -2.24047e-20, cumulative = 1.09128e-19
ExecutionTime = 122.54 s  ClockTime = 123 s

End

