/*---------------------------------------------------------------------------*\
  =========                 |
  \\      /  F ield         | OpenFOAM: The Open Source CFD Toolbox
   \\    /   O peration     | Website:  https://openfoam.org
    \\  /    A nd           | Version:  8
     \\/     M anipulation  |
\*---------------------------------------------------------------------------*/
Build  : 8-ef60d22ea792
Exec   : icoFoam
Date   : Sep 15 2021
Time   : 14:06:03
Host   : "uc2n482.localdomain"
PID    : 3640911
I/O    : uncollated
Case   : /pfs/data5/home/kit/scc/nq7776/data/code/OBR/lidDrivenCavity3D/Variation_init/100/Variation_mesh/70/Variation_matrix_solver/CG_BJ_CUDA/Variation_maxBlockSize/1/1631707548
nProcs : 1
sigFpe : Enabling floating point exception trapping (FOAM_SIGFPE).
fileModificationChecking : Monitoring run-time modified files using timeStampMaster (fileModificationSkew 10)
allowSystemOperations : Allowing user-supplied system call operations

// * * * * * * * * * * * * * * * * * * * * * * * * * * * * * * * * * * * * * //
Create time

Create mesh for time = 0

Reading transportProperties

Reading field p

Reading field U

Reading/calculating face flux field phi


Starting time loop

Time = 0.00142857

Courant Number mean: 0.170837 max: 0.954853
DILUPBiCGStab:  Solving for Ux, Initial residual = 0.123158, Final residual = 4.78684e-05, No Iterations 5
DILUPBiCGStab:  Solving for Uy, Initial residual = 0.240191, Final residual = 8.17702e-05, No Iterations 5
DILUPBiCGStab:  Solving for Uz, Initial residual = 0.328596, Final residual = 0.000523545, No Iterations 5
linear solve U 370747
[OGL LOG] init_host_sparsity_pattern : 97 ms
[OGL LOG] matrix not stored update host matrix
[OGL LOG] update_host_mtx : 54 ms
[OGL LOG] matrix is not yet sorted, compute sorting idxs
[OGL LOG] compute_sort : 3085 ms
[OGL LOG] matrix is not yet sorted, sorting host matrix
[OGL LOG] sort_host_mtx_sparsity_pattern : 70 ms
[OGL LOG] sort_host_mtx : 38 ms
[OGL LOG] init_preconditioner : 1 ms
[OGL LOG] solve : 314 ms
BJcudaGKOCG:  Solving for p, Initial residual = 0.567453, Final residual = 9.80292e-07, No Iterations 561
linear solve p 4431688
time step continuity errors : sum local = 1.17855e-09, global = -2.34196e-20, cumulative = -2.34196e-20
[OGL LOG] init_preconditioner : 0 ms
[OGL LOG] solve : 310 ms
BJcudaGKOCG:  Solving for p, Initial residual = 0.279391, Final residual = 9.81803e-07, No Iterations 565
linear solve p 320857
time step continuity errors : sum local = 6.99146e-10, global = 4.14991e-21, cumulative = -1.92697e-20
ExecutionTime = 6.91 s  ClockTime = 7 s

Time = 0.00285714

Courant Number mean: 0.172875 max: 0.950141
DILUPBiCGStab:  Solving for Ux, Initial residual = 0.00605369, Final residual = 2.356e-05, No Iterations 5
DILUPBiCGStab:  Solving for Uy, Initial residual = 0.0139616, Final residual = 4.53087e-05, No Iterations 5
DILUPBiCGStab:  Solving for Uz, Initial residual = 0.0507765, Final residual = 0.000286307, No Iterations 5
linear solve U 333199
[OGL LOG] init_preconditioner : 0 ms
[OGL LOG] solve : 323 ms
BJcudaGKOCG:  Solving for p, Initial residual = 0.261249, Final residual = 9.74742e-07, No Iterations 562
linear solve p 334491
time step continuity errors : sum local = 2.11695e-07, global = -3.19126e-21, cumulative = -2.2461e-20
[OGL LOG] init_preconditioner : 0 ms
[OGL LOG] solve : 320 ms
BJcudaGKOCG:  Solving for p, Initial residual = 0.183725, Final residual = 9.40163e-07, No Iterations 560
linear solve p 331011
time step continuity errors : sum local = 2.07454e-07, global = 4.63059e-21, cumulative = -1.78304e-20
ExecutionTime = 8.1 s  ClockTime = 8 s

Time = 0.00428571

Courant Number mean: 0.17465 max: 0.951231
DILUPBiCGStab:  Solving for Ux, Initial residual = 0.00280721, Final residual = 1.28905e-05, No Iterations 5
DILUPBiCGStab:  Solving for Uy, Initial residual = 0.00743889, Final residual = 2.49755e-05, No Iterations 5
DILUPBiCGStab:  Solving for Uz, Initial residual = 0.0269118, Final residual = 0.000161769, No Iterations 5
linear solve U 335440
[OGL LOG] init_preconditioner : 0 ms
[OGL LOG] solve : 325 ms
BJcudaGKOCG:  Solving for p, Initial residual = 0.167741, Final residual = 9.68349e-07, No Iterations 557
linear solve p 337890
time step continuity errors : sum local = 2.0724e-07, global = -2.15603e-20, cumulative = -3.93907e-20
[OGL LOG] init_preconditioner : 0 ms
[OGL LOG] solve : 316 ms
BJcudaGKOCG:  Solving for p, Initial residual = 0.122038, Final residual = 9.81251e-07, No Iterations 554
linear solve p 327029
time step continuity errors : sum local = 2.07096e-07, global = -8.24374e-22, cumulative = -4.02151e-20
ExecutionTime = 9.31 s  ClockTime = 9 s

Time = 0.00571429

Courant Number mean: 0.176201 max: 0.951516
DILUPBiCGStab:  Solving for Ux, Initial residual = 0.00217509, Final residual = 7.97239e-06, No Iterations 5
DILUPBiCGStab:  Solving for Uy, Initial residual = 0.00611263, Final residual = 1.44614e-05, No Iterations 5
DILUPBiCGStab:  Solving for Uz, Initial residual = 0.0192786, Final residual = 8.8676e-05, No Iterations 5
linear solve U 329492
[OGL LOG] init_preconditioner : 0 ms
[OGL LOG] solve : 314 ms
BJcudaGKOCG:  Solving for p, Initial residual = 0.120391, Final residual = 9.34019e-07, No Iterations 550
linear solve p 324819
time step continuity errors : sum local = 2.07274e-07, global = 3.91508e-21, cumulative = -3.63e-20
[OGL LOG] init_preconditioner : 0 ms
[OGL LOG] solve : 318 ms
BJcudaGKOCG:  Solving for p, Initial residual = 0.0892147, Final residual = 9.39724e-07, No Iterations 548
linear solve p 328986
time step continuity errors : sum local = 2.07014e-07, global = -3.1022e-20, cumulative = -6.7322e-20
ExecutionTime = 10.48 s  ClockTime = 10 s

Time = 0.00714286

Courant Number mean: 0.177607 max: 0.951995
DILUPBiCGStab:  Solving for Ux, Initial residual = 0.00184423, Final residual = 6.05735e-06, No Iterations 5
DILUPBiCGStab:  Solving for Uy, Initial residual = 0.00509688, Final residual = 1.219e-05, No Iterations 5
DILUPBiCGStab:  Solving for Uz, Initial residual = 0.0137054, Final residual = 5.49556e-05, No Iterations 5
linear solve U 335404
[OGL LOG] init_preconditioner : 0 ms
[OGL LOG] solve : 309 ms
BJcudaGKOCG:  Solving for p, Initial residual = 0.0867887, Final residual = 9.6348e-07, No Iterations 545
linear solve p 320590
time step continuity errors : sum local = 2.07189e-07, global = 9.31254e-21, cumulative = -5.80094e-20
[OGL LOG] init_preconditioner : 0 ms
[OGL LOG] solve : 307 ms
BJcudaGKOCG:  Solving for p, Initial residual = 0.0641276, Final residual = 9.66921e-07, No Iterations 543
linear solve p 317877
time step continuity errors : sum local = 2.07084e-07, global = 1.30086e-20, cumulative = -4.50008e-20
ExecutionTime = 11.66 s  ClockTime = 11 s

Time = 0.00857143

Courant Number mean: 0.178874 max: 0.952386
DILUPBiCGStab:  Solving for Ux, Initial residual = 0.00157905, Final residual = 4.29109e-06, No Iterations 5
DILUPBiCGStab:  Solving for Uy, Initial residual = 0.00443631, Final residual = 9.91254e-06, No Iterations 5
DILUPBiCGStab:  Solving for Uz, Initial residual = 0.0114958, Final residual = 3.87761e-05, No Iterations 5
linear solve U 330422
[OGL LOG] init_preconditioner : 0 ms
[OGL LOG] solve : 314 ms
BJcudaGKOCG:  Solving for p, Initial residual = 0.0636326, Final residual = 9.87001e-07, No Iterations 540
linear solve p 325356
time step continuity errors : sum local = 2.07006e-07, global = 8.57051e-21, cumulative = -3.64303e-20
[OGL LOG] init_preconditioner : 0 ms
[OGL LOG] solve : 310 ms
BJcudaGKOCG:  Solving for p, Initial residual = 0.0474812, Final residual = 9.88006e-07, No Iterations 538
linear solve p 321790
time step continuity errors : sum local = 2.0702e-07, global = 1.65434e-20, cumulative = -1.98869e-20
ExecutionTime = 12.83 s  ClockTime = 13 s

Time = 0.01

Courant Number mean: 0.180014 max: 0.952713
DILUPBiCGStab:  Solving for Ux, Initial residual = 0.00137777, Final residual = 3.0049e-06, No Iterations 5
DILUPBiCGStab:  Solving for Uy, Initial residual = 0.00387061, Final residual = 8.11104e-06, No Iterations 5
DILUPBiCGStab:  Solving for Uz, Initial residual = 0.00901747, Final residual = 3.06643e-05, No Iterations 5
linear solve U 336055
[OGL LOG] init_preconditioner : 0 ms
[OGL LOG] solve : 310 ms
BJcudaGKOCG:  Solving for p, Initial residual = 0.0474039, Final residual = 9.25164e-07, No Iterations 538
linear solve p 321237
time step continuity errors : sum local = 2.07094e-07, global = -3.18347e-20, cumulative = -5.17216e-20
[OGL LOG] init_preconditioner : 0 ms
[OGL LOG] solve : 309 ms
BJcudaGKOCG:  Solving for p, Initial residual = 0.0355038, Final residual = 9.9171e-07, No Iterations 536
linear solve p 320029
time step continuity errors : sum local = 2.07061e-07, global = 1.61493e-20, cumulative = -3.55724e-20
ExecutionTime = 14 s  ClockTime = 14 s

Time = 0.0114286

Courant Number mean: 0.181045 max: 0.953038
DILUPBiCGStab:  Solving for Ux, Initial residual = 0.00121485, Final residual = 2.01099e-06, No Iterations 5
DILUPBiCGStab:  Solving for Uy, Initial residual = 0.00345406, Final residual = 6.14366e-06, No Iterations 5
DILUPBiCGStab:  Solving for Uz, Initial residual = 0.0078596, Final residual = 2.31849e-05, No Iterations 5
linear solve U 340198
[OGL LOG] init_preconditioner : 0 ms
[OGL LOG] solve : 310 ms
BJcudaGKOCG:  Solving for p, Initial residual = 0.035094, Final residual = 9.75066e-07, No Iterations 535
linear solve p 320991
time step continuity errors : sum local = 2.06961e-07, global = 2.1938e-20, cumulative = -1.36343e-20
[OGL LOG] init_preconditioner : 0 ms
[OGL LOG] solve : 307 ms
BJcudaGKOCG:  Solving for p, Initial residual = 0.0265491, Final residual = 9.32759e-07, No Iterations 534
linear solve p 317866
time step continuity errors : sum local = 2.07003e-07, global = 2.49616e-20, cumulative = 1.13273e-20
ExecutionTime = 15.18 s  ClockTime = 15 s

Time = 0.0128571

Courant Number mean: 0.181976 max: 0.953292
DILUPBiCGStab:  Solving for Ux, Initial residual = 0.00107674, Final residual = 1.45085e-06, No Iterations 5
DILUPBiCGStab:  Solving for Uy, Initial residual = 0.00306253, Final residual = 4.45673e-06, No Iterations 5
DILUPBiCGStab:  Solving for Uz, Initial residual = 0.00652969, Final residual = 2.11594e-05, No Iterations 5
linear solve U 331755
[OGL LOG] init_preconditioner : 0 ms
[OGL LOG] solve : 302 ms
BJcudaGKOCG:  Solving for p, Initial residual = 0.0268315, Final residual = 9.86323e-07, No Iterations 530
linear solve p 313569
time step continuity errors : sum local = 2.07073e-07, global = 2.90495e-20, cumulative = 4.03768e-20
[OGL LOG] init_preconditioner : 0 ms
[OGL LOG] solve : 299 ms
BJcudaGKOCG:  Solving for p, Initial residual = 0.0204, Final residual = 9.63564e-07, No Iterations 528
linear solve p 309801
time step continuity errors : sum local = 2.07031e-07, global = 5.17726e-22, cumulative = 4.08945e-20
ExecutionTime = 16.33 s  ClockTime = 16 s

Time = 0.0142857

Courant Number mean: 0.182821 max: 0.953549
DILUPBiCGStab:  Solving for Ux, Initial residual = 0.000963108, Final residual = 1.08091e-06, No Iterations 5
DILUPBiCGStab:  Solving for Uy, Initial residual = 0.00277209, Final residual = 3.39781e-06, No Iterations 5
DILUPBiCGStab:  Solving for Uz, Initial residual = 0.00580733, Final residual = 1.56239e-05, No Iterations 5
linear solve U 329907
[OGL LOG] init_preconditioner : 0 ms
[OGL LOG] solve : 305 ms
BJcudaGKOCG:  Solving for p, Initial residual = 0.0200684, Final residual = 9.46542e-07, No Iterations 527
linear solve p 316325
time step continuity errors : sum local = 2.06966e-07, global = 1.79122e-20, cumulative = 5.88068e-20
[OGL LOG] init_preconditioner : 0 ms
[OGL LOG] solve : 312 ms
BJcudaGKOCG:  Solving for p, Initial residual = 0.0154263, Final residual = 9.19425e-07, No Iterations 526
linear solve p 324021
time step continuity errors : sum local = 2.06988e-07, global = -6.79307e-21, cumulative = 5.20137e-20
ExecutionTime = 17.49 s  ClockTime = 17 s

End

