/*---------------------------------------------------------------------------*\
  =========                 |
  \\      /  F ield         | OpenFOAM: The Open Source CFD Toolbox
   \\    /   O peration     | Website:  https://openfoam.org
    \\  /    A nd           | Version:  8
     \\/     M anipulation  |
\*---------------------------------------------------------------------------*/
Build  : 8-ef60d22ea792
Exec   : icoFoam
Date   : Sep 15 2021
Time   : 15:01:29
Host   : "uc2n482.localdomain"
PID    : 3658828
I/O    : uncollated
Case   : /pfs/data5/home/kit/scc/nq7776/data/code/OBR/lidDrivenCavity3D/Variation_init/100/Variation_mesh/50/Variation_matrix_solver/IR_NoPrecond_CUDA/Variation_innerReductionFactor/0.01/1631710883
nProcs : 1
sigFpe : Enabling floating point exception trapping (FOAM_SIGFPE).
fileModificationChecking : Monitoring run-time modified files using timeStampMaster (fileModificationSkew 10)
allowSystemOperations : Allowing user-supplied system call operations

// * * * * * * * * * * * * * * * * * * * * * * * * * * * * * * * * * * * * * //
Create time

Create mesh for time = 0

Reading transportProperties

Reading field p

Reading field U

Reading/calculating face flux field phi


Starting time loop

Time = 0.002

Courant Number mean: 0.171832 max: 0.950949
DILUPBiCGStab:  Solving for Ux, Initial residual = 0.170437, Final residual = 6.82397e-05, No Iterations 5
DILUPBiCGStab:  Solving for Uy, Initial residual = 0.34992, Final residual = 0.000142663, No Iterations 5
DILUPBiCGStab:  Solving for Uz, Initial residual = 0.557699, Final residual = 0.000189983, No Iterations 5
linear solve U 117611
[OGL LOG] init_host_sparsity_pattern : 32 ms
[OGL LOG] matrix not stored update host matrix
[OGL LOG] update_host_mtx : 18 ms
[OGL LOG] matrix is not yet sorted, compute sorting idxs
[OGL LOG] compute_sort : 1058 ms
[OGL LOG] matrix is not yet sorted, sorting host matrix
[OGL LOG] sort_host_mtx_sparsity_pattern : 24 ms
[OGL LOG] sort_host_mtx : 15 ms
[OGL LOG] init_preconditioner : 0 ms
[OGL LOG] solve : 77 ms
nonecudaGKOIR:  Solving for p, Initial residual = 0.678275, Final residual = 3.26616e-08, No Iterations 4
linear solve p 1992249
time step continuity errors : sum local = 9.84132e-11, global = -2.50849e-20, cumulative = -2.50849e-20
[OGL LOG] init_preconditioner : 0 ms
[OGL LOG] solve : 82 ms
nonecudaGKOIR:  Solving for p, Initial residual = 0.413581, Final residual = 1.91719e-08, No Iterations 4
linear solve p 87015
time step continuity errors : sum local = 2.95231e-11, global = 3.01409e-20, cumulative = 5.05602e-21
ExecutionTime = 2.83 s  ClockTime = 3 s

Time = 0.004

Courant Number mean: 0.174856 max: 0.932415
DILUPBiCGStab:  Solving for Ux, Initial residual = 0.0115943, Final residual = 2.67524e-05, No Iterations 5
DILUPBiCGStab:  Solving for Uy, Initial residual = 0.0268869, Final residual = 4.92437e-05, No Iterations 5
DILUPBiCGStab:  Solving for Uz, Initial residual = 0.112847, Final residual = 0.000158126, No Iterations 5
linear solve U 108280
[OGL LOG] init_preconditioner : 0 ms
[OGL LOG] solve : 64 ms
nonecudaGKOIR:  Solving for p, Initial residual = 0.32733, Final residual = 8.00943e-07, No Iterations 3
linear solve p 68348
time step continuity errors : sum local = 7.21921e-07, global = -2.06797e-20, cumulative = -1.56237e-20
[OGL LOG] init_preconditioner : 0 ms
[OGL LOG] solve : 69 ms
nonecudaGKOIR:  Solving for p, Initial residual = 0.243047, Final residual = 5.27303e-07, No Iterations 3
linear solve p 74215
time step continuity errors : sum local = 6.31051e-07, global = 1.29236e-20, cumulative = -2.70015e-21
ExecutionTime = 3.15 s  ClockTime = 3 s

Time = 0.006

Courant Number mean: 0.176822 max: 0.934846
DILUPBiCGStab:  Solving for Ux, Initial residual = 0.00529442, Final residual = 9.84979e-06, No Iterations 5
DILUPBiCGStab:  Solving for Uy, Initial residual = 0.0102196, Final residual = 2.29776e-05, No Iterations 5
DILUPBiCGStab:  Solving for Uz, Initial residual = 0.0485276, Final residual = 7.73977e-05, No Iterations 5
linear solve U 107626
[OGL LOG] init_preconditioner : 0 ms
[OGL LOG] solve : 64 ms
nonecudaGKOIR:  Solving for p, Initial residual = 0.17444, Final residual = 3.27197e-07, No Iterations 3
linear solve p 68258
time step continuity errors : sum local = 6.72772e-07, global = -3.35474e-20, cumulative = -3.62476e-20
[OGL LOG] init_preconditioner : 0 ms
[OGL LOG] solve : 64 ms
nonecudaGKOIR:  Solving for p, Initial residual = 0.133082, Final residual = 2.4032e-07, No Iterations 3
linear solve p 68658
time step continuity errors : sum local = 6.30351e-07, global = 3.17116e-20, cumulative = -4.53597e-21
ExecutionTime = 3.46 s  ClockTime = 3 s

Time = 0.008

Courant Number mean: 0.178238 max: 0.933359
DILUPBiCGStab:  Solving for Ux, Initial residual = 0.00289607, Final residual = 5.56896e-06, No Iterations 5
DILUPBiCGStab:  Solving for Uy, Initial residual = 0.00786354, Final residual = 1.0081e-05, No Iterations 5
DILUPBiCGStab:  Solving for Uz, Initial residual = 0.0260308, Final residual = 3.95523e-05, No Iterations 5
linear solve U 105149
[OGL LOG] init_preconditioner : 0 ms
[OGL LOG] solve : 67 ms
nonecudaGKOIR:  Solving for p, Initial residual = 0.10533, Final residual = 1.67785e-07, No Iterations 3
linear solve p 71428
time step continuity errors : sum local = 6.20793e-07, global = 2.55417e-20, cumulative = 2.10057e-20
[OGL LOG] init_preconditioner : 0 ms
[OGL LOG] solve : 67 ms
nonecudaGKOIR:  Solving for p, Initial residual = 0.0812438, Final residual = 1.24562e-07, No Iterations 3
linear solve p 71308
time step continuity errors : sum local = 6.30151e-07, global = -4.87582e-20, cumulative = -2.77524e-20
ExecutionTime = 3.78 s  ClockTime = 4 s

Time = 0.01

Courant Number mean: 0.179753 max: 0.9341
DILUPBiCGStab:  Solving for Ux, Initial residual = 0.0022717, Final residual = 4.01278e-06, No Iterations 5
DILUPBiCGStab:  Solving for Uy, Initial residual = 0.00526713, Final residual = 5.8853e-06, No Iterations 5
DILUPBiCGStab:  Solving for Uz, Initial residual = 0.0148994, Final residual = 2.0772e-05, No Iterations 5
linear solve U 109266
[OGL LOG] init_preconditioner : 0 ms
[OGL LOG] solve : 73 ms
nonecudaGKOIR:  Solving for p, Initial residual = 0.0676235, Final residual = 1.04759e-07, No Iterations 3
linear solve p 77767
time step continuity errors : sum local = 6.34707e-07, global = 1.1673e-20, cumulative = -1.60795e-20
[OGL LOG] init_preconditioner : 0 ms
[OGL LOG] solve : 72 ms
nonecudaGKOIR:  Solving for p, Initial residual = 0.0517196, Final residual = 7.86083e-08, No Iterations 3
linear solve p 76131
time step continuity errors : sum local = 6.30272e-07, global = -9.61095e-20, cumulative = -1.12189e-19
ExecutionTime = 4.11 s  ClockTime = 4 s

Time = 0.012

Courant Number mean: 0.181051 max: 0.934596
DILUPBiCGStab:  Solving for Ux, Initial residual = 0.00175521, Final residual = 1.90486e-06, No Iterations 5
DILUPBiCGStab:  Solving for Uy, Initial residual = 0.00453413, Final residual = 4.02137e-06, No Iterations 5
DILUPBiCGStab:  Solving for Uz, Initial residual = 0.0114973, Final residual = 1.25782e-05, No Iterations 5
linear solve U 105656
[OGL LOG] init_preconditioner : 0 ms
[OGL LOG] solve : 71 ms
nonecudaGKOIR:  Solving for p, Initial residual = 0.0446781, Final residual = 6.56534e-08, No Iterations 3
linear solve p 75010
time step continuity errors : sum local = 6.2858e-07, global = 1.72701e-20, cumulative = -9.49189e-20
[OGL LOG] init_preconditioner : 0 ms
[OGL LOG] solve : 70 ms
nonecudaGKOIR:  Solving for p, Initial residual = 0.0343745, Final residual = 4.87202e-08, No Iterations 3
linear solve p 74155
time step continuity errors : sum local = 6.30193e-07, global = 6.83499e-21, cumulative = -8.80839e-20
ExecutionTime = 4.44 s  ClockTime = 4 s

Time = 0.014

Courant Number mean: 0.182225 max: 0.93496
DILUPBiCGStab:  Solving for Ux, Initial residual = 0.0014906, Final residual = 9.87678e-07, No Iterations 5
DILUPBiCGStab:  Solving for Uy, Initial residual = 0.00373595, Final residual = 1.79912e-06, No Iterations 5
DILUPBiCGStab:  Solving for Uz, Initial residual = 0.0081937, Final residual = 8.40629e-06, No Iterations 5
linear solve U 109991
[OGL LOG] init_preconditioner : 0 ms
[OGL LOG] solve : 72 ms
nonecudaGKOIR:  Solving for p, Initial residual = 0.0303477, Final residual = 4.21556e-08, No Iterations 3
linear solve p 76587
time step continuity errors : sum local = 6.30444e-07, global = -3.0529e-20, cumulative = -1.18613e-19
[OGL LOG] init_preconditioner : 0 ms
[OGL LOG] solve : 73 ms
nonecudaGKOIR:  Solving for p, Initial residual = 0.023267, Final residual = 3.34851e-08, No Iterations 3
linear solve p 77395
time step continuity errors : sum local = 6.30212e-07, global = -1.20107e-21, cumulative = -1.19814e-19
ExecutionTime = 4.76 s  ClockTime = 5 s

Time = 0.016

Courant Number mean: 0.183255 max: 0.935382
DILUPBiCGStab:  Solving for Ux, Initial residual = 0.00125112, Final residual = 4.13792e-07, No Iterations 5
DILUPBiCGStab:  Solving for Uy, Initial residual = 0.00326804, Final residual = 1.01017e-06, No Iterations 5
DILUPBiCGStab:  Solving for Uz, Initial residual = 0.00685035, Final residual = 6.24935e-06, No Iterations 5
linear solve U 106499
[OGL LOG] init_preconditioner : 0 ms
[OGL LOG] solve : 71 ms
nonecudaGKOIR:  Solving for p, Initial residual = 0.0207011, Final residual = 3.0113e-08, No Iterations 3
linear solve p 75002
time step continuity errors : sum local = 6.29753e-07, global = 6.22009e-21, cumulative = -1.13594e-19
[OGL LOG] init_preconditioner : 0 ms
[OGL LOG] solve : 67 ms
nonecudaGKOIR:  Solving for p, Initial residual = 0.0160332, Final residual = 2.07591e-08, No Iterations 3
linear solve p 71350
time step continuity errors : sum local = 6.30186e-07, global = 4.44423e-20, cumulative = -6.91515e-20
ExecutionTime = 5.09 s  ClockTime = 5 s

Time = 0.018

Courant Number mean: 0.184168 max: 0.935681
DILUPBiCGStab:  Solving for Ux, Initial residual = 0.00108071, Final residual = 3.28416e-07, No Iterations 5
DILUPBiCGStab:  Solving for Uy, Initial residual = 0.00281175, Final residual = 1.01221e-06, No Iterations 5
DILUPBiCGStab:  Solving for Uz, Initial residual = 0.00553637, Final residual = 4.59602e-06, No Iterations 5
linear solve U 107258
[OGL LOG] init_preconditioner : 0 ms
[OGL LOG] solve : 63 ms
nonecudaGKOIR:  Solving for p, Initial residual = 0.0144621, Final residual = 1.70975e-08, No Iterations 3
linear solve p 68055
time step continuity errors : sum local = 6.29979e-07, global = -2.8095e-20, cumulative = -9.72465e-20
[OGL LOG] init_preconditioner : 0 ms
[OGL LOG] solve : 63 ms
nonecudaGKOIR:  Solving for p, Initial residual = 0.0112119, Final residual = 1.27909e-08, No Iterations 3
linear solve p 67817
time step continuity errors : sum local = 6.30187e-07, global = -2.1494e-20, cumulative = -1.1874e-19
ExecutionTime = 5.4 s  ClockTime = 5 s

Time = 0.02

Courant Number mean: 0.184973 max: 0.935986
DILUPBiCGStab:  Solving for Ux, Initial residual = 0.000928422, Final residual = 1.85299e-07, No Iterations 5
DILUPBiCGStab:  Solving for Uy, Initial residual = 0.00248406, Final residual = 5.62488e-07, No Iterations 5
DILUPBiCGStab:  Solving for Uz, Initial residual = 0.00473783, Final residual = 3.34261e-06, No Iterations 5
linear solve U 104826
[OGL LOG] init_preconditioner : 0 ms
[OGL LOG] solve : 68 ms
nonecudaGKOIR:  Solving for p, Initial residual = 0.0101777, Final residual = 1.364e-08, No Iterations 3
linear solve p 72207
time step continuity errors : sum local = 6.29955e-07, global = 4.75587e-20, cumulative = -7.11817e-20
[OGL LOG] init_preconditioner : 0 ms
[OGL LOG] solve : 64 ms
nonecudaGKOIR:  Solving for p, Initial residual = 0.00803422, Final residual = 1.05317e-08, No Iterations 3
linear solve p 68256
time step continuity errors : sum local = 6.30176e-07, global = -1.17176e-20, cumulative = -8.28993e-20
ExecutionTime = 5.71 s  ClockTime = 6 s

End

