/*---------------------------------------------------------------------------*\
  =========                 |
  \\      /  F ield         | OpenFOAM: The Open Source CFD Toolbox
   \\    /   O peration     | Website:  https://openfoam.org
    \\  /    A nd           | Version:  8
     \\/     M anipulation  |
\*---------------------------------------------------------------------------*/
Build  : 8-ef60d22ea792
Exec   : icoFoam
Date   : Sep 15 2021
Time   : 13:52:18
Host   : "uc2n482.localdomain"
PID    : 3637607
I/O    : uncollated
Case   : /pfs/data5/home/kit/scc/nq7776/data/code/OBR/lidDrivenCavity3D/Variation_init/100/Variation_mesh/95/Variation_matrix_solver/BiCGStab_NoPrecond_CUDA/1631706702
nProcs : 1
sigFpe : Enabling floating point exception trapping (FOAM_SIGFPE).
fileModificationChecking : Monitoring run-time modified files using timeStampMaster (fileModificationSkew 10)
allowSystemOperations : Allowing user-supplied system call operations

// * * * * * * * * * * * * * * * * * * * * * * * * * * * * * * * * * * * * * //
Create time

Create mesh for time = 0

Reading transportProperties

Reading field p

Reading field U

Reading/calculating face flux field phi


Starting time loop

Time = 0.00105263

Courant Number mean: 0.170953 max: 0.961002
DILUPBiCGStab:  Solving for Ux, Initial residual = 0.0461445, Final residual = 0.000180416, No Iterations 5
DILUPBiCGStab:  Solving for Uy, Initial residual = 0.0921486, Final residual = 0.000510127, No Iterations 5
DILUPBiCGStab:  Solving for Uz, Initial residual = 0.140517, Final residual = 0.000914824, No Iterations 5
linear solve U 922847
[OGL LOG] init_host_sparsity_pattern : 256 ms
[OGL LOG] matrix not stored update host matrix
[OGL LOG] update_host_mtx : 140 ms
[OGL LOG] matrix is not yet sorted, compute sorting idxs
[OGL LOG] compute_sort : 8027 ms
[OGL LOG] matrix is not yet sorted, sorting host matrix
[OGL LOG] sort_host_mtx_sparsity_pattern : 179 ms
[OGL LOG] sort_host_mtx : 106 ms
[OGL LOG] init_preconditioner : 0 ms
[OGL LOG] solve : 1402 ms
nonecudaGKOBiCGStab:  Solving for p, Initial residual = 0.555784, Final residual = 3.2239e-07, No Iterations 657
linear solve p 10938439
time step continuity errors : sum local = 1.54489e-05, global = 4.64918e-20, cumulative = 4.64918e-20
[OGL LOG] init_preconditioner : 0 ms
[OGL LOG] solve : 1405 ms
nonecudaGKOBiCGStab:  Solving for p, Initial residual = 0.423776, Final residual = 5.86834e-07, No Iterations 665
linear solve p 1432195
time step continuity errors : sum local = 1.08227e-05, global = 2.59773e-20, cumulative = 7.2469e-20
ExecutionTime = 17.76 s  ClockTime = 18 s

Time = 0.00210526

Courant Number mean: 0.172907 max: 0.963527
DILUPBiCGStab:  Solving for Ux, Initial residual = 0.0057996, Final residual = 0.000102249, No Iterations 5
DILUPBiCGStab:  Solving for Uy, Initial residual = 0.0179599, Final residual = 0.000259435, No Iterations 5
DILUPBiCGStab:  Solving for Uz, Initial residual = 0.06065, Final residual = 0.00103662, No Iterations 5
linear solve U 890844
[OGL LOG] init_preconditioner : 0 ms
[OGL LOG] solve : 1505 ms
nonecudaGKOBiCGStab:  Solving for p, Initial residual = 0.513903, Final residual = 9.71267e-07, No Iterations 712
linear solve p 1533827
time step continuity errors : sum local = 2.60205e-05, global = -2.85244e-20, cumulative = 4.39447e-20
[OGL LOG] init_preconditioner : 0 ms
[OGL LOG] solve : 898 ms
nonecudaGKOBiCGStab:  Solving for p, Initial residual = 0.486468, Final residual = 9.65563e-07, No Iterations 423
linear solve p 925623
time step continuity errors : sum local = 4.17085e-08, global = 1.0469e-20, cumulative = 5.44137e-20
ExecutionTime = 21.64 s  ClockTime = 22 s

Time = 0.00315789

Courant Number mean: 0.174173 max: 0.964641
DILUPBiCGStab:  Solving for Ux, Initial residual = 0.00445422, Final residual = 6.52048e-05, No Iterations 5
DILUPBiCGStab:  Solving for Uy, Initial residual = 0.0121281, Final residual = 0.000169818, No Iterations 5
DILUPBiCGStab:  Solving for Uz, Initial residual = 0.133265, Final residual = 0.00349423, No Iterations 5
linear solve U 856297
[OGL LOG] init_preconditioner : 0 ms
[OGL LOG] solve : 1340 ms
nonecudaGKOBiCGStab:  Solving for p, Initial residual = 0.543392, Final residual = 5.74477e-07, No Iterations 633
linear solve p 1367984
time step continuity errors : sum local = 1.93956e-05, global = 3.6405e-20, cumulative = 9.08186e-20
[OGL LOG] init_preconditioner : 0 ms
[OGL LOG] solve : 1393 ms
nonecudaGKOBiCGStab:  Solving for p, Initial residual = 0.473432, Final residual = 2.78143e-07, No Iterations 660
linear solve p 1419836
time step continuity errors : sum local = 4.02653e-05, global = -6.63437e-20, cumulative = 2.44749e-20
ExecutionTime = 25.81 s  ClockTime = 26 s

Time = 0.00421053

Courant Number mean: 0.175251 max: 0.964542
DILUPBiCGStab:  Solving for Ux, Initial residual = 0.00312121, Final residual = 4.52912e-05, No Iterations 5
DILUPBiCGStab:  Solving for Uy, Initial residual = 0.0105713, Final residual = 0.000133469, No Iterations 5
DILUPBiCGStab:  Solving for Uz, Initial residual = 0.272688, Final residual = 0.00764291, No Iterations 5
linear solve U 860894
[OGL LOG] init_preconditioner : 0 ms
[OGL LOG] solve : 1388 ms
nonecudaGKOBiCGStab:  Solving for p, Initial residual = 0.6959, Final residual = 9.73061e-07, No Iterations 651
linear solve p 1417168
time step continuity errors : sum local = 1.03571e-06, global = 1.85964e-20, cumulative = 4.30713e-20
[OGL LOG] init_preconditioner : 0 ms
[OGL LOG] solve : 1431 ms
nonecudaGKOBiCGStab:  Solving for p, Initial residual = 0.610464, Final residual = 9.59e-07, No Iterations 664
linear solve p 1457937
time step continuity errors : sum local = 4.07609e-08, global = 1.44907e-20, cumulative = 5.7562e-20
ExecutionTime = 30.06 s  ClockTime = 31 s

Time = 0.00526316

Courant Number mean: 0.176413 max: 0.968416
DILUPBiCGStab:  Solving for Ux, Initial residual = 0.0030141, Final residual = 3.77804e-05, No Iterations 5
DILUPBiCGStab:  Solving for Uy, Initial residual = 0.00924913, Final residual = 0.000121748, No Iterations 5
DILUPBiCGStab:  Solving for Uz, Initial residual = 0.322856, Final residual = 0.00467582, No Iterations 5
linear solve U 856482
[OGL LOG] init_preconditioner : 0 ms
[OGL LOG] solve : 1300 ms
nonecudaGKOBiCGStab:  Solving for p, Initial residual = 0.627872, Final residual = 6.28832e-07, No Iterations 601
linear solve p 1330020
time step continuity errors : sum local = 4.79389e-05, global = 5.44505e-20, cumulative = 1.12012e-19
[OGL LOG] init_preconditioner : 0 ms
[OGL LOG] solve : 1304 ms
nonecudaGKOBiCGStab:  Solving for p, Initial residual = 0.533933, Final residual = 9.08893e-07, No Iterations 606
linear solve p 1332088
time step continuity errors : sum local = 4.03426e-08, global = 7.93466e-21, cumulative = 1.19947e-19
ExecutionTime = 34.09 s  ClockTime = 35 s

Time = 0.00631579

Courant Number mean: 0.177369 max: 0.965928
DILUPBiCGStab:  Solving for Ux, Initial residual = 0.00246137, Final residual = 2.86479e-05, No Iterations 5
DILUPBiCGStab:  Solving for Uy, Initial residual = 0.00816283, Final residual = 0.000103359, No Iterations 5
DILUPBiCGStab:  Solving for Uz, Initial residual = 0.341962, Final residual = 0.00687137, No Iterations 5
linear solve U 854957
[OGL LOG] init_preconditioner : 0 ms
[OGL LOG] solve : 1335 ms
nonecudaGKOBiCGStab:  Solving for p, Initial residual = 0.682719, Final residual = 4.7749e-07, No Iterations 619
linear solve p 1361339
time step continuity errors : sum local = 1.62057e-05, global = 1.82733e-20, cumulative = 1.3822e-19
[OGL LOG] init_preconditioner : 0 ms
[OGL LOG] solve : 1301 ms
nonecudaGKOBiCGStab:  Solving for p, Initial residual = 0.622919, Final residual = 4.20338e-07, No Iterations 605
linear solve p 1328035
time step continuity errors : sum local = 1.84141e-05, global = 2.33386e-20, cumulative = 1.61559e-19
ExecutionTime = 38.14 s  ClockTime = 39 s

Time = 0.00736842

Courant Number mean: 0.17838 max: 0.9688
DILUPBiCGStab:  Solving for Ux, Initial residual = 0.00243981, Final residual = 3.267e-05, No Iterations 5
DILUPBiCGStab:  Solving for Uy, Initial residual = 0.00778661, Final residual = 0.000112725, No Iterations 5
DILUPBiCGStab:  Solving for Uz, Initial residual = 0.301033, Final residual = 0.00368238, No Iterations 5
linear solve U 863467
[OGL LOG] init_preconditioner : 0 ms
[OGL LOG] solve : 1362 ms
nonecudaGKOBiCGStab:  Solving for p, Initial residual = 0.557454, Final residual = 6.77894e-07, No Iterations 643
linear solve p 1390826
time step continuity errors : sum local = 0.000342491, global = -1.40407e-20, cumulative = 1.47518e-19
[OGL LOG] init_preconditioner : 0 ms
[OGL LOG] solve : 1276 ms
nonecudaGKOBiCGStab:  Solving for p, Initial residual = 0.719474, Final residual = 7.92957e-07, No Iterations 606
linear solve p 1304207
time step continuity errors : sum local = 4.11853e-08, global = -1.7589e-20, cumulative = 1.29929e-19
ExecutionTime = 42.22 s  ClockTime = 43 s

Time = 0.00842105

Courant Number mean: 0.179215 max: 0.965605
DILUPBiCGStab:  Solving for Ux, Initial residual = 0.00205962, Final residual = 2.50983e-05, No Iterations 5
DILUPBiCGStab:  Solving for Uy, Initial residual = 0.00727916, Final residual = 0.000178858, No Iterations 5
DILUPBiCGStab:  Solving for Uz, Initial residual = 0.555103, Final residual = 0.0175028, No Iterations 5
linear solve U 862091
[OGL LOG] init_preconditioner : 0 ms
[OGL LOG] solve : 1250 ms
nonecudaGKOBiCGStab:  Solving for p, Initial residual = 0.877594, Final residual = 8.48488e-07, No Iterations 590
linear solve p 1277428
time step continuity errors : sum local = 1.09311e-05, global = -3.24277e-20, cumulative = 9.75017e-20
[OGL LOG] init_preconditioner : 0 ms
[OGL LOG] solve : 1244 ms
nonecudaGKOBiCGStab:  Solving for p, Initial residual = 0.800172, Final residual = 7.61321e-07, No Iterations 587
linear solve p 1276115
time step continuity errors : sum local = 0.000216278, global = -2.788e-19, cumulative = -1.81298e-19
ExecutionTime = 46.14 s  ClockTime = 47 s

Time = 0.00947368

Courant Number mean: 0.180693 max: 0.99315
DILUPBiCGStab:  Solving for Ux, Initial residual = 0.00415819, Final residual = 6.90547e-05, No Iterations 5
DILUPBiCGStab:  Solving for Uy, Initial residual = 0.0145782, Final residual = 0.000274656, No Iterations 5
DILUPBiCGStab:  Solving for Uz, Initial residual = 0.62638, Final residual = 0.015486, No Iterations 5
linear solve U 853952
[OGL LOG] init_preconditioner : 0 ms
[OGL LOG] solve : 1363 ms
nonecudaGKOBiCGStab:  Solving for p, Initial residual = 0.908234, Final residual = 5.59651e-07, No Iterations 644
linear solve p 1392641
time step continuity errors : sum local = 7.13891e-05, global = 8.28941e-20, cumulative = -9.84041e-20
[OGL LOG] init_preconditioner : 0 ms
[OGL LOG] solve : 1306 ms
nonecudaGKOBiCGStab:  Solving for p, Initial residual = 0.785436, Final residual = 4.88728e-07, No Iterations 616
linear solve p 1333233
time step continuity errors : sum local = 3.5893e-05, global = 2.67734e-20, cumulative = -7.16307e-20
ExecutionTime = 50.23 s  ClockTime = 51 s

Time = 0.0105263

Courant Number mean: 0.181379 max: 0.998359
DILUPBiCGStab:  Solving for Ux, Initial residual = 0.00518369, Final residual = 9.09596e-05, No Iterations 5
DILUPBiCGStab:  Solving for Uy, Initial residual = 0.0181575, Final residual = 0.00032761, No Iterations 5
DILUPBiCGStab:  Solving for Uz, Initial residual = 0.685991, Final residual = 0.0120119, No Iterations 5
linear solve U 853995
[OGL LOG] init_preconditioner : 0 ms
[OGL LOG] solve : 1374 ms
nonecudaGKOBiCGStab:  Solving for p, Initial residual = 0.898962, Final residual = 8.50966e-07, No Iterations 650
linear solve p 1401651
time step continuity errors : sum local = 9.69516e-05, global = 1.46367e-19, cumulative = 7.47361e-20
[OGL LOG] init_preconditioner : 0 ms
[OGL LOG] solve : 1352 ms
nonecudaGKOBiCGStab:  Solving for p, Initial residual = 0.77401, Final residual = 5.24146e-07, No Iterations 638
linear solve p 1378979
time step continuity errors : sum local = 9.18246e-05, global = 1.90921e-19, cumulative = 2.65657e-19
ExecutionTime = 54.36 s  ClockTime = 55 s

End

