/*---------------------------------------------------------------------------*\
  =========                 |
  \\      /  F ield         | OpenFOAM: The Open Source CFD Toolbox
   \\    /   O peration     | Website:  https://openfoam.org
    \\  /    A nd           | Version:  8
     \\/     M anipulation  |
\*---------------------------------------------------------------------------*/
Build  : 8-ef60d22ea792
Exec   : icoFoam
Date   : Sep 15 2021
Time   : 13:07:30
Host   : "uc2n482.localdomain"
PID    : 3625934
I/O    : uncollated
Case   : /pfs/data5/home/kit/scc/nq7776/data/code/OBR/lidDrivenCavity3D/Variation_init/100/Variation_mesh/5/Variation_matrix_solver/BiCGStab_NoPrecond_CUDA/1631704048
nProcs : 1
sigFpe : Enabling floating point exception trapping (FOAM_SIGFPE).
fileModificationChecking : Monitoring run-time modified files using timeStampMaster (fileModificationSkew 10)
allowSystemOperations : Allowing user-supplied system call operations

// * * * * * * * * * * * * * * * * * * * * * * * * * * * * * * * * * * * * * //
Create time

Create mesh for time = 0

Reading transportProperties

Reading field p

Reading field U

Reading/calculating face flux field phi


Starting time loop

Time = 0.02

Courant Number mean: 0.144178 max: 0.344046
DILUPBiCGStab:  Solving for Ux, Initial residual = 0.270102, Final residual = 1.39043e-14, No Iterations 5
DILUPBiCGStab:  Solving for Uy, Initial residual = 0.217087, Final residual = 1.19184e-13, No Iterations 5
DILUPBiCGStab:  Solving for Uz, Initial residual = 0.216079, Final residual = 2.72531e-14, No Iterations 5
linear solve U 201
[OGL LOG] init_host_sparsity_pattern : 0 ms
[OGL LOG] matrix not stored update host matrix
[OGL LOG] update_host_mtx : 0 ms
[OGL LOG] matrix is not yet sorted, compute sorting idxs
[OGL LOG] compute_sort : 0 ms
[OGL LOG] matrix is not yet sorted, sorting host matrix
[OGL LOG] sort_host_mtx_sparsity_pattern : 0 ms
[OGL LOG] sort_host_mtx : 0 ms
[OGL LOG] init_preconditioner : 0 ms
[OGL LOG] solve : 9 ms
nonecudaGKOBiCGStab:  Solving for p, Initial residual = 0.599316, Final residual = 5.86236e-07, No Iterations 29
linear solve p 745268
time step continuity errors : sum local = 9.73223e-08, global = 9.09105e-19, cumulative = 9.09105e-19
[OGL LOG] init_preconditioner : 0 ms
[OGL LOG] solve : 8 ms
nonecudaGKOBiCGStab:  Solving for p, Initial residual = 0.288318, Final residual = 2.99139e-07, No Iterations 29
linear solve p 9048
time step continuity errors : sum local = 2.61672e-08, global = -1.16758e-18, cumulative = -2.58477e-19
ExecutionTime = 0.79 s  ClockTime = 0 s

Time = 0.04

Courant Number mean: 0.143461 max: 0.370002
DILUPBiCGStab:  Solving for Ux, Initial residual = 0.0735164, Final residual = 6.10748e-14, No Iterations 5
DILUPBiCGStab:  Solving for Uy, Initial residual = 0.0725793, Final residual = 1.5875e-13, No Iterations 5
DILUPBiCGStab:  Solving for Uz, Initial residual = 0.174725, Final residual = 2.48545e-13, No Iterations 5
linear solve U 105
[OGL LOG] init_preconditioner : 0 ms
[OGL LOG] solve : 8 ms
nonecudaGKOBiCGStab:  Solving for p, Initial residual = 0.212157, Final residual = 4.38588e-07, No Iterations 27
linear solve p 8237
time step continuity errors : sum local = 0.000264141, global = -6.70215e-19, cumulative = -9.28692e-19
[OGL LOG] init_preconditioner : 0 ms
[OGL LOG] solve : 7 ms
nonecudaGKOBiCGStab:  Solving for p, Initial residual = 0.0746228, Final residual = 2.88004e-07, No Iterations 25
linear solve p 7478
time step continuity errors : sum local = 0.000237028, global = -9.31736e-19, cumulative = -1.86043e-18
ExecutionTime = 0.81 s  ClockTime = 0 s

Time = 0.06

Courant Number mean: 0.145501 max: 0.37555
DILUPBiCGStab:  Solving for Ux, Initial residual = 0.0154118, Final residual = 1.50018e-15, No Iterations 5
DILUPBiCGStab:  Solving for Uy, Initial residual = 0.0201046, Final residual = 2.28392e-14, No Iterations 5
DILUPBiCGStab:  Solving for Uz, Initial residual = 0.0978112, Final residual = 1.16234e-13, No Iterations 5
linear solve U 123
[OGL LOG] init_preconditioner : 0 ms
[OGL LOG] solve : 7 ms
nonecudaGKOBiCGStab:  Solving for p, Initial residual = 0.0170463, Final residual = 5.98242e-07, No Iterations 23
linear solve p 7303
time step continuity errors : sum local = 0.000237552, global = 7.59153e-19, cumulative = -1.10128e-18
[OGL LOG] init_preconditioner : 0 ms
[OGL LOG] solve : 6 ms
nonecudaGKOBiCGStab:  Solving for p, Initial residual = 0.00365078, Final residual = 3.56838e-07, No Iterations 21
linear solve p 6494
time step continuity errors : sum local = 0.000237449, global = -3.65283e-19, cumulative = -1.46656e-18
ExecutionTime = 0.83 s  ClockTime = 0 s

Time = 0.08

Courant Number mean: 0.147029 max: 0.378253
DILUPBiCGStab:  Solving for Ux, Initial residual = 0.00478765, Final residual = 3.38409e-15, No Iterations 5
DILUPBiCGStab:  Solving for Uy, Initial residual = 0.00643041, Final residual = 1.20554e-14, No Iterations 5
DILUPBiCGStab:  Solving for Uz, Initial residual = 0.0284319, Final residual = 4.46115e-14, No Iterations 5
linear solve U 93
[OGL LOG] init_preconditioner : 0 ms
[OGL LOG] solve : 7 ms
nonecudaGKOBiCGStab:  Solving for p, Initial residual = 0.00482272, Final residual = 8.00239e-07, No Iterations 24
linear solve p 7512
time step continuity errors : sum local = 0.000238002, global = -1.51619e-18, cumulative = -2.98275e-18
[OGL LOG] init_preconditioner : 0 ms
[OGL LOG] solve : 6 ms
nonecudaGKOBiCGStab:  Solving for p, Initial residual = 0.00114472, Final residual = 9.05787e-07, No Iterations 22
linear solve p 6763
time step continuity errors : sum local = 0.00023772, global = -1.15196e-18, cumulative = -4.13471e-18
ExecutionTime = 0.84 s  ClockTime = 0 s

Time = 0.1

Courant Number mean: 0.14778 max: 0.379477
DILUPBiCGStab:  Solving for Ux, Initial residual = 0.00171285, Final residual = 8.33158e-16, No Iterations 5
DILUPBiCGStab:  Solving for Uy, Initial residual = 0.00257274, Final residual = 2.24872e-15, No Iterations 5
DILUPBiCGStab:  Solving for Uz, Initial residual = 0.0107908, Final residual = 1.43528e-14, No Iterations 5
linear solve U 99
[OGL LOG] init_preconditioner : 0 ms
[OGL LOG] solve : 6 ms
nonecudaGKOBiCGStab:  Solving for p, Initial residual = 0.00160604, Final residual = 7.64036e-07, No Iterations 22
linear solve p 6707
time step continuity errors : sum local = 0.000237744, global = -1.74912e-18, cumulative = -5.88384e-18
[OGL LOG] init_preconditioner : 0 ms
[OGL LOG] solve : 5 ms
nonecudaGKOBiCGStab:  Solving for p, Initial residual = 0.000368902, Final residual = 6.90952e-07, No Iterations 19
linear solve p 5870
time step continuity errors : sum local = 0.000237708, global = -7.77153e-19, cumulative = -6.66099e-18
ExecutionTime = 0.85 s  ClockTime = 0 s

Time = 0.12

Courant Number mean: 0.148155 max: 0.380093
DILUPBiCGStab:  Solving for Ux, Initial residual = 0.000689496, Final residual = 3.05519e-16, No Iterations 5
DILUPBiCGStab:  Solving for Uy, Initial residual = 0.00109128, Final residual = 3.92456e-16, No Iterations 5
DILUPBiCGStab:  Solving for Uz, Initial residual = 0.00415067, Final residual = 4.96941e-15, No Iterations 5
linear solve U 93
[OGL LOG] init_preconditioner : 0 ms
[OGL LOG] solve : 3 ms
nonecudaGKOBiCGStab:  Solving for p, Initial residual = 0.000678509, Final residual = 9.32382e-07, No Iterations 10
linear solve p 3566
time step continuity errors : sum local = 0.000237706, global = 6.81862e-19, cumulative = -5.97913e-18
[OGL LOG] init_preconditioner : 0 ms
[OGL LOG] solve : 2 ms
nonecudaGKOBiCGStab:  Solving for p, Initial residual = 0.000160178, Final residual = 7.35758e-07, No Iterations 8
linear solve p 3142
time step continuity errors : sum local = 0.000237675, global = 3.66342e-19, cumulative = -5.61278e-18
ExecutionTime = 0.86 s  ClockTime = 0 s

Time = 0.14

Courant Number mean: 0.148339 max: 0.380409
DILUPBiCGStab:  Solving for Ux, Initial residual = 0.000300601, Final residual = 1.45417e-16, No Iterations 5
DILUPBiCGStab:  Solving for Uy, Initial residual = 0.000488388, Final residual = 2.11964e-16, No Iterations 5
DILUPBiCGStab:  Solving for Uz, Initial residual = 0.00167231, Final residual = 1.80956e-15, No Iterations 5
linear solve U 93
[OGL LOG] init_preconditioner : 0 ms
[OGL LOG] solve : 5 ms
nonecudaGKOBiCGStab:  Solving for p, Initial residual = 0.000315392, Final residual = 9.55416e-07, No Iterations 16
linear solve p 5278
time step continuity errors : sum local = 0.0002377, global = 1.15408e-19, cumulative = -5.49738e-18
[OGL LOG] init_preconditioner : 0 ms
[OGL LOG] solve : 2 ms
nonecudaGKOBiCGStab:  Solving for p, Initial residual = 7.17232e-05, Final residual = 9.2126e-07, No Iterations 6
linear solve p 2392
time step continuity errors : sum local = 0.000237678, global = 4.48927e-19, cumulative = -5.04845e-18
ExecutionTime = 0.87 s  ClockTime = 1 s

Time = 0.16

Courant Number mean: 0.148428 max: 0.380568
DILUPBiCGStab:  Solving for Ux, Initial residual = 0.000135465, Final residual = 6.71634e-17, No Iterations 5
DILUPBiCGStab:  Solving for Uy, Initial residual = 0.000228889, Final residual = 1.44821e-16, No Iterations 5
DILUPBiCGStab:  Solving for Uz, Initial residual = 0.000707545, Final residual = 5.95253e-16, No Iterations 5
linear solve U 92
[OGL LOG] init_preconditioner : 0 ms
[OGL LOG] solve : 2 ms
nonecudaGKOBiCGStab:  Solving for p, Initial residual = 0.000149488, Final residual = 9.72611e-07, No Iterations 8
linear solve p 2970
time step continuity errors : sum local = 0.000237689, global = -3.43048e-19, cumulative = -5.3915e-18
[OGL LOG] init_preconditioner : 0 ms
[OGL LOG] solve : 2 ms
nonecudaGKOBiCGStab:  Solving for p, Initial residual = 3.36968e-05, Final residual = 8.4131e-07, No Iterations 5
linear solve p 2241
time step continuity errors : sum local = 0.00023768, global = 3.72694e-19, cumulative = -5.0188e-18
ExecutionTime = 0.87 s  ClockTime = 1 s

Time = 0.18

Courant Number mean: 0.148472 max: 0.380648
DILUPBiCGStab:  Solving for Ux, Initial residual = 6.19546e-05, Final residual = 2.88271e-17, No Iterations 5
DILUPBiCGStab:  Solving for Uy, Initial residual = 0.000108709, Final residual = 7.75376e-17, No Iterations 5
DILUPBiCGStab:  Solving for Uz, Initial residual = 0.000314471, Final residual = 1.8837e-16, No Iterations 5
linear solve U 111
[OGL LOG] init_preconditioner : 0 ms
[OGL LOG] solve : 2 ms
nonecudaGKOBiCGStab:  Solving for p, Initial residual = 7.10015e-05, Final residual = 9.6062e-07, No Iterations 6
linear solve p 2555
time step continuity errors : sum local = 0.000237687, global = -1.0355e-18, cumulative = -6.0543e-18
[OGL LOG] init_preconditioner : 0 ms
[OGL LOG] solve : 1 ms
nonecudaGKOBiCGStab:  Solving for p, Initial residual = 1.59194e-05, Final residual = 9.63512e-07, No Iterations 3
linear solve p 1505
time step continuity errors : sum local = 0.000237679, global = 8.9362e-19, cumulative = -5.16068e-18
ExecutionTime = 0.87 s  ClockTime = 1 s

Time = 0.2

Courant Number mean: 0.148493 max: 0.380687
DILUPBiCGStab:  Solving for Ux, Initial residual = 2.8554e-05, Final residual = 1.12148e-17, No Iterations 5
DILUPBiCGStab:  Solving for Uy, Initial residual = 5.1744e-05, Final residual = 3.68547e-17, No Iterations 5
DILUPBiCGStab:  Solving for Uz, Initial residual = 0.000142925, Final residual = 5.79229e-17, No Iterations 5
linear solve U 98
[OGL LOG] init_preconditioner : 0 ms
[OGL LOG] solve : 1 ms
nonecudaGKOBiCGStab:  Solving for p, Initial residual = 3.36618e-05, Final residual = 9.74493e-07, No Iterations 3
linear solve p 1665
time step continuity errors : sum local = 0.000237687, global = -1.40819e-19, cumulative = -5.3015e-18
[OGL LOG] init_preconditioner : 0 ms
[OGL LOG] solve : 1 ms
nonecudaGKOBiCGStab:  Solving for p, Initial residual = 7.40451e-06, Final residual = 9.57054e-07, No Iterations 2
linear solve p 1230
time step continuity errors : sum local = 0.000237681, global = 7.07273e-19, cumulative = -4.59423e-18
ExecutionTime = 0.88 s  ClockTime = 1 s

End

