/*---------------------------------------------------------------------------*\
  =========                 |
  \\      /  F ield         | OpenFOAM: The Open Source CFD Toolbox
   \\    /   O peration     | Website:  https://openfoam.org
    \\  /    A nd           | Version:  8
     \\/     M anipulation  |
\*---------------------------------------------------------------------------*/
Build  : 8-ef60d22ea792
Exec   : icoFoam
Date   : Sep 15 2021
Time   : 14:03:12
Host   : "uc2n482.localdomain"
PID    : 3639870
I/O    : uncollated
Case   : /pfs/data5/home/kit/scc/nq7776/data/code/OBR/lidDrivenCavity3D/Variation_init/100/Variation_mesh/30/Variation_matrix_solver/IR_NoPrecond_CUDA/Variation_innerReductionFactor/0.1/1631707389
nProcs : 1
sigFpe : Enabling floating point exception trapping (FOAM_SIGFPE).
fileModificationChecking : Monitoring run-time modified files using timeStampMaster (fileModificationSkew 10)
allowSystemOperations : Allowing user-supplied system call operations

// * * * * * * * * * * * * * * * * * * * * * * * * * * * * * * * * * * * * * //
Create time

Create mesh for time = 0

Reading transportProperties

Reading field p

Reading field U

Reading/calculating face flux field phi


Starting time loop

Time = 0.00333333

Courant Number mean: 0.169907 max: 0.893517
DILUPBiCGStab:  Solving for Ux, Initial residual = 0.0911511, Final residual = 3.95829e-06, No Iterations 5
DILUPBiCGStab:  Solving for Uy, Initial residual = 0.158672, Final residual = 5.65407e-06, No Iterations 5
DILUPBiCGStab:  Solving for Uz, Initial residual = 0.266117, Final residual = 9.88141e-06, No Iterations 5
linear solve U 20345
[OGL LOG] init_host_sparsity_pattern : 7 ms
[OGL LOG] matrix not stored update host matrix
[OGL LOG] update_host_mtx : 4 ms
[OGL LOG] matrix is not yet sorted, compute sorting idxs
[OGL LOG] compute_sort : 201 ms
[OGL LOG] matrix is not yet sorted, sorting host matrix
[OGL LOG] sort_host_mtx_sparsity_pattern : 5 ms
[OGL LOG] sort_host_mtx : 2 ms
[OGL LOG] init_preconditioner : 0 ms
[OGL LOG] solve : 41 ms
nonecudaGKOIR:  Solving for p, Initial residual = 0.542954, Final residual = 2.10886e-07, No Iterations 7
linear solve p 1025179
time step continuity errors : sum local = 9.89586e-10, global = 4.74538e-20, cumulative = 4.74538e-20
[OGL LOG] init_preconditioner : 0 ms
[OGL LOG] solve : 35 ms
nonecudaGKOIR:  Solving for p, Initial residual = 0.318921, Final residual = 9.72238e-07, No Iterations 6
linear solve p 36645
time step continuity errors : sum local = 3.16836e-09, global = -7.04552e-20, cumulative = -2.30014e-20
ExecutionTime = 1.25 s  ClockTime = 2 s

Time = 0.00666667

Courant Number mean: 0.173776 max: 0.888266
DILUPBiCGStab:  Solving for Ux, Initial residual = 0.0119482, Final residual = 2.97165e-06, No Iterations 5
DILUPBiCGStab:  Solving for Uy, Initial residual = 0.0223254, Final residual = 3.40195e-06, No Iterations 5
DILUPBiCGStab:  Solving for Uz, Initial residual = 0.0596873, Final residual = 5.25985e-06, No Iterations 5
linear solve U 17360
[OGL LOG] init_preconditioner : 0 ms
[OGL LOG] solve : 35 ms
nonecudaGKOIR:  Solving for p, Initial residual = 0.156723, Final residual = 3.44482e-07, No Iterations 6
linear solve p 36176
time step continuity errors : sum local = 9.92326e-07, global = -4.87273e-20, cumulative = -7.17287e-20
[OGL LOG] init_preconditioner : 0 ms
[OGL LOG] solve : 34 ms
nonecudaGKOIR:  Solving for p, Initial residual = 0.0960163, Final residual = 1.43156e-07, No Iterations 6
linear solve p 35577
time step continuity errors : sum local = 8.86092e-07, global = 1.24949e-19, cumulative = 5.32206e-20
ExecutionTime = 1.34 s  ClockTime = 2 s

Time = 0.01

Courant Number mean: 0.176716 max: 0.888542
DILUPBiCGStab:  Solving for Ux, Initial residual = 0.00409284, Final residual = 6.70337e-07, No Iterations 5
DILUPBiCGStab:  Solving for Uy, Initial residual = 0.00964196, Final residual = 1.18561e-06, No Iterations 5
DILUPBiCGStab:  Solving for Uz, Initial residual = 0.0232405, Final residual = 3.07765e-06, No Iterations 5
linear solve U 17548
[OGL LOG] init_preconditioner : 0 ms
[OGL LOG] solve : 34 ms
nonecudaGKOIR:  Solving for p, Initial residual = 0.0542664, Final residual = 7.26356e-07, No Iterations 5
linear solve p 35315
time step continuity errors : sum local = 8.67982e-07, global = 9.48161e-20, cumulative = 1.48037e-19
[OGL LOG] init_preconditioner : 0 ms
[OGL LOG] solve : 32 ms
nonecudaGKOIR:  Solving for p, Initial residual = 0.0362378, Final residual = 5.60089e-07, No Iterations 5
linear solve p 33863
time step continuity errors : sum local = 8.80716e-07, global = 1.18955e-19, cumulative = 2.66991e-19
ExecutionTime = 1.45 s  ClockTime = 2 s

Time = 0.0133333

Courant Number mean: 0.179156 max: 0.890256
DILUPBiCGStab:  Solving for Ux, Initial residual = 0.00297517, Final residual = 3.25972e-07, No Iterations 5
DILUPBiCGStab:  Solving for Uy, Initial residual = 0.00703805, Final residual = 6.19389e-07, No Iterations 5
DILUPBiCGStab:  Solving for Uz, Initial residual = 0.0128675, Final residual = 1.20041e-06, No Iterations 5
linear solve U 17613
[OGL LOG] init_preconditioner : 0 ms
[OGL LOG] solve : 33 ms
nonecudaGKOIR:  Solving for p, Initial residual = 0.0253454, Final residual = 2.79557e-07, No Iterations 5
linear solve p 34770
time step continuity errors : sum local = 8.83451e-07, global = 1.40773e-19, cumulative = 4.07765e-19
[OGL LOG] init_preconditioner : 0 ms
[OGL LOG] solve : 33 ms
nonecudaGKOIR:  Solving for p, Initial residual = 0.0181708, Final residual = 2.30616e-07, No Iterations 5
linear solve p 34104
time step continuity errors : sum local = 8.81352e-07, global = 6.21649e-20, cumulative = 4.6993e-19
ExecutionTime = 1.54 s  ClockTime = 2 s

Time = 0.0166667

Courant Number mean: 0.181129 max: 0.891457
DILUPBiCGStab:  Solving for Ux, Initial residual = 0.00228114, Final residual = 2.37429e-07, No Iterations 5
DILUPBiCGStab:  Solving for Uy, Initial residual = 0.00534288, Final residual = 4.69097e-07, No Iterations 5
DILUPBiCGStab:  Solving for Uz, Initial residual = 0.00928296, Final residual = 5.65059e-07, No Iterations 5
linear solve U 18269
[OGL LOG] init_preconditioner : 0 ms
[OGL LOG] solve : 34 ms
nonecudaGKOIR:  Solving for p, Initial residual = 0.0142932, Final residual = 1.80173e-07, No Iterations 5
linear solve p 35640
time step continuity errors : sum local = 8.80228e-07, global = 1.31357e-19, cumulative = 6.01287e-19
[OGL LOG] init_preconditioner : 0 ms
[OGL LOG] solve : 34 ms
nonecudaGKOIR:  Solving for p, Initial residual = 0.0104796, Final residual = 1.31625e-07, No Iterations 5
linear solve p 35046
time step continuity errors : sum local = 8.81306e-07, global = -3.79497e-20, cumulative = 5.63337e-19
ExecutionTime = 1.65 s  ClockTime = 2 s

Time = 0.02

Courant Number mean: 0.182723 max: 0.892519
DILUPBiCGStab:  Solving for Ux, Initial residual = 0.0017924, Final residual = 1.43084e-07, No Iterations 5
DILUPBiCGStab:  Solving for Uy, Initial residual = 0.00435025, Final residual = 3.47666e-07, No Iterations 5
DILUPBiCGStab:  Solving for Uz, Initial residual = 0.00736155, Final residual = 4.40515e-07, No Iterations 5
linear solve U 18059
[OGL LOG] init_preconditioner : 0 ms
[OGL LOG] solve : 29 ms
nonecudaGKOIR:  Solving for p, Initial residual = 0.00820874, Final residual = 9.39906e-07, No Iterations 4
linear solve p 30619
time step continuity errors : sum local = 8.81508e-07, global = -3.75957e-20, cumulative = 5.25741e-19
[OGL LOG] init_preconditioner : 0 ms
[OGL LOG] solve : 33 ms
nonecudaGKOIR:  Solving for p, Initial residual = 0.00653686, Final residual = 6.76341e-07, No Iterations 4
linear solve p 34236
time step continuity errors : sum local = 8.8164e-07, global = -2.15687e-21, cumulative = 5.23585e-19
ExecutionTime = 1.74 s  ClockTime = 2 s

Time = 0.0233333

Courant Number mean: 0.184011 max: 0.893289
DILUPBiCGStab:  Solving for Ux, Initial residual = 0.00143715, Final residual = 1.09338e-07, No Iterations 5
DILUPBiCGStab:  Solving for Uy, Initial residual = 0.003479, Final residual = 2.43318e-07, No Iterations 5
DILUPBiCGStab:  Solving for Uz, Initial residual = 0.00575601, Final residual = 2.57737e-07, No Iterations 5
linear solve U 17485
[OGL LOG] init_preconditioner : 0 ms
[OGL LOG] solve : 29 ms
nonecudaGKOIR:  Solving for p, Initial residual = 0.00545498, Final residual = 5.34317e-07, No Iterations 4
linear solve p 30767
time step continuity errors : sum local = 8.81224e-07, global = 1.73811e-21, cumulative = 5.25323e-19
[OGL LOG] init_preconditioner : 0 ms
[OGL LOG] solve : 29 ms
nonecudaGKOIR:  Solving for p, Initial residual = 0.00442717, Final residual = 4.08313e-07, No Iterations 4
linear solve p 30318
time step continuity errors : sum local = 8.81484e-07, global = 8.44593e-20, cumulative = 6.09782e-19
ExecutionTime = 1.83 s  ClockTime = 2 s

Time = 0.0266667

Courant Number mean: 0.185057 max: 0.893926
DILUPBiCGStab:  Solving for Ux, Initial residual = 0.00115895, Final residual = 5.42866e-08, No Iterations 5
DILUPBiCGStab:  Solving for Uy, Initial residual = 0.00285491, Final residual = 1.87637e-07, No Iterations 5
DILUPBiCGStab:  Solving for Uz, Initial residual = 0.00465508, Final residual = 2.32033e-07, No Iterations 5
linear solve U 17600
[OGL LOG] init_preconditioner : 0 ms
[OGL LOG] solve : 29 ms
nonecudaGKOIR:  Solving for p, Initial residual = 0.00385899, Final residual = 3.73894e-07, No Iterations 4
linear solve p 30526
time step continuity errors : sum local = 8.81194e-07, global = 1.59316e-19, cumulative = 7.69098e-19
[OGL LOG] init_preconditioner : 0 ms
[OGL LOG] solve : 29 ms
nonecudaGKOIR:  Solving for p, Initial residual = 0.00327731, Final residual = 2.92772e-07, No Iterations 4
linear solve p 30220
time step continuity errors : sum local = 8.81439e-07, global = -7.90985e-20, cumulative = 6.9e-19
ExecutionTime = 1.92 s  ClockTime = 2 s

Time = 0.03

Courant Number mean: 0.185908 max: 0.894414
DILUPBiCGStab:  Solving for Ux, Initial residual = 0.000942618, Final residual = 5.14162e-08, No Iterations 5
DILUPBiCGStab:  Solving for Uy, Initial residual = 0.00232451, Final residual = 1.37867e-07, No Iterations 5
DILUPBiCGStab:  Solving for Uz, Initial residual = 0.0037064, Final residual = 1.7065e-07, No Iterations 5
linear solve U 17533
[OGL LOG] init_preconditioner : 0 ms
[OGL LOG] solve : 29 ms
nonecudaGKOIR:  Solving for p, Initial residual = 0.0029171, Final residual = 2.50497e-07, No Iterations 4
linear solve p 30182
time step continuity errors : sum local = 8.81254e-07, global = -1.25038e-19, cumulative = 5.64962e-19
[OGL LOG] init_preconditioner : 0 ms
[OGL LOG] solve : 29 ms
nonecudaGKOIR:  Solving for p, Initial residual = 0.00251578, Final residual = 2.2449e-07, No Iterations 4
linear solve p 29881
time step continuity errors : sum local = 8.81429e-07, global = -1.41772e-20, cumulative = 5.50785e-19
ExecutionTime = 2.02 s  ClockTime = 2 s

Time = 0.0333333

Courant Number mean: 0.186602 max: 0.894809
DILUPBiCGStab:  Solving for Ux, Initial residual = 0.000767525, Final residual = 2.95715e-08, No Iterations 5
DILUPBiCGStab:  Solving for Uy, Initial residual = 0.00191399, Final residual = 1.26298e-07, No Iterations 5
DILUPBiCGStab:  Solving for Uz, Initial residual = 0.00299444, Final residual = 1.45612e-07, No Iterations 5
linear solve U 18071
[OGL LOG] init_preconditioner : 0 ms
[OGL LOG] solve : 29 ms
nonecudaGKOIR:  Solving for p, Initial residual = 0.00225615, Final residual = 2.19276e-07, No Iterations 4
linear solve p 30290
time step continuity errors : sum local = 8.81298e-07, global = -8.77573e-20, cumulative = 4.63027e-19
[OGL LOG] init_preconditioner : 0 ms
[OGL LOG] solve : 29 ms
nonecudaGKOIR:  Solving for p, Initial residual = 0.00197964, Final residual = 1.90324e-07, No Iterations 4
linear solve p 29923
time step continuity errors : sum local = 8.81428e-07, global = -7.79021e-20, cumulative = 3.85125e-19
ExecutionTime = 2.1 s  ClockTime = 2 s

End

