/*---------------------------------------------------------------------------*\
  =========                 |
  \\      /  F ield         | OpenFOAM: The Open Source CFD Toolbox
   \\    /   O peration     | Website:  https://openfoam.org
    \\  /    A nd           | Version:  8
     \\/     M anipulation  |
\*---------------------------------------------------------------------------*/
Build  : 8-ef60d22ea792
Exec   : icoFoam
Date   : Sep 15 2021
Time   : 13:27:18
Host   : "uc2n438.localdomain"
PID    : 3541942
I/O    : uncollated
Case   : /pfs/data5/home/kit/scc/nq7776/data/code/OBR/lidDrivenCavity3D/Variation_init/100/Variation_mesh/40/Variation_matrix_solver/BiCGStab_NoPrecond_Serial/1631705235
nProcs : 1
sigFpe : Enabling floating point exception trapping (FOAM_SIGFPE).
fileModificationChecking : Monitoring run-time modified files using timeStampMaster (fileModificationSkew 10)
allowSystemOperations : Allowing user-supplied system call operations

// * * * * * * * * * * * * * * * * * * * * * * * * * * * * * * * * * * * * * //
Create time

Create mesh for time = 0

Reading transportProperties

Reading field p

Reading field U

Reading/calculating face flux field phi


Starting time loop

Time = 0.0025

Courant Number mean: 0.170274 max: 0.898977
DILUPBiCGStab:  Solving for Ux, Initial residual = 0.0777941, Final residual = 5.00153e-06, No Iterations 5
DILUPBiCGStab:  Solving for Uy, Initial residual = 0.123446, Final residual = 1.39078e-05, No Iterations 5
DILUPBiCGStab:  Solving for Uz, Initial residual = 0.127456, Final residual = 2.53141e-05, No Iterations 5
linear solve U 56133
nonePBiCGStab:  Solving for p, Initial residual = 0.406972, Final residual = 8.63321e-07, No Iterations 258
linear solve p 378803
time step continuity errors : sum local = 3.96299e-09, global = 4.18166e-20, cumulative = 4.18166e-20
nonePBiCGStab:  Solving for p, Initial residual = 0.212572, Final residual = 9.85828e-07, No Iterations 252
linear solve p 370178
time step continuity errors : sum local = 3.78978e-09, global = -2.22311e-20, cumulative = 1.95855e-20
ExecutionTime = 1.16 s  ClockTime = 1 s

Time = 0.005

Courant Number mean: 0.173472 max: 0.913614
DILUPBiCGStab:  Solving for Ux, Initial residual = 0.00786489, Final residual = 6.97707e-06, No Iterations 5
DILUPBiCGStab:  Solving for Uy, Initial residual = 0.0156893, Final residual = 1.02411e-05, No Iterations 5
DILUPBiCGStab:  Solving for Uz, Initial residual = 0.0331193, Final residual = 1.8067e-05, No Iterations 5
linear solve U 49435
nonePBiCGStab:  Solving for p, Initial residual = 0.146676, Final residual = 9.50605e-07, No Iterations 256
linear solve p 378579
time step continuity errors : sum local = 3.13271e-09, global = 1.94176e-20, cumulative = 3.90031e-20
nonePBiCGStab:  Solving for p, Initial residual = 0.10479, Final residual = 9.82447e-07, No Iterations 251
linear solve p 370924
time step continuity errors : sum local = 3.34678e-09, global = 5.92151e-20, cumulative = 9.82182e-20
ExecutionTime = 1.99 s  ClockTime = 2 s

Time = 0.0075

Courant Number mean: 0.17602 max: 0.915376
DILUPBiCGStab:  Solving for Ux, Initial residual = 0.00346605, Final residual = 3.30926e-06, No Iterations 5
DILUPBiCGStab:  Solving for Uy, Initial residual = 0.00930097, Final residual = 5.92157e-06, No Iterations 5
DILUPBiCGStab:  Solving for Uz, Initial residual = 0.0179781, Final residual = 9.63429e-06, No Iterations 5
linear solve U 50278
nonePBiCGStab:  Solving for p, Initial residual = 0.0595901, Final residual = 9.85331e-07, No Iterations 248
linear solve p 348354
time step continuity errors : sum local = 2.79896e-09, global = -7.97713e-20, cumulative = 1.84469e-20
nonePBiCGStab:  Solving for p, Initial residual = 0.0435774, Final residual = 7.91564e-07, No Iterations 246
linear solve p 365154
time step continuity errors : sum local = 2.52764e-09, global = 1.17193e-20, cumulative = 3.01662e-20
ExecutionTime = 2.78 s  ClockTime = 3 s

Time = 0.01

Courant Number mean: 0.178224 max: 0.9168
DILUPBiCGStab:  Solving for Ux, Initial residual = 0.00264563, Final residual = 1.07625e-06, No Iterations 5
DILUPBiCGStab:  Solving for Uy, Initial residual = 0.0068849, Final residual = 2.61443e-06, No Iterations 5
DILUPBiCGStab:  Solving for Uz, Initial residual = 0.0130833, Final residual = 5.19749e-06, No Iterations 5
linear solve U 48533
nonePBiCGStab:  Solving for p, Initial residual = 0.0322478, Final residual = 9.34044e-07, No Iterations 115
linear solve p 171182
time step continuity errors : sum local = 1.90507e-09, global = 3.52085e-20, cumulative = 6.53748e-20
nonePBiCGStab:  Solving for p, Initial residual = 0.0246313, Final residual = 9.99144e-07, No Iterations 210
linear solve p 293272
time step continuity errors : sum local = 3.36484e-09, global = -7.78965e-20, cumulative = -1.25217e-20
ExecutionTime = 3.32 s  ClockTime = 3 s

Time = 0.0125

Courant Number mean: 0.180054 max: 0.917665
DILUPBiCGStab:  Solving for Ux, Initial residual = 0.00210848, Final residual = 6.87031e-07, No Iterations 5
DILUPBiCGStab:  Solving for Uy, Initial residual = 0.00541164, Final residual = 9.64035e-07, No Iterations 5
DILUPBiCGStab:  Solving for Uz, Initial residual = 0.00998722, Final residual = 2.79774e-06, No Iterations 5
linear solve U 49217
nonePBiCGStab:  Solving for p, Initial residual = 0.0202262, Final residual = 4.88883e-07, No Iterations 220
linear solve p 324221
time step continuity errors : sum local = 1.20855e-09, global = -2.22572e-20, cumulative = -3.47789e-20
nonePBiCGStab:  Solving for p, Initial residual = 0.015567, Final residual = 9.29366e-07, No Iterations 228
linear solve p 321724
time step continuity errors : sum local = 2.8523e-09, global = 3.97477e-21, cumulative = -3.08042e-20
ExecutionTime = 4.05 s  ClockTime = 4 s

Time = 0.015

Courant Number mean: 0.181609 max: 0.918509
DILUPBiCGStab:  Solving for Ux, Initial residual = 0.0017413, Final residual = 3.59223e-07, No Iterations 5
DILUPBiCGStab:  Solving for Uy, Initial residual = 0.00457746, Final residual = 8.5886e-07, No Iterations 5
DILUPBiCGStab:  Solving for Uz, Initial residual = 0.00838865, Final residual = 2.2996e-06, No Iterations 5
linear solve U 49687
nonePBiCGStab:  Solving for p, Initial residual = 0.0124408, Final residual = 9.96497e-07, No Iterations 225
linear solve p 331888
time step continuity errors : sum local = 3.29551e-09, global = 7.92553e-21, cumulative = -2.28786e-20
nonePBiCGStab:  Solving for p, Initial residual = 0.00997775, Final residual = 9.58753e-07, No Iterations 212
linear solve p 313428
time step continuity errors : sum local = 3.2069e-09, global = 7.91676e-20, cumulative = 5.6289e-20
ExecutionTime = 4.78 s  ClockTime = 5 s

Time = 0.0175

Courant Number mean: 0.182919 max: 0.919116
DILUPBiCGStab:  Solving for Ux, Initial residual = 0.00145798, Final residual = 2.83042e-07, No Iterations 5
DILUPBiCGStab:  Solving for Uy, Initial residual = 0.00377757, Final residual = 5.38933e-07, No Iterations 5
DILUPBiCGStab:  Solving for Uz, Initial residual = 0.00673772, Final residual = 1.40205e-06, No Iterations 5
linear solve U 50778
nonePBiCGStab:  Solving for p, Initial residual = 0.00874127, Final residual = 9.92696e-07, No Iterations 114
linear solve p 171859
time step continuity errors : sum local = 1.92516e-09, global = 3.1005e-20, cumulative = 8.7294e-20
nonePBiCGStab:  Solving for p, Initial residual = 0.00701819, Final residual = 9.94355e-07, No Iterations 117
linear solve p 173151
time step continuity errors : sum local = 3.33797e-09, global = 8.66598e-21, cumulative = 9.596e-20
ExecutionTime = 5.2 s  ClockTime = 5 s

Time = 0.02

Courant Number mean: 0.184033 max: 0.919668
DILUPBiCGStab:  Solving for Ux, Initial residual = 0.0012271, Final residual = 1.57442e-07, No Iterations 5
DILUPBiCGStab:  Solving for Uy, Initial residual = 0.00323387, Final residual = 5.24442e-07, No Iterations 5
DILUPBiCGStab:  Solving for Uz, Initial residual = 0.00575477, Final residual = 1.20839e-06, No Iterations 5
linear solve U 49886
nonePBiCGStab:  Solving for p, Initial residual = 0.00586071, Final residual = 9.92113e-07, No Iterations 115
linear solve p 169659
time step continuity errors : sum local = 3.34608e-09, global = -1.56123e-20, cumulative = 8.03476e-20
nonePBiCGStab:  Solving for p, Initial residual = 0.0049212, Final residual = 9.83798e-07, No Iterations 107
linear solve p 150383
time step continuity errors : sum local = 2.57917e-09, global = 7.23416e-21, cumulative = 8.75818e-20
ExecutionTime = 5.6 s  ClockTime = 5 s

Time = 0.0225

Courant Number mean: 0.184978 max: 0.920092
DILUPBiCGStab:  Solving for Ux, Initial residual = 0.00103997, Final residual = 1.36296e-07, No Iterations 5
DILUPBiCGStab:  Solving for Uy, Initial residual = 0.00272717, Final residual = 3.76136e-07, No Iterations 5
DILUPBiCGStab:  Solving for Uz, Initial residual = 0.00473529, Final residual = 9.2562e-07, No Iterations 5
linear solve U 49683
nonePBiCGStab:  Solving for p, Initial residual = 0.0044647, Final residual = 9.07993e-07, No Iterations 108
linear solve p 159239
time step continuity errors : sum local = 1.54115e-09, global = -8.01298e-20, cumulative = 7.45205e-21
nonePBiCGStab:  Solving for p, Initial residual = 0.0037997, Final residual = 9.77086e-07, No Iterations 107
linear solve p 153889
time step continuity errors : sum local = 2.76128e-09, global = -9.20166e-20, cumulative = -8.45646e-20
ExecutionTime = 6 s  ClockTime = 6 s

Time = 0.025

Courant Number mean: 0.185785 max: 0.920464
DILUPBiCGStab:  Solving for Ux, Initial residual = 0.000883769, Final residual = 9.18101e-08, No Iterations 5
DILUPBiCGStab:  Solving for Uy, Initial residual = 0.00234129, Final residual = 4.81198e-07, No Iterations 5
DILUPBiCGStab:  Solving for Uz, Initial residual = 0.00403527, Final residual = 7.76792e-07, No Iterations 5
linear solve U 50239
nonePBiCGStab:  Solving for p, Initial residual = 0.0032837, Final residual = 9.99963e-07, No Iterations 101
linear solve p 148751
time step continuity errors : sum local = 3.18491e-09, global = -2.40585e-20, cumulative = -1.08623e-19
nonePBiCGStab:  Solving for p, Initial residual = 0.0028902, Final residual = 4.46245e-07, No Iterations 107
linear solve p 158927
time step continuity errors : sum local = 1.21056e-09, global = -1.22792e-19, cumulative = -2.31415e-19
ExecutionTime = 6.39 s  ClockTime = 6 s

End

