/*---------------------------------------------------------------------------*\
  =========                 |
  \\      /  F ield         | OpenFOAM: The Open Source CFD Toolbox
   \\    /   O peration     | Website:  https://openfoam.org
    \\  /    A nd           | Version:  8
     \\/     M anipulation  |
\*---------------------------------------------------------------------------*/
Build  : 8-ef60d22ea792
Exec   : icoFoam
Date   : Sep 15 2021
Time   : 13:36:03
Host   : "uc2n482.localdomain"
PID    : 3633742
I/O    : uncollated
Case   : /pfs/data5/home/kit/scc/nq7776/data/code/OBR/lidDrivenCavity3D/Variation_init/100/Variation_mesh/25/Variation_matrix_solver/CG_BJ_CUDA/Variation_maxBlockSize/4/1631705761
nProcs : 1
sigFpe : Enabling floating point exception trapping (FOAM_SIGFPE).
fileModificationChecking : Monitoring run-time modified files using timeStampMaster (fileModificationSkew 10)
allowSystemOperations : Allowing user-supplied system call operations

// * * * * * * * * * * * * * * * * * * * * * * * * * * * * * * * * * * * * * //
Create time

Create mesh for time = 0

Reading transportProperties

Reading field p

Reading field U

Reading/calculating face flux field phi


Starting time loop

Time = 0.004

Courant Number mean: 0.169656 max: 0.889609
DILUPBiCGStab:  Solving for Ux, Initial residual = 0.143151, Final residual = 1.76454e-06, No Iterations 5
DILUPBiCGStab:  Solving for Uy, Initial residual = 0.204592, Final residual = 1.77082e-06, No Iterations 5
DILUPBiCGStab:  Solving for Uz, Initial residual = 0.476047, Final residual = 3.97645e-06, No Iterations 5
linear solve U 11301
[OGL LOG] init_host_sparsity_pattern : 4 ms
[OGL LOG] matrix not stored update host matrix
[OGL LOG] update_host_mtx : 2 ms
[OGL LOG] matrix is not yet sorted, compute sorting idxs
[OGL LOG] compute_sort : 111 ms
[OGL LOG] matrix is not yet sorted, sorting host matrix
[OGL LOG] sort_host_mtx_sparsity_pattern : 2 ms
[OGL LOG] sort_host_mtx : 1 ms
[OGL LOG] init_preconditioner : 2 ms
[OGL LOG] solve : 26 ms
BJcudaGKOCG:  Solving for p, Initial residual = 0.578841, Final residual = 9.00463e-07, No Iterations 188
linear solve p 903540
time step continuity errors : sum local = 6.36503e-09, global = -1.62159e-19, cumulative = -1.62159e-19
[OGL LOG] init_preconditioner : 0 ms
[OGL LOG] solve : 26 ms
BJcudaGKOCG:  Solving for p, Initial residual = 0.27554, Final residual = 9.42784e-07, No Iterations 188
linear solve p 26639
time step continuity errors : sum local = 4.13222e-09, global = 5.49465e-20, cumulative = -1.07213e-19
ExecutionTime = 1.03 s  ClockTime = 1 s

Time = 0.008

Courant Number mean: 0.173868 max: 0.868145
DILUPBiCGStab:  Solving for Ux, Initial residual = 0.0151888, Final residual = 1.22594e-06, No Iterations 5
DILUPBiCGStab:  Solving for Uy, Initial residual = 0.0247675, Final residual = 1.8084e-06, No Iterations 5
DILUPBiCGStab:  Solving for Uz, Initial residual = 0.0887898, Final residual = 3.83169e-06, No Iterations 5
linear solve U 9944
[OGL LOG] init_preconditioner : 0 ms
[OGL LOG] solve : 24 ms
BJcudaGKOCG:  Solving for p, Initial residual = 0.17531, Final residual = 9.67213e-07, No Iterations 183
linear solve p 24984
time step continuity errors : sum local = 3.28491e-06, global = -5.86587e-20, cumulative = -1.65872e-19
[OGL LOG] init_preconditioner : 0 ms
[OGL LOG] solve : 24 ms
BJcudaGKOCG:  Solving for p, Initial residual = 0.103192, Final residual = 7.76678e-07, No Iterations 182
linear solve p 24757
time step continuity errors : sum local = 3.05891e-06, global = 3.92249e-20, cumulative = -1.26647e-19
ExecutionTime = 1.09 s  ClockTime = 1 s

Time = 0.012

Courant Number mean: 0.177048 max: 0.867817
DILUPBiCGStab:  Solving for Ux, Initial residual = 0.00469193, Final residual = 2.96384e-07, No Iterations 5
DILUPBiCGStab:  Solving for Uy, Initial residual = 0.00998768, Final residual = 4.81045e-07, No Iterations 5
DILUPBiCGStab:  Solving for Uz, Initial residual = 0.03138, Final residual = 1.53396e-06, No Iterations 5
linear solve U 9882
[OGL LOG] init_preconditioner : 0 ms
[OGL LOG] solve : 22 ms
BJcudaGKOCG:  Solving for p, Initial residual = 0.049194, Final residual = 9.92669e-07, No Iterations 161
linear solve p 22605
time step continuity errors : sum local = 3.01842e-06, global = -8.26585e-20, cumulative = -2.09305e-19
[OGL LOG] init_preconditioner : 0 ms
[OGL LOG] solve : 21 ms
BJcudaGKOCG:  Solving for p, Initial residual = 0.0326513, Final residual = 9.12023e-07, No Iterations 158
linear solve p 21653
time step continuity errors : sum local = 3.04437e-06, global = 5.176e-20, cumulative = -1.57545e-19
ExecutionTime = 1.16 s  ClockTime = 2 s

Time = 0.016

Courant Number mean: 0.179565 max: 0.869322
DILUPBiCGStab:  Solving for Ux, Initial residual = 0.00314077, Final residual = 1.45474e-07, No Iterations 5
DILUPBiCGStab:  Solving for Uy, Initial residual = 0.0068196, Final residual = 2.61088e-07, No Iterations 5
DILUPBiCGStab:  Solving for Uz, Initial residual = 0.0130969, Final residual = 5.59207e-07, No Iterations 5
linear solve U 9631
[OGL LOG] init_preconditioner : 0 ms
[OGL LOG] solve : 22 ms
BJcudaGKOCG:  Solving for p, Initial residual = 0.0194247, Final residual = 9.61675e-07, No Iterations 161
linear solve p 22463
time step continuity errors : sum local = 3.04928e-06, global = -1.84044e-19, cumulative = -3.4159e-19
[OGL LOG] init_preconditioner : 0 ms
[OGL LOG] solve : 21 ms
BJcudaGKOCG:  Solving for p, Initial residual = 0.0140345, Final residual = 9.92881e-07, No Iterations 159
linear solve p 21777
time step continuity errors : sum local = 3.04691e-06, global = -6.22305e-20, cumulative = -4.0382e-19
ExecutionTime = 1.22 s  ClockTime = 2 s

Time = 0.02

Courant Number mean: 0.181574 max: 0.870815
DILUPBiCGStab:  Solving for Ux, Initial residual = 0.00232737, Final residual = 9.81723e-08, No Iterations 5
DILUPBiCGStab:  Solving for Uy, Initial residual = 0.00517727, Final residual = 1.34682e-07, No Iterations 5
DILUPBiCGStab:  Solving for Uz, Initial residual = 0.00910438, Final residual = 2.65766e-07, No Iterations 5
linear solve U 9946
[OGL LOG] init_preconditioner : 0 ms
[OGL LOG] solve : 20 ms
BJcudaGKOCG:  Solving for p, Initial residual = 0.0100106, Final residual = 9.68575e-07, No Iterations 154
linear solve p 21292
time step continuity errors : sum local = 3.04288e-06, global = 1.27526e-19, cumulative = -2.76294e-19
[OGL LOG] init_preconditioner : 0 ms
[OGL LOG] solve : 20 ms
BJcudaGKOCG:  Solving for p, Initial residual = 0.00751266, Final residual = 9.84138e-07, No Iterations 151
linear solve p 20772
time step continuity errors : sum local = 3.04635e-06, global = 1.11863e-19, cumulative = -1.64431e-19
ExecutionTime = 1.27 s  ClockTime = 2 s

Time = 0.024

Courant Number mean: 0.183143 max: 0.871972
DILUPBiCGStab:  Solving for Ux, Initial residual = 0.00177561, Final residual = 5.93696e-08, No Iterations 5
DILUPBiCGStab:  Solving for Uy, Initial residual = 0.00408244, Final residual = 1.08525e-07, No Iterations 5
DILUPBiCGStab:  Solving for Uz, Initial residual = 0.00674807, Final residual = 1.92952e-07, No Iterations 5
linear solve U 9942
[OGL LOG] init_preconditioner : 0 ms
[OGL LOG] solve : 23 ms
BJcudaGKOCG:  Solving for p, Initial residual = 0.00619529, Final residual = 9.79883e-07, No Iterations 147
linear solve p 24169
time step continuity errors : sum local = 3.04475e-06, global = -1.27017e-19, cumulative = -2.91447e-19
[OGL LOG] init_preconditioner : 0 ms
[OGL LOG] solve : 19 ms
BJcudaGKOCG:  Solving for p, Initial residual = 0.00497294, Final residual = 9.97074e-07, No Iterations 144
linear solve p 20215
time step continuity errors : sum local = 3.04641e-06, global = -6.8517e-20, cumulative = -3.59964e-19
ExecutionTime = 1.34 s  ClockTime = 2 s

Time = 0.028

Courant Number mean: 0.184376 max: 0.872837
DILUPBiCGStab:  Solving for Ux, Initial residual = 0.00137932, Final residual = 4.35627e-08, No Iterations 5
DILUPBiCGStab:  Solving for Uy, Initial residual = 0.00321237, Final residual = 3.22409e-08, No Iterations 5
DILUPBiCGStab:  Solving for Uz, Initial residual = 0.00511215, Final residual = 9.31231e-08, No Iterations 5
linear solve U 9797
[OGL LOG] init_preconditioner : 0 ms
[OGL LOG] solve : 19 ms
BJcudaGKOCG:  Solving for p, Initial residual = 0.003968, Final residual = 9.53905e-07, No Iterations 142
linear solve p 19765
time step continuity errors : sum local = 3.04478e-06, global = -1.27756e-19, cumulative = -4.87721e-19
[OGL LOG] init_preconditioner : 0 ms
[OGL LOG] solve : 18 ms
BJcudaGKOCG:  Solving for p, Initial residual = 0.0032929, Final residual = 9.97903e-07, No Iterations 140
linear solve p 19337
time step continuity errors : sum local = 3.0462e-06, global = 1.4207e-19, cumulative = -3.45651e-19
ExecutionTime = 1.39 s  ClockTime = 2 s

Time = 0.032

Courant Number mean: 0.185344 max: 0.873502
DILUPBiCGStab:  Solving for Ux, Initial residual = 0.00107785, Final residual = 2.90635e-08, No Iterations 5
DILUPBiCGStab:  Solving for Uy, Initial residual = 0.00254848, Final residual = 2.92107e-08, No Iterations 5
DILUPBiCGStab:  Solving for Uz, Initial residual = 0.00394621, Final residual = 8.11722e-08, No Iterations 5
linear solve U 9677
[OGL LOG] init_preconditioner : 0 ms
[OGL LOG] solve : 19 ms
BJcudaGKOCG:  Solving for p, Initial residual = 0.00303516, Final residual = 9.8814e-07, No Iterations 139
linear solve p 19616
time step continuity errors : sum local = 3.04539e-06, global = -3.48226e-20, cumulative = -3.80474e-19
[OGL LOG] init_preconditioner : 0 ms
[OGL LOG] solve : 18 ms
BJcudaGKOCG:  Solving for p, Initial residual = 0.00256141, Final residual = 9.97414e-07, No Iterations 137
linear solve p 19179
time step continuity errors : sum local = 3.04639e-06, global = 3.05561e-21, cumulative = -3.77418e-19
ExecutionTime = 1.44 s  ClockTime = 2 s

Time = 0.036

Courant Number mean: 0.186107 max: 0.874008
DILUPBiCGStab:  Solving for Ux, Initial residual = 0.000848608, Final residual = 2.27055e-08, No Iterations 5
DILUPBiCGStab:  Solving for Uy, Initial residual = 0.00202247, Final residual = 1.52507e-08, No Iterations 5
DILUPBiCGStab:  Solving for Uz, Initial residual = 0.00304204, Final residual = 5.6724e-08, No Iterations 5
linear solve U 9599
[OGL LOG] init_preconditioner : 0 ms
[OGL LOG] solve : 17 ms
BJcudaGKOCG:  Solving for p, Initial residual = 0.00227426, Final residual = 9.83492e-07, No Iterations 133
linear solve p 18383
time step continuity errors : sum local = 3.04557e-06, global = -8.11067e-20, cumulative = -4.58525e-19
[OGL LOG] init_preconditioner : 0 ms
[OGL LOG] solve : 18 ms
BJcudaGKOCG:  Solving for p, Initial residual = 0.00193394, Final residual = 8.87484e-07, No Iterations 132
linear solve p 18499
time step continuity errors : sum local = 3.04625e-06, global = 2.34952e-20, cumulative = -4.35029e-19
ExecutionTime = 1.49 s  ClockTime = 2 s

Time = 0.04

Courant Number mean: 0.186709 max: 0.874399
DILUPBiCGStab:  Solving for Ux, Initial residual = 0.000670131, Final residual = 1.66245e-08, No Iterations 5
DILUPBiCGStab:  Solving for Uy, Initial residual = 0.00160984, Final residual = 1.26185e-08, No Iterations 5
DILUPBiCGStab:  Solving for Uz, Initial residual = 0.00235977, Final residual = 4.61165e-08, No Iterations 5
linear solve U 9615
[OGL LOG] init_preconditioner : 0 ms
[OGL LOG] solve : 17 ms
BJcudaGKOCG:  Solving for p, Initial residual = 0.00178927, Final residual = 8.60001e-07, No Iterations 130
linear solve p 18065
time step continuity errors : sum local = 3.04572e-06, global = 2.59735e-21, cumulative = -4.32432e-19
[OGL LOG] init_preconditioner : 0 ms
[OGL LOG] solve : 18 ms
BJcudaGKOCG:  Solving for p, Initial residual = 0.00153008, Final residual = 9.93946e-07, No Iterations 128
linear solve p 18621
time step continuity errors : sum local = 3.04636e-06, global = 1.31712e-19, cumulative = -3.0072e-19
ExecutionTime = 1.55 s  ClockTime = 2 s

End

