/*---------------------------------------------------------------------------*\
  =========                 |
  \\      /  F ield         | OpenFOAM: The Open Source CFD Toolbox
   \\    /   O peration     | Website:  https://openfoam.org
    \\  /    A nd           | Version:  8
     \\/     M anipulation  |
\*---------------------------------------------------------------------------*/
Build  : 8-ef60d22ea792
Exec   : icoFoam
Date   : Sep 15 2021
Time   : 13:08:14
Host   : "uc2n482.localdomain"
PID    : 3627071
I/O    : uncollated
Case   : /pfs/data5/home/kit/scc/nq7776/data/code/OBR/lidDrivenCavity3D/Variation_init/100/Variation_mesh/15/Variation_matrix_solver/BiCGStab_NoPrecond_CUDA/1631704091
nProcs : 1
sigFpe : Enabling floating point exception trapping (FOAM_SIGFPE).
fileModificationChecking : Monitoring run-time modified files using timeStampMaster (fileModificationSkew 10)
allowSystemOperations : Allowing user-supplied system call operations

// * * * * * * * * * * * * * * * * * * * * * * * * * * * * * * * * * * * * * //
Create time

Create mesh for time = 0

Reading transportProperties

Reading field p

Reading field U

Reading/calculating face flux field phi


Starting time loop

Time = 0.00666667

Courant Number mean: 0.166422 max: 0.762393
DILUPBiCGStab:  Solving for Ux, Initial residual = 0.0879544, Final residual = 2.84443e-08, No Iterations 5
DILUPBiCGStab:  Solving for Uy, Initial residual = 0.126984, Final residual = 8.95339e-08, No Iterations 5
DILUPBiCGStab:  Solving for Uz, Initial residual = 0.181802, Final residual = 6.74481e-08, No Iterations 5
linear solve U 2487
[OGL LOG] init_host_sparsity_pattern : 0 ms
[OGL LOG] matrix not stored update host matrix
[OGL LOG] update_host_mtx : 0 ms
[OGL LOG] matrix is not yet sorted, compute sorting idxs
[OGL LOG] compute_sort : 20 ms
[OGL LOG] matrix is not yet sorted, sorting host matrix
[OGL LOG] sort_host_mtx_sparsity_pattern : 0 ms
[OGL LOG] sort_host_mtx : 0 ms
[OGL LOG] init_preconditioner : 0 ms
[OGL LOG] solve : 29 ms
nonecudaGKOBiCGStab:  Solving for p, Initial residual = 0.516107, Final residual = 9.70861e-07, No Iterations 106
linear solve p 796597
time step continuity errors : sum local = 2.67478e-08, global = -3.22828e-20, cumulative = -3.22828e-20
[OGL LOG] init_preconditioner : 0 ms
[OGL LOG] solve : 29 ms
nonecudaGKOBiCGStab:  Solving for p, Initial residual = 0.271041, Final residual = 5.94904e-07, No Iterations 108
linear solve p 29377
time step continuity errors : sum local = 1.12831e-08, global = 2.36911e-20, cumulative = -8.59165e-21
ExecutionTime = 0.87 s  ClockTime = 0 s

Time = 0.0133333

Courant Number mean: 0.171844 max: 0.7773
DILUPBiCGStab:  Solving for Ux, Initial residual = 0.02109, Final residual = 3.35071e-08, No Iterations 5
DILUPBiCGStab:  Solving for Uy, Initial residual = 0.0295001, Final residual = 2.90372e-08, No Iterations 5
DILUPBiCGStab:  Solving for Uz, Initial residual = 0.0731974, Final residual = 9.64265e-08, No Iterations 5
linear solve U 1917
[OGL LOG] init_preconditioner : 0 ms
[OGL LOG] solve : 28 ms
nonecudaGKOBiCGStab:  Solving for p, Initial residual = 0.145576, Final residual = 7.98469e-07, No Iterations 107
linear solve p 28835
time step continuity errors : sum local = 1.32955e-05, global = 4.94323e-20, cumulative = 4.08407e-20
[OGL LOG] init_preconditioner : 0 ms
[OGL LOG] solve : 28 ms
nonecudaGKOBiCGStab:  Solving for p, Initial residual = 0.0851777, Final residual = 7.20241e-07, No Iterations 105
linear solve p 28681
time step continuity errors : sum local = 1.20473e-05, global = -1.7973e-19, cumulative = -1.38889e-19
ExecutionTime = 0.93 s  ClockTime = 0 s

Time = 0.02

Courant Number mean: 0.175686 max: 0.781333
DILUPBiCGStab:  Solving for Ux, Initial residual = 0.00575059, Final residual = 1.22878e-08, No Iterations 5
DILUPBiCGStab:  Solving for Uy, Initial residual = 0.0110696, Final residual = 1.81441e-08, No Iterations 5
DILUPBiCGStab:  Solving for Uz, Initial residual = 0.0201028, Final residual = 1.3054e-08, No Iterations 5
linear solve U 1864
[OGL LOG] init_preconditioner : 0 ms
[OGL LOG] solve : 24 ms
nonecudaGKOBiCGStab:  Solving for p, Initial residual = 0.0224926, Final residual = 3.00972e-07, No Iterations 91
linear solve p 24762
time step continuity errors : sum local = 1.18789e-05, global = 3.98833e-19, cumulative = 2.59944e-19
[OGL LOG] init_preconditioner : 0 ms
[OGL LOG] solve : 23 ms
nonecudaGKOBiCGStab:  Solving for p, Initial residual = 0.0139101, Final residual = 8.75002e-07, No Iterations 87
linear solve p 23591
time step continuity errors : sum local = 1.19801e-05, global = 1.8595e-19, cumulative = 4.45894e-19
ExecutionTime = 0.98 s  ClockTime = 1 s

Time = 0.0266667

Courant Number mean: 0.178552 max: 0.784986
DILUPBiCGStab:  Solving for Ux, Initial residual = 0.00342671, Final residual = 5.12842e-09, No Iterations 5
DILUPBiCGStab:  Solving for Uy, Initial residual = 0.0065848, Final residual = 1.15476e-08, No Iterations 5
DILUPBiCGStab:  Solving for Uz, Initial residual = 0.00949356, Final residual = 9.96316e-09, No Iterations 5
linear solve U 1827
[OGL LOG] init_preconditioner : 0 ms
[OGL LOG] solve : 22 ms
nonecudaGKOBiCGStab:  Solving for p, Initial residual = 0.0101059, Final residual = 9.91442e-07, No Iterations 83
linear solve p 22500
time step continuity errors : sum local = 1.20007e-05, global = 1.97795e-19, cumulative = 6.4369e-19
[OGL LOG] init_preconditioner : 0 ms
[OGL LOG] solve : 23 ms
nonecudaGKOBiCGStab:  Solving for p, Initial residual = 0.00719289, Final residual = 8.04671e-07, No Iterations 85
linear solve p 23701
time step continuity errors : sum local = 1.19873e-05, global = -2.48816e-19, cumulative = 3.94874e-19
ExecutionTime = 1.03 s  ClockTime = 1 s

Time = 0.0333333

Courant Number mean: 0.180502 max: 0.787346
DILUPBiCGStab:  Solving for Ux, Initial residual = 0.00221441, Final residual = 1.91295e-09, No Iterations 5
DILUPBiCGStab:  Solving for Uy, Initial residual = 0.00448604, Final residual = 2.88973e-09, No Iterations 5
DILUPBiCGStab:  Solving for Uz, Initial residual = 0.00628706, Final residual = 3.61383e-09, No Iterations 5
linear solve U 1983
[OGL LOG] init_preconditioner : 0 ms
[OGL LOG] solve : 21 ms
nonecudaGKOBiCGStab:  Solving for p, Initial residual = 0.00453456, Final residual = 5.95425e-08, No Iterations 79
linear solve p 21527
time step continuity errors : sum local = 1.1976e-05, global = 1.31114e-19, cumulative = 5.25988e-19
[OGL LOG] init_preconditioner : 0 ms
[OGL LOG] solve : 20 ms
nonecudaGKOBiCGStab:  Solving for p, Initial residual = 0.00321517, Final residual = 8.67347e-07, No Iterations 76
linear solve p 20697
time step continuity errors : sum local = 1.19876e-05, global = -2.19567e-19, cumulative = 3.06421e-19
ExecutionTime = 1.07 s  ClockTime = 1 s

Time = 0.04

Courant Number mean: 0.181845 max: 0.788821
DILUPBiCGStab:  Solving for Ux, Initial residual = 0.0015212, Final residual = 8.4787e-10, No Iterations 5
DILUPBiCGStab:  Solving for Uy, Initial residual = 0.00314131, Final residual = 2.02397e-09, No Iterations 5
DILUPBiCGStab:  Solving for Uz, Initial residual = 0.00421751, Final residual = 2.21046e-09, No Iterations 5
linear solve U 1826
[OGL LOG] init_preconditioner : 0 ms
[OGL LOG] solve : 20 ms
nonecudaGKOBiCGStab:  Solving for p, Initial residual = 0.00332339, Final residual = 6.32655e-07, No Iterations 74
linear solve p 20363
time step continuity errors : sum local = 1.19844e-05, global = 1.68392e-19, cumulative = 4.74813e-19
[OGL LOG] init_preconditioner : 0 ms
[OGL LOG] solve : 21 ms
nonecudaGKOBiCGStab:  Solving for p, Initial residual = 0.00243672, Final residual = 6.09873e-07, No Iterations 76
linear solve p 21354
time step continuity errors : sum local = 1.19844e-05, global = -6.26451e-20, cumulative = 4.12168e-19
ExecutionTime = 1.12 s  ClockTime = 1 s

Time = 0.0466667

Courant Number mean: 0.182778 max: 0.78982
DILUPBiCGStab:  Solving for Ux, Initial residual = 0.00104827, Final residual = 5.72312e-10, No Iterations 5
DILUPBiCGStab:  Solving for Uy, Initial residual = 0.00220042, Final residual = 1.09266e-09, No Iterations 5
DILUPBiCGStab:  Solving for Uz, Initial residual = 0.00292412, Final residual = 1.59128e-09, No Iterations 5
linear solve U 1903
[OGL LOG] init_preconditioner : 0 ms
[OGL LOG] solve : 21 ms
nonecudaGKOBiCGStab:  Solving for p, Initial residual = 0.00216621, Final residual = 8.23477e-07, No Iterations 78
linear solve p 21412
time step continuity errors : sum local = 1.19869e-05, global = -3.86701e-19, cumulative = 2.54661e-20
[OGL LOG] init_preconditioner : 0 ms
[OGL LOG] solve : 20 ms
nonecudaGKOBiCGStab:  Solving for p, Initial residual = 0.00157819, Final residual = 1.23109e-07, No Iterations 77
linear solve p 21053
time step continuity errors : sum local = 1.19791e-05, global = 3.944e-20, cumulative = 6.49061e-20
ExecutionTime = 1.17 s  ClockTime = 1 s

Time = 0.0533333

Courant Number mean: 0.183428 max: 0.790487
DILUPBiCGStab:  Solving for Ux, Initial residual = 0.000730439, Final residual = 3.53983e-10, No Iterations 5
DILUPBiCGStab:  Solving for Uy, Initial residual = 0.00154936, Final residual = 6.37476e-10, No Iterations 5
DILUPBiCGStab:  Solving for Uz, Initial residual = 0.00201558, Final residual = 1.10858e-09, No Iterations 5
linear solve U 1825
[OGL LOG] init_preconditioner : 0 ms
[OGL LOG] solve : 18 ms
nonecudaGKOBiCGStab:  Solving for p, Initial residual = 0.00152744, Final residual = 9.83025e-07, No Iterations 70
linear solve p 19002
time step continuity errors : sum local = 1.19889e-05, global = -2.85896e-19, cumulative = -2.2099e-19
[OGL LOG] init_preconditioner : 0 ms
[OGL LOG] solve : 10 ms
nonecudaGKOBiCGStab:  Solving for p, Initial residual = 0.00111693, Final residual = 9.98455e-07, No Iterations 37
linear solve p 10742
time step continuity errors : sum local = 1.19885e-05, global = -1.69605e-19, cumulative = -3.90595e-19
ExecutionTime = 1.2 s  ClockTime = 1 s

Time = 0.06

Courant Number mean: 0.183881 max: 0.790942
DILUPBiCGStab:  Solving for Ux, Initial residual = 0.000511896, Final residual = 2.42264e-10, No Iterations 5
DILUPBiCGStab:  Solving for Uy, Initial residual = 0.00109363, Final residual = 3.83111e-10, No Iterations 5
DILUPBiCGStab:  Solving for Uz, Initial residual = 0.00139549, Final residual = 1.17686e-09, No Iterations 5
linear solve U 1867
[OGL LOG] init_preconditioner : 0 ms
[OGL LOG] solve : 9 ms
nonecudaGKOBiCGStab:  Solving for p, Initial residual = 0.00105838, Final residual = 9.42412e-07, No Iterations 33
linear solve p 9736
time step continuity errors : sum local = 1.19823e-05, global = -1.23305e-20, cumulative = -4.02925e-19
[OGL LOG] init_preconditioner : 0 ms
[OGL LOG] solve : 10 ms
nonecudaGKOBiCGStab:  Solving for p, Initial residual = 0.000773259, Final residual = 9.7957e-07, No Iterations 36
linear solve p 10449
time step continuity errors : sum local = 1.19882e-05, global = 2.56558e-19, cumulative = -1.46367e-19
ExecutionTime = 1.22 s  ClockTime = 1 s

Time = 0.0666667

Courant Number mean: 0.184199 max: 0.791252
DILUPBiCGStab:  Solving for Ux, Initial residual = 0.000360273, Final residual = 1.62509e-10, No Iterations 5
DILUPBiCGStab:  Solving for Uy, Initial residual = 0.000770956, Final residual = 2.42153e-10, No Iterations 5
DILUPBiCGStab:  Solving for Uz, Initial residual = 0.00096556, Final residual = 4.78237e-10, No Iterations 5
linear solve U 1916
[OGL LOG] init_preconditioner : 0 ms
[OGL LOG] solve : 8 ms
nonecudaGKOBiCGStab:  Solving for p, Initial residual = 0.000741243, Final residual = 9.67274e-07, No Iterations 30
linear solve p 8591
time step continuity errors : sum local = 1.19806e-05, global = 6.13217e-21, cumulative = -1.40235e-19
[OGL LOG] init_preconditioner : 0 ms
[OGL LOG] solve : 7 ms
nonecudaGKOBiCGStab:  Solving for p, Initial residual = 0.000541913, Final residual = 9.35539e-07, No Iterations 28
linear solve p 8135
time step continuity errors : sum local = 1.1985e-05, global = 1.9817e-19, cumulative = 5.79357e-20
ExecutionTime = 1.24 s  ClockTime = 1 s

End

