/*---------------------------------------------------------------------------*\
  =========                 |
  \\      /  F ield         | OpenFOAM: The Open Source CFD Toolbox
   \\    /   O peration     | Website:  https://openfoam.org
    \\  /    A nd           | Version:  8
     \\/     M anipulation  |
\*---------------------------------------------------------------------------*/
Build  : 8-ef60d22ea792
Exec   : icoFoam
Date   : Sep 15 2021
Time   : 14:59:30
Host   : "uc2n482.localdomain"
PID    : 3657728
I/O    : uncollated
Case   : /pfs/data5/home/kit/scc/nq7776/data/code/OBR/lidDrivenCavity3D/Variation_init/100/Variation_mesh/10/Variation_matrix_solver/BiCGStab_BJ_CUDA/1631710767
nProcs : 1
sigFpe : Enabling floating point exception trapping (FOAM_SIGFPE).
fileModificationChecking : Monitoring run-time modified files using timeStampMaster (fileModificationSkew 10)
allowSystemOperations : Allowing user-supplied system call operations

// * * * * * * * * * * * * * * * * * * * * * * * * * * * * * * * * * * * * * //
Create time

Create mesh for time = 0

Reading transportProperties

Reading field p

Reading field U

Reading/calculating face flux field phi


Starting time loop

Time = 0.01

Courant Number mean: 0.164367 max: 0.687382
DILUPBiCGStab:  Solving for Ux, Initial residual = 0.143876, Final residual = 4.90416e-10, No Iterations 5
DILUPBiCGStab:  Solving for Uy, Initial residual = 0.166383, Final residual = 9.49899e-10, No Iterations 5
DILUPBiCGStab:  Solving for Uz, Initial residual = 0.331866, Final residual = 6.25857e-09, No Iterations 5
linear solve U 791
[OGL LOG] init_host_sparsity_pattern : 0 ms
[OGL LOG] matrix not stored update host matrix
[OGL LOG] update_host_mtx : 0 ms
[OGL LOG] matrix is not yet sorted, compute sorting idxs
[OGL LOG] compute_sort : 5 ms
[OGL LOG] matrix is not yet sorted, sorting host matrix
[OGL LOG] sort_host_mtx_sparsity_pattern : 0 ms
[OGL LOG] sort_host_mtx : 0 ms
[OGL LOG] init_preconditioner : 0 ms
[OGL LOG] solve : 13 ms
BJcudaGKOBiCGStab:  Solving for p, Initial residual = 0.61492, Final residual = 7.90741e-07, No Iterations 47
linear solve p 758724
time step continuity errors : sum local = 2.46266e-08, global = -9.7566e-21, cumulative = -9.7566e-21
[OGL LOG] init_preconditioner : 0 ms
[OGL LOG] solve : 10 ms
BJcudaGKOBiCGStab:  Solving for p, Initial residual = 0.306168, Final residual = 9.44698e-07, No Iterations 38
linear solve p 11153
time step continuity errors : sum local = 3.03828e-08, global = -6.20168e-20, cumulative = -7.17734e-20
ExecutionTime = 0.8 s  ClockTime = 0 s

Time = 0.02

Courant Number mean: 0.168824 max: 0.675339
DILUPBiCGStab:  Solving for Ux, Initial residual = 0.0355471, Final residual = 1.50455e-09, No Iterations 5
DILUPBiCGStab:  Solving for Uy, Initial residual = 0.040035, Final residual = 6.3722e-10, No Iterations 5
DILUPBiCGStab:  Solving for Uz, Initial residual = 0.103387, Final residual = 1.83732e-09, No Iterations 5
linear solve U 604
[OGL LOG] init_preconditioner : 0 ms
[OGL LOG] solve : 10 ms
BJcudaGKOBiCGStab:  Solving for p, Initial residual = 0.153463, Final residual = 6.84234e-07, No Iterations 38
linear solve p 11043
time step continuity errors : sum local = 2.73827e-05, global = 2.35052e-19, cumulative = 1.63278e-19
[OGL LOG] init_preconditioner : 0 ms
[OGL LOG] solve : 11 ms
BJcudaGKOBiCGStab:  Solving for p, Initial residual = 0.0682485, Final residual = 5.36095e-07, No Iterations 41
linear solve p 11515
time step continuity errors : sum local = 2.45613e-05, global = -5.11926e-19, cumulative = -3.48647e-19
ExecutionTime = 0.82 s  ClockTime = 0 s

Time = 0.03

Courant Number mean: 0.172125 max: 0.67452
DILUPBiCGStab:  Solving for Ux, Initial residual = 0.00786277, Final residual = 3.41271e-10, No Iterations 5
DILUPBiCGStab:  Solving for Uy, Initial residual = 0.0117523, Final residual = 1.81742e-10, No Iterations 5
DILUPBiCGStab:  Solving for Uz, Initial residual = 0.0329131, Final residual = 7.78623e-10, No Iterations 5
linear solve U 576
[OGL LOG] init_preconditioner : 0 ms
[OGL LOG] solve : 9 ms
BJcudaGKOBiCGStab:  Solving for p, Initial residual = 0.0151579, Final residual = 5.73936e-07, No Iterations 35
linear solve p 9869
time step continuity errors : sum local = 2.43576e-05, global = -4.18223e-20, cumulative = -3.9047e-19
[OGL LOG] init_preconditioner : 0 ms
[OGL LOG] solve : 8 ms
BJcudaGKOBiCGStab:  Solving for p, Initial residual = 0.00703208, Final residual = 7.02841e-07, No Iterations 31
linear solve p 8804
time step continuity errors : sum local = 2.4403e-05, global = -9.76338e-19, cumulative = -1.36681e-18
ExecutionTime = 0.84 s  ClockTime = 0 s

Time = 0.04

Courant Number mean: 0.174438 max: 0.676488
DILUPBiCGStab:  Solving for Ux, Initial residual = 0.00346869, Final residual = 8.5459e-11, No Iterations 5
DILUPBiCGStab:  Solving for Uy, Initial residual = 0.00573831, Final residual = 8.3058e-11, No Iterations 5
DILUPBiCGStab:  Solving for Uz, Initial residual = 0.0109268, Final residual = 1.72164e-10, No Iterations 5
linear solve U 575
[OGL LOG] init_preconditioner : 0 ms
[OGL LOG] solve : 10 ms
BJcudaGKOBiCGStab:  Solving for p, Initial residual = 0.00633013, Final residual = 7.56539e-07, No Iterations 37
linear solve p 10661
time step continuity errors : sum local = 2.44206e-05, global = 3.7415e-19, cumulative = -9.92657e-19
[OGL LOG] init_preconditioner : 0 ms
[OGL LOG] solve : 10 ms
BJcudaGKOBiCGStab:  Solving for p, Initial residual = 0.00352084, Final residual = 9.86913e-07, No Iterations 36
linear solve p 10555
time step continuity errors : sum local = 2.43962e-05, global = -2.56757e-20, cumulative = -1.01833e-18
ExecutionTime = 0.86 s  ClockTime = 1 s

Time = 0.05

Courant Number mean: 0.17593 max: 0.67828
DILUPBiCGStab:  Solving for Ux, Initial residual = 0.00187339, Final residual = 4.14342e-11, No Iterations 5
DILUPBiCGStab:  Solving for Uy, Initial residual = 0.00338883, Final residual = 1.90779e-11, No Iterations 5
DILUPBiCGStab:  Solving for Uz, Initial residual = 0.00559643, Final residual = 8.36995e-11, No Iterations 5
linear solve U 570
[OGL LOG] init_preconditioner : 0 ms
[OGL LOG] solve : 10 ms
BJcudaGKOBiCGStab:  Solving for p, Initial residual = 0.00308492, Final residual = 8.50516e-07, No Iterations 35
linear solve p 10191
time step continuity errors : sum local = 2.43846e-05, global = -4.5131e-20, cumulative = -1.06346e-18
[OGL LOG] init_preconditioner : 0 ms
[OGL LOG] solve : 9 ms
BJcudaGKOBiCGStab:  Solving for p, Initial residual = 0.00176179, Final residual = 9.45133e-07, No Iterations 34
linear solve p 9929
time step continuity errors : sum local = 2.43892e-05, global = 4.12201e-19, cumulative = -6.51263e-19
ExecutionTime = 0.89 s  ClockTime = 1 s

Time = 0.06

Courant Number mean: 0.176864 max: 0.679468
DILUPBiCGStab:  Solving for Ux, Initial residual = 0.00111332, Final residual = 1.55442e-11, No Iterations 5
DILUPBiCGStab:  Solving for Uy, Initial residual = 0.0020947, Final residual = 1.0156e-11, No Iterations 5
DILUPBiCGStab:  Solving for Uz, Initial residual = 0.00302033, Final residual = 5.94813e-11, No Iterations 5
linear solve U 576
[OGL LOG] init_preconditioner : 0 ms
[OGL LOG] solve : 10 ms
BJcudaGKOBiCGStab:  Solving for p, Initial residual = 0.00188561, Final residual = 9.35731e-07, No Iterations 34
linear solve p 10232
time step continuity errors : sum local = 2.43772e-05, global = 3.22402e-19, cumulative = -3.28861e-19
[OGL LOG] init_preconditioner : 0 ms
[OGL LOG] solve : 9 ms
BJcudaGKOBiCGStab:  Solving for p, Initial residual = 0.00108178, Final residual = 6.01006e-07, No Iterations 33
linear solve p 9620
time step continuity errors : sum local = 2.43833e-05, global = -2.50801e-19, cumulative = -5.79662e-19
ExecutionTime = 0.91 s  ClockTime = 1 s

Time = 0.07

Courant Number mean: 0.177444 max: 0.680222
DILUPBiCGStab:  Solving for Ux, Initial residual = 0.000680301, Final residual = 7.14791e-12, No Iterations 5
DILUPBiCGStab:  Solving for Uy, Initial residual = 0.00129777, Final residual = 6.08905e-12, No Iterations 5
DILUPBiCGStab:  Solving for Uz, Initial residual = 0.00176962, Final residual = 3.95593e-11, No Iterations 5
linear solve U 574
[OGL LOG] init_preconditioner : 0 ms
[OGL LOG] solve : 9 ms
BJcudaGKOBiCGStab:  Solving for p, Initial residual = 0.00114992, Final residual = 8.63509e-07, No Iterations 33
linear solve p 9640
time step continuity errors : sum local = 2.43746e-05, global = -1.81847e-19, cumulative = -7.6151e-19
[OGL LOG] init_preconditioner : 0 ms
[OGL LOG] solve : 9 ms
BJcudaGKOBiCGStab:  Solving for p, Initial residual = 0.000655559, Final residual = 8.30586e-07, No Iterations 32
linear solve p 9641
time step continuity errors : sum local = 2.43816e-05, global = 6.88082e-19, cumulative = -7.34278e-20
ExecutionTime = 0.93 s  ClockTime = 1 s

Time = 0.08

Courant Number mean: 0.177803 max: 0.680688
DILUPBiCGStab:  Solving for Ux, Initial residual = 0.000418597, Final residual = 3.54705e-12, No Iterations 5
DILUPBiCGStab:  Solving for Uy, Initial residual = 0.000805853, Final residual = 3.68584e-12, No Iterations 5
DILUPBiCGStab:  Solving for Uz, Initial residual = 0.00106511, Final residual = 2.85268e-11, No Iterations 5
linear solve U 587
[OGL LOG] init_preconditioner : 0 ms
[OGL LOG] solve : 9 ms
BJcudaGKOBiCGStab:  Solving for p, Initial residual = 0.000707355, Final residual = 5.63328e-07, No Iterations 33
linear solve p 9960
time step continuity errors : sum local = 2.43739e-05, global = -1.22456e-19, cumulative = -1.95884e-19
[OGL LOG] init_preconditioner : 0 ms
[OGL LOG] solve : 9 ms
BJcudaGKOBiCGStab:  Solving for p, Initial residual = 0.000403333, Final residual = 9.6356e-07, No Iterations 32
linear solve p 9233
time step continuity errors : sum local = 2.43805e-05, global = 3.66342e-19, cumulative = 1.70458e-19
ExecutionTime = 0.95 s  ClockTime = 1 s

Time = 0.09

Courant Number mean: 0.178025 max: 0.680973
DILUPBiCGStab:  Solving for Ux, Initial residual = 0.000258468, Final residual = 1.79802e-12, No Iterations 5
DILUPBiCGStab:  Solving for Uy, Initial residual = 0.000500238, Final residual = 2.24194e-12, No Iterations 5
DILUPBiCGStab:  Solving for Uz, Initial residual = 0.000649042, Final residual = 1.86262e-11, No Iterations 5
linear solve U 575
[OGL LOG] init_preconditioner : 0 ms
[OGL LOG] solve : 9 ms
BJcudaGKOBiCGStab:  Solving for p, Initial residual = 0.00043566, Final residual = 7.64902e-07, No Iterations 32
linear solve p 9474
time step continuity errors : sum local = 2.43729e-05, global = 5.82335e-21, cumulative = 1.76281e-19
[OGL LOG] init_preconditioner : 0 ms
[OGL LOG] solve : 3 ms
BJcudaGKOBiCGStab:  Solving for p, Initial residual = 0.00024811, Final residual = 9.72881e-07, No Iterations 11
linear solve p 3753
time step continuity errors : sum local = 2.43878e-05, global = 2.64168e-19, cumulative = 4.4045e-19
ExecutionTime = 0.97 s  ClockTime = 1 s

Time = 0.1

Courant Number mean: 0.178161 max: 0.681146
DILUPBiCGStab:  Solving for Ux, Initial residual = 0.000159698, Final residual = 8.4156e-13, No Iterations 5
DILUPBiCGStab:  Solving for Uy, Initial residual = 0.000310973, Final residual = 1.37904e-12, No Iterations 5
DILUPBiCGStab:  Solving for Uz, Initial residual = 0.00039652, Final residual = 1.34113e-11, No Iterations 5
linear solve U 686
[OGL LOG] init_preconditioner : 0 ms
[OGL LOG] solve : 3 ms
BJcudaGKOBiCGStab:  Solving for p, Initial residual = 0.000268598, Final residual = 9.79e-07, No Iterations 11
linear solve p 3959
time step continuity errors : sum local = 2.43856e-05, global = 2.70587e-19, cumulative = 7.11037e-19
[OGL LOG] init_preconditioner : 0 ms
[OGL LOG] solve : 3 ms
BJcudaGKOBiCGStab:  Solving for p, Initial residual = 0.000152754, Final residual = 9.58862e-07, No Iterations 10
linear solve p 3390
time step continuity errors : sum local = 2.43884e-05, global = -7.90123e-20, cumulative = 6.32025e-19
ExecutionTime = 0.98 s  ClockTime = 1 s

End

