/*---------------------------------------------------------------------------*\
  =========                 |
  \\      /  F ield         | OpenFOAM: The Open Source CFD Toolbox
   \\    /   O peration     | Website:  https://openfoam.org
    \\  /    A nd           | Version:  8
     \\/     M anipulation  |
\*---------------------------------------------------------------------------*/
Build  : 8-ef60d22ea792
Exec   : icoFoam
Date   : Sep 15 2021
Time   : 13:07:57
Host   : "uc2n482.localdomain"
PID    : 3626665
I/O    : uncollated
Case   : /pfs/data5/home/kit/scc/nq7776/data/code/OBR/lidDrivenCavity3D/Variation_init/100/Variation_mesh/15/Variation_matrix_solver/CG_BJ_CUDA/Variation_maxBlockSize/8/1631704075
nProcs : 1
sigFpe : Enabling floating point exception trapping (FOAM_SIGFPE).
fileModificationChecking : Monitoring run-time modified files using timeStampMaster (fileModificationSkew 10)
allowSystemOperations : Allowing user-supplied system call operations

// * * * * * * * * * * * * * * * * * * * * * * * * * * * * * * * * * * * * * //
Create time

Create mesh for time = 0

Reading transportProperties

Reading field p

Reading field U

Reading/calculating face flux field phi


Starting time loop

Time = 0.00666667

Courant Number mean: 0.166422 max: 0.762393
DILUPBiCGStab:  Solving for Ux, Initial residual = 0.0879544, Final residual = 2.84443e-08, No Iterations 5
DILUPBiCGStab:  Solving for Uy, Initial residual = 0.126984, Final residual = 8.95339e-08, No Iterations 5
DILUPBiCGStab:  Solving for Uz, Initial residual = 0.181802, Final residual = 6.74481e-08, No Iterations 5
linear solve U 2514
[OGL LOG] init_host_sparsity_pattern : 0 ms
[OGL LOG] matrix not stored update host matrix
[OGL LOG] update_host_mtx : 0 ms
[OGL LOG] matrix is not yet sorted, compute sorting idxs
[OGL LOG] compute_sort : 20 ms
[OGL LOG] matrix is not yet sorted, sorting host matrix
[OGL LOG] sort_host_mtx_sparsity_pattern : 0 ms
[OGL LOG] sort_host_mtx : 0 ms
[OGL LOG] init_preconditioner : 0 ms
[OGL LOG] solve : 15 ms
BJcudaGKOCG:  Solving for p, Initial residual = 0.516107, Final residual = 8.93109e-07, No Iterations 107
linear solve p 775612
time step continuity errors : sum local = 1.23034e-08, global = 1.43533e-19, cumulative = 1.43533e-19
[OGL LOG] init_preconditioner : 0 ms
[OGL LOG] solve : 14 ms
BJcudaGKOCG:  Solving for p, Initial residual = 0.271044, Final residual = 9.16228e-07, No Iterations 105
linear solve p 14801
time step continuity errors : sum local = 8.69112e-09, global = 3.15008e-19, cumulative = 4.58541e-19
ExecutionTime = 0.83 s  ClockTime = 1 s

Time = 0.0133333

Courant Number mean: 0.171844 max: 0.7773
DILUPBiCGStab:  Solving for Ux, Initial residual = 0.021091, Final residual = 3.34888e-08, No Iterations 5
DILUPBiCGStab:  Solving for Uy, Initial residual = 0.0294978, Final residual = 2.91079e-08, No Iterations 5
DILUPBiCGStab:  Solving for Uz, Initial residual = 0.0732083, Final residual = 9.4897e-08, No Iterations 5
linear solve U 1924
[OGL LOG] init_preconditioner : 0 ms
[OGL LOG] solve : 13 ms
BJcudaGKOCG:  Solving for p, Initial residual = 0.145577, Final residual = 9.92506e-07, No Iterations 100
linear solve p 13834
time step continuity errors : sum local = 1.32888e-05, global = 9.86882e-20, cumulative = 5.5723e-19
[OGL LOG] init_preconditioner : 0 ms
[OGL LOG] solve : 13 ms
BJcudaGKOCG:  Solving for p, Initial residual = 0.0851829, Final residual = 9.19232e-07, No Iterations 98
linear solve p 13490
time step continuity errors : sum local = 1.20402e-05, global = -2.13082e-20, cumulative = 5.35921e-19
ExecutionTime = 0.87 s  ClockTime = 1 s

Time = 0.02

Courant Number mean: 0.175686 max: 0.781333
DILUPBiCGStab:  Solving for Ux, Initial residual = 0.00574943, Final residual = 1.22876e-08, No Iterations 5
DILUPBiCGStab:  Solving for Uy, Initial residual = 0.0110708, Final residual = 1.8131e-08, No Iterations 5
DILUPBiCGStab:  Solving for Uz, Initial residual = 0.020085, Final residual = 1.31345e-08, No Iterations 5
linear solve U 1912
[OGL LOG] init_preconditioner : 0 ms
[OGL LOG] solve : 13 ms
BJcudaGKOCG:  Solving for p, Initial residual = 0.0224861, Final residual = 9.87957e-07, No Iterations 99
linear solve p 13911
time step continuity errors : sum local = 1.18774e-05, global = -3.7029e-19, cumulative = 1.65631e-19
[OGL LOG] init_preconditioner : 0 ms
[OGL LOG] solve : 13 ms
BJcudaGKOCG:  Solving for p, Initial residual = 0.0139042, Final residual = 9.39727e-07, No Iterations 97
linear solve p 13811
time step continuity errors : sum local = 1.19753e-05, global = 2.97785e-20, cumulative = 1.9541e-19
ExecutionTime = 0.9 s  ClockTime = 1 s

Time = 0.0266667

Courant Number mean: 0.178552 max: 0.784986
DILUPBiCGStab:  Solving for Ux, Initial residual = 0.00342738, Final residual = 5.12969e-09, No Iterations 5
DILUPBiCGStab:  Solving for Uy, Initial residual = 0.00658327, Final residual = 1.155e-08, No Iterations 5
DILUPBiCGStab:  Solving for Uz, Initial residual = 0.00949951, Final residual = 9.51471e-09, No Iterations 5
linear solve U 1900
[OGL LOG] init_preconditioner : 0 ms
[OGL LOG] solve : 12 ms
BJcudaGKOCG:  Solving for p, Initial residual = 0.0101079, Final residual = 8.50194e-07, No Iterations 93
linear solve p 12937
time step continuity errors : sum local = 1.199e-05, global = -5.46447e-19, cumulative = -3.51037e-19
[OGL LOG] init_preconditioner : 0 ms
[OGL LOG] solve : 12 ms
BJcudaGKOCG:  Solving for p, Initial residual = 0.00719435, Final residual = 9.53423e-07, No Iterations 91
linear solve p 12817
time step continuity errors : sum local = 1.19804e-05, global = -4.97632e-19, cumulative = -8.48669e-19
ExecutionTime = 0.93 s  ClockTime = 1 s

Time = 0.0333333

Courant Number mean: 0.180502 max: 0.787346
DILUPBiCGStab:  Solving for Ux, Initial residual = 0.00221544, Final residual = 1.91301e-09, No Iterations 5
DILUPBiCGStab:  Solving for Uy, Initial residual = 0.00448405, Final residual = 2.89446e-09, No Iterations 5
DILUPBiCGStab:  Solving for Uz, Initial residual = 0.00628835, Final residual = 3.21445e-09, No Iterations 5
linear solve U 1844
[OGL LOG] init_preconditioner : 0 ms
[OGL LOG] solve : 12 ms
BJcudaGKOCG:  Solving for p, Initial residual = 0.00453629, Final residual = 8.59027e-07, No Iterations 90
linear solve p 12896
time step continuity errors : sum local = 1.19768e-05, global = -4.10723e-20, cumulative = -8.89741e-19
[OGL LOG] init_preconditioner : 0 ms
[OGL LOG] solve : 11 ms
BJcudaGKOCG:  Solving for p, Initial residual = 0.00321747, Final residual = 9.47124e-07, No Iterations 84
linear solve p 11675
time step continuity errors : sum local = 1.19796e-05, global = 1.4029e-19, cumulative = -7.49451e-19
ExecutionTime = 0.96 s  ClockTime = 1 s

Time = 0.04

Courant Number mean: 0.181846 max: 0.788821
DILUPBiCGStab:  Solving for Ux, Initial residual = 0.00152158, Final residual = 8.48303e-10, No Iterations 5
DILUPBiCGStab:  Solving for Uy, Initial residual = 0.00314061, Final residual = 2.02357e-09, No Iterations 5
DILUPBiCGStab:  Solving for Uz, Initial residual = 0.00421461, Final residual = 2.0465e-09, No Iterations 5
linear solve U 1806
[OGL LOG] init_preconditioner : 0 ms
[OGL LOG] solve : 11 ms
BJcudaGKOCG:  Solving for p, Initial residual = 0.00332446, Final residual = 8.66097e-07, No Iterations 84
linear solve p 11835
time step continuity errors : sum local = 1.19784e-05, global = -2.24331e-20, cumulative = -7.71884e-19
[OGL LOG] init_preconditioner : 0 ms
[OGL LOG] solve : 11 ms
BJcudaGKOCG:  Solving for p, Initial residual = 0.00243739, Final residual = 8.21718e-07, No Iterations 83
linear solve p 11706
time step continuity errors : sum local = 1.1979e-05, global = -6.2226e-20, cumulative = -8.3411e-19
ExecutionTime = 0.98 s  ClockTime = 1 s

Time = 0.0466667

Courant Number mean: 0.182778 max: 0.78982
DILUPBiCGStab:  Solving for Ux, Initial residual = 0.00104886, Final residual = 5.72111e-10, No Iterations 5
DILUPBiCGStab:  Solving for Uy, Initial residual = 0.00219921, Final residual = 1.09367e-09, No Iterations 5
DILUPBiCGStab:  Solving for Uz, Initial residual = 0.00292448, Final residual = 1.33376e-09, No Iterations 5
linear solve U 2047
[OGL LOG] init_preconditioner : 0 ms
[OGL LOG] solve : 11 ms
BJcudaGKOCG:  Solving for p, Initial residual = 0.00216719, Final residual = 9.01794e-07, No Iterations 82
linear solve p 11522
time step continuity errors : sum local = 1.19787e-05, global = 1.91244e-20, cumulative = -8.14986e-19
[OGL LOG] init_preconditioner : 0 ms
[OGL LOG] solve : 10 ms
BJcudaGKOCG:  Solving for p, Initial residual = 0.00157915, Final residual = 9.38131e-07, No Iterations 80
linear solve p 11071
time step continuity errors : sum local = 1.19791e-05, global = 4.00135e-20, cumulative = -7.74972e-19
ExecutionTime = 1.01 s  ClockTime = 1 s

Time = 0.0533333

Courant Number mean: 0.183428 max: 0.790487
DILUPBiCGStab:  Solving for Ux, Initial residual = 0.000730817, Final residual = 3.54064e-10, No Iterations 5
DILUPBiCGStab:  Solving for Uy, Initial residual = 0.00154855, Final residual = 6.38442e-10, No Iterations 5
DILUPBiCGStab:  Solving for Uz, Initial residual = 0.00201571, Final residual = 9.25068e-10, No Iterations 5
linear solve U 1892
[OGL LOG] init_preconditioner : 0 ms
[OGL LOG] solve : 10 ms
BJcudaGKOCG:  Solving for p, Initial residual = 0.00152809, Final residual = 8.33774e-07, No Iterations 80
linear solve p 11145
time step continuity errors : sum local = 1.19788e-05, global = -6.63068e-20, cumulative = -8.41279e-19
[OGL LOG] init_preconditioner : 0 ms
[OGL LOG] solve : 10 ms
BJcudaGKOCG:  Solving for p, Initial residual = 0.00111756, Final residual = 9.70494e-07, No Iterations 77
linear solve p 11004
time step continuity errors : sum local = 1.19791e-05, global = -1.75362e-20, cumulative = -8.58815e-19
ExecutionTime = 1.03 s  ClockTime = 1 s

Time = 0.06

Courant Number mean: 0.183882 max: 0.790942
DILUPBiCGStab:  Solving for Ux, Initial residual = 0.000512675, Final residual = 2.40562e-10, No Iterations 5
DILUPBiCGStab:  Solving for Uy, Initial residual = 0.00109138, Final residual = 3.82493e-10, No Iterations 5
DILUPBiCGStab:  Solving for Uz, Initial residual = 0.00139206, Final residual = 6.42291e-10, No Iterations 5
linear solve U 1992
[OGL LOG] init_preconditioner : 0 ms
[OGL LOG] solve : 10 ms
BJcudaGKOCG:  Solving for p, Initial residual = 0.00105837, Final residual = 9.67127e-07, No Iterations 76
linear solve p 10622
time step continuity errors : sum local = 1.19791e-05, global = -1.35878e-20, cumulative = -8.72403e-19
[OGL LOG] init_preconditioner : 0 ms
[OGL LOG] solve : 10 ms
BJcudaGKOCG:  Solving for p, Initial residual = 0.000774202, Final residual = 9.18265e-07, No Iterations 73
linear solve p 10279
time step continuity errors : sum local = 1.19791e-05, global = -5.1969e-20, cumulative = -9.24372e-19
ExecutionTime = 1.06 s  ClockTime = 1 s

Time = 0.0666667

Courant Number mean: 0.184199 max: 0.791252
DILUPBiCGStab:  Solving for Ux, Initial residual = 0.00036049, Final residual = 1.62658e-10, No Iterations 5
DILUPBiCGStab:  Solving for Uy, Initial residual = 0.000770486, Final residual = 2.42837e-10, No Iterations 5
DILUPBiCGStab:  Solving for Uz, Initial residual = 0.000960548, Final residual = 4.42993e-10, No Iterations 5
linear solve U 1818
[OGL LOG] init_preconditioner : 0 ms
[OGL LOG] solve : 9 ms
BJcudaGKOCG:  Solving for p, Initial residual = 0.000741246, Final residual = 8.00855e-07, No Iterations 73
linear solve p 10147
time step continuity errors : sum local = 1.19784e-05, global = -2.81374e-19, cumulative = -1.20575e-18
[OGL LOG] init_preconditioner : 0 ms
[OGL LOG] solve : 9 ms
BJcudaGKOCG:  Solving for p, Initial residual = 0.000541623, Final residual = 9.34172e-07, No Iterations 71
linear solve p 9965
time step continuity errors : sum local = 1.19796e-05, global = 2.68734e-19, cumulative = -9.37012e-19
ExecutionTime = 1.08 s  ClockTime = 1 s

End

