/*---------------------------------------------------------------------------*\
  =========                 |
  \\      /  F ield         | OpenFOAM: The Open Source CFD Toolbox
   \\    /   O peration     | Website:  https://openfoam.org
    \\  /    A nd           | Version:  8
     \\/     M anipulation  |
\*---------------------------------------------------------------------------*/
Build  : 8-ef60d22ea792
Exec   : icoFoam
Date   : Sep 15 2021
Time   : 15:01:53
Host   : "uc2n482.localdomain"
PID    : 3659029
I/O    : uncollated
Case   : /pfs/data5/home/kit/scc/nq7776/data/code/OBR/lidDrivenCavity3D/Variation_init/100/Variation_mesh/50/Variation_matrix_solver/IR_NoPrecond_CUDA/Variation_innerReductionFactor/0.001/1631710907
nProcs : 1
sigFpe : Enabling floating point exception trapping (FOAM_SIGFPE).
fileModificationChecking : Monitoring run-time modified files using timeStampMaster (fileModificationSkew 10)
allowSystemOperations : Allowing user-supplied system call operations

// * * * * * * * * * * * * * * * * * * * * * * * * * * * * * * * * * * * * * //
Create time

Create mesh for time = 0

Reading transportProperties

Reading field p

Reading field U

Reading/calculating face flux field phi


Starting time loop

Time = 0.002

Courant Number mean: 0.171832 max: 0.950949
DILUPBiCGStab:  Solving for Ux, Initial residual = 0.170437, Final residual = 6.82397e-05, No Iterations 5
DILUPBiCGStab:  Solving for Uy, Initial residual = 0.34992, Final residual = 0.000142663, No Iterations 5
DILUPBiCGStab:  Solving for Uz, Initial residual = 0.557699, Final residual = 0.000189983, No Iterations 5
linear solve U 117916
[OGL LOG] init_host_sparsity_pattern : 35 ms
[OGL LOG] matrix not stored update host matrix
[OGL LOG] update_host_mtx : 20 ms
[OGL LOG] matrix is not yet sorted, compute sorting idxs
[OGL LOG] compute_sort : 1038 ms
[OGL LOG] matrix is not yet sorted, sorting host matrix
[OGL LOG] sort_host_mtx_sparsity_pattern : 25 ms
[OGL LOG] sort_host_mtx : 14 ms
[OGL LOG] init_preconditioner : 0 ms
[OGL LOG] solve : 79 ms
nonecudaGKOIR:  Solving for p, Initial residual = 0.678275, Final residual = 3.4995e-09, No Iterations 3
linear solve p 1983298
time step continuity errors : sum local = 1.11683e-11, global = 2.21744e-21, cumulative = 2.21744e-21
[OGL LOG] init_preconditioner : 0 ms
[OGL LOG] solve : 80 ms
nonecudaGKOIR:  Solving for p, Initial residual = 0.413581, Final residual = 1.88639e-09, No Iterations 3
linear solve p 84630
time step continuity errors : sum local = 2.91264e-12, global = 2.67155e-21, cumulative = 4.88899e-21
ExecutionTime = 2.82 s  ClockTime = 3 s

Time = 0.004

Courant Number mean: 0.174856 max: 0.932415
DILUPBiCGStab:  Solving for Ux, Initial residual = 0.0115943, Final residual = 2.67524e-05, No Iterations 5
DILUPBiCGStab:  Solving for Uy, Initial residual = 0.0268869, Final residual = 4.92437e-05, No Iterations 5
DILUPBiCGStab:  Solving for Uz, Initial residual = 0.112847, Final residual = 0.000158126, No Iterations 5
linear solve U 107855
[OGL LOG] init_preconditioner : 0 ms
[OGL LOG] solve : 66 ms
nonecudaGKOIR:  Solving for p, Initial residual = 0.32733, Final residual = 8.07943e-07, No Iterations 2
linear solve p 70327
time step continuity errors : sum local = 7.21939e-07, global = 5.1458e-20, cumulative = 5.6347e-20
[OGL LOG] init_preconditioner : 0 ms
[OGL LOG] solve : 66 ms
nonecudaGKOIR:  Solving for p, Initial residual = 0.243047, Final residual = 5.34808e-07, No Iterations 2
linear solve p 70403
time step continuity errors : sum local = 6.31079e-07, global = -2.77755e-20, cumulative = 2.85715e-20
ExecutionTime = 3.15 s  ClockTime = 3 s

Time = 0.006

Courant Number mean: 0.176822 max: 0.934846
DILUPBiCGStab:  Solving for Ux, Initial residual = 0.00529442, Final residual = 9.84977e-06, No Iterations 5
DILUPBiCGStab:  Solving for Uy, Initial residual = 0.0102196, Final residual = 2.29775e-05, No Iterations 5
DILUPBiCGStab:  Solving for Uz, Initial residual = 0.0485277, Final residual = 7.73993e-05, No Iterations 5
linear solve U 105803
[OGL LOG] init_preconditioner : 0 ms
[OGL LOG] solve : 66 ms
nonecudaGKOIR:  Solving for p, Initial residual = 0.17444, Final residual = 3.40638e-07, No Iterations 2
linear solve p 70665
time step continuity errors : sum local = 6.72777e-07, global = 1.65599e-20, cumulative = 4.51314e-20
[OGL LOG] init_preconditioner : 0 ms
[OGL LOG] solve : 66 ms
nonecudaGKOIR:  Solving for p, Initial residual = 0.133082, Final residual = 2.362e-07, No Iterations 2
linear solve p 70239
time step continuity errors : sum local = 6.30359e-07, global = -5.1866e-20, cumulative = -6.73455e-21
ExecutionTime = 3.46 s  ClockTime = 4 s

Time = 0.008

Courant Number mean: 0.178238 max: 0.933359
DILUPBiCGStab:  Solving for Ux, Initial residual = 0.00289608, Final residual = 5.569e-06, No Iterations 5
DILUPBiCGStab:  Solving for Uy, Initial residual = 0.00786358, Final residual = 1.0081e-05, No Iterations 5
DILUPBiCGStab:  Solving for Uz, Initial residual = 0.0260309, Final residual = 3.95516e-05, No Iterations 5
linear solve U 104271
[OGL LOG] init_preconditioner : 0 ms
[OGL LOG] solve : 65 ms
nonecudaGKOIR:  Solving for p, Initial residual = 0.10533, Final residual = 1.86431e-07, No Iterations 2
linear solve p 69384
time step continuity errors : sum local = 6.20799e-07, global = -3.73893e-20, cumulative = -4.41238e-20
[OGL LOG] init_preconditioner : 0 ms
[OGL LOG] solve : 66 ms
nonecudaGKOIR:  Solving for p, Initial residual = 0.0812442, Final residual = 1.45041e-07, No Iterations 2
linear solve p 69908
time step continuity errors : sum local = 6.30153e-07, global = -4.12509e-20, cumulative = -8.53747e-20
ExecutionTime = 3.76 s  ClockTime = 4 s

Time = 0.01

Courant Number mean: 0.179753 max: 0.9341
DILUPBiCGStab:  Solving for Ux, Initial residual = 0.00227172, Final residual = 4.01281e-06, No Iterations 5
DILUPBiCGStab:  Solving for Uy, Initial residual = 0.0052671, Final residual = 5.88537e-06, No Iterations 5
DILUPBiCGStab:  Solving for Uz, Initial residual = 0.0148997, Final residual = 2.07723e-05, No Iterations 5
linear solve U 110389
[OGL LOG] init_preconditioner : 0 ms
[OGL LOG] solve : 63 ms
nonecudaGKOIR:  Solving for p, Initial residual = 0.0676236, Final residual = 1.11746e-07, No Iterations 2
linear solve p 67661
time step continuity errors : sum local = 6.3471e-07, global = -2.75991e-20, cumulative = -1.12974e-19
[OGL LOG] init_preconditioner : 0 ms
[OGL LOG] solve : 66 ms
nonecudaGKOIR:  Solving for p, Initial residual = 0.0517197, Final residual = 8.0304e-08, No Iterations 2
linear solve p 70049
time step continuity errors : sum local = 6.30272e-07, global = 1.29572e-20, cumulative = -1.00017e-19
ExecutionTime = 4.09 s  ClockTime = 4 s

Time = 0.012

Courant Number mean: 0.181051 max: 0.934596
DILUPBiCGStab:  Solving for Ux, Initial residual = 0.0017552, Final residual = 1.9049e-06, No Iterations 5
DILUPBiCGStab:  Solving for Uy, Initial residual = 0.00453418, Final residual = 4.02158e-06, No Iterations 5
DILUPBiCGStab:  Solving for Uz, Initial residual = 0.0114974, Final residual = 1.25782e-05, No Iterations 5
linear solve U 104973
[OGL LOG] init_preconditioner : 0 ms
[OGL LOG] solve : 62 ms
nonecudaGKOIR:  Solving for p, Initial residual = 0.0446782, Final residual = 6.94378e-08, No Iterations 2
linear solve p 66616
time step continuity errors : sum local = 6.28579e-07, global = -7.63223e-20, cumulative = -1.76339e-19
[OGL LOG] init_preconditioner : 0 ms
[OGL LOG] solve : 63 ms
nonecudaGKOIR:  Solving for p, Initial residual = 0.0343746, Final residual = 5.27391e-08, No Iterations 2
linear solve p 67706
time step continuity errors : sum local = 6.30193e-07, global = -6.70233e-21, cumulative = -1.83041e-19
ExecutionTime = 4.4 s  ClockTime = 5 s

Time = 0.014

Courant Number mean: 0.182225 max: 0.93496
DILUPBiCGStab:  Solving for Ux, Initial residual = 0.00149061, Final residual = 9.87697e-07, No Iterations 5
DILUPBiCGStab:  Solving for Uy, Initial residual = 0.00373593, Final residual = 1.7992e-06, No Iterations 5
DILUPBiCGStab:  Solving for Uz, Initial residual = 0.00819369, Final residual = 8.40634e-06, No Iterations 5
linear solve U 107445
[OGL LOG] init_preconditioner : 0 ms
[OGL LOG] solve : 65 ms
nonecudaGKOIR:  Solving for p, Initial residual = 0.0303477, Final residual = 4.63837e-08, No Iterations 2
linear solve p 69952
time step continuity errors : sum local = 6.30444e-07, global = 4.06967e-20, cumulative = -1.42345e-19
[OGL LOG] init_preconditioner : 0 ms
[OGL LOG] solve : 63 ms
nonecudaGKOIR:  Solving for p, Initial residual = 0.023267, Final residual = 3.26207e-08, No Iterations 2
linear solve p 67744
time step continuity errors : sum local = 6.30212e-07, global = -1.18434e-20, cumulative = -1.54188e-19
ExecutionTime = 4.7 s  ClockTime = 5 s

Time = 0.016

Courant Number mean: 0.183255 max: 0.935382
DILUPBiCGStab:  Solving for Ux, Initial residual = 0.00125112, Final residual = 4.13795e-07, No Iterations 5
DILUPBiCGStab:  Solving for Uy, Initial residual = 0.00326805, Final residual = 1.01022e-06, No Iterations 5
DILUPBiCGStab:  Solving for Uz, Initial residual = 0.00685037, Final residual = 6.24933e-06, No Iterations 5
linear solve U 106728
[OGL LOG] init_preconditioner : 0 ms
[OGL LOG] solve : 65 ms
nonecudaGKOIR:  Solving for p, Initial residual = 0.0207011, Final residual = 2.97139e-08, No Iterations 2
linear solve p 69805
time step continuity errors : sum local = 6.29753e-07, global = 7.30393e-20, cumulative = -8.11487e-20
[OGL LOG] init_preconditioner : 0 ms
[OGL LOG] solve : 64 ms
nonecudaGKOIR:  Solving for p, Initial residual = 0.0160332, Final residual = 2.16512e-08, No Iterations 2
linear solve p 68272
time step continuity errors : sum local = 6.30186e-07, global = 1.21596e-21, cumulative = -7.99327e-20
ExecutionTime = 5.02 s  ClockTime = 5 s

Time = 0.018

Courant Number mean: 0.184168 max: 0.935681
DILUPBiCGStab:  Solving for Ux, Initial residual = 0.00108071, Final residual = 3.28423e-07, No Iterations 5
DILUPBiCGStab:  Solving for Uy, Initial residual = 0.00281175, Final residual = 1.01222e-06, No Iterations 5
DILUPBiCGStab:  Solving for Uz, Initial residual = 0.00553636, Final residual = 4.59602e-06, No Iterations 5
linear solve U 107049
[OGL LOG] init_preconditioner : 0 ms
[OGL LOG] solve : 62 ms
nonecudaGKOIR:  Solving for p, Initial residual = 0.0144621, Final residual = 2.05706e-08, No Iterations 2
linear solve p 66555
time step continuity errors : sum local = 6.29979e-07, global = -9.20776e-21, cumulative = -8.91405e-20
[OGL LOG] init_preconditioner : 0 ms
[OGL LOG] solve : 61 ms
nonecudaGKOIR:  Solving for p, Initial residual = 0.0112119, Final residual = 1.4208e-08, No Iterations 2
linear solve p 65191
time step continuity errors : sum local = 6.30187e-07, global = -5.53084e-21, cumulative = -9.46713e-20
ExecutionTime = 5.34 s  ClockTime = 6 s

Time = 0.02

Courant Number mean: 0.184973 max: 0.935986
DILUPBiCGStab:  Solving for Ux, Initial residual = 0.000928422, Final residual = 1.853e-07, No Iterations 5
DILUPBiCGStab:  Solving for Uy, Initial residual = 0.00248406, Final residual = 5.62488e-07, No Iterations 5
DILUPBiCGStab:  Solving for Uz, Initial residual = 0.00473782, Final residual = 3.34261e-06, No Iterations 5
linear solve U 105006
[OGL LOG] init_preconditioner : 0 ms
[OGL LOG] solve : 63 ms
nonecudaGKOIR:  Solving for p, Initial residual = 0.0101777, Final residual = 1.3837e-08, No Iterations 2
linear solve p 67844
time step continuity errors : sum local = 6.29954e-07, global = -3.41867e-20, cumulative = -1.28858e-19
[OGL LOG] init_preconditioner : 0 ms
[OGL LOG] solve : 64 ms
nonecudaGKOIR:  Solving for p, Initial residual = 0.00803425, Final residual = 9.80178e-09, No Iterations 2
linear solve p 68612
time step continuity errors : sum local = 6.30176e-07, global = -3.66396e-20, cumulative = -1.65498e-19
ExecutionTime = 5.64 s  ClockTime = 6 s

End

