/*---------------------------------------------------------------------------*\
  =========                 |
  \\      /  F ield         | OpenFOAM: The Open Source CFD Toolbox
   \\    /   O peration     | Website:  https://openfoam.org
    \\  /    A nd           | Version:  8
     \\/     M anipulation  |
\*---------------------------------------------------------------------------*/
Build  : 8-ef60d22ea792
Exec   : icoFoam
Date   : Sep 15 2021
Time   : 13:07:33
Host   : "uc2n482.localdomain"
PID    : 3626015
I/O    : uncollated
Case   : /pfs/data5/home/kit/scc/nq7776/data/code/OBR/lidDrivenCavity3D/Variation_init/100/Variation_mesh/5/Variation_matrix_solver/CG_NoPrecond_CUDA/1631704051
nProcs : 1
sigFpe : Enabling floating point exception trapping (FOAM_SIGFPE).
fileModificationChecking : Monitoring run-time modified files using timeStampMaster (fileModificationSkew 10)
allowSystemOperations : Allowing user-supplied system call operations

// * * * * * * * * * * * * * * * * * * * * * * * * * * * * * * * * * * * * * //
Create time

Create mesh for time = 0

Reading transportProperties

Reading field p

Reading field U

Reading/calculating face flux field phi


Starting time loop

Time = 0.02

Courant Number mean: 0.144178 max: 0.344046
DILUPBiCGStab:  Solving for Ux, Initial residual = 0.270102, Final residual = 1.39043e-14, No Iterations 5
DILUPBiCGStab:  Solving for Uy, Initial residual = 0.217087, Final residual = 1.19184e-13, No Iterations 5
DILUPBiCGStab:  Solving for Uz, Initial residual = 0.216079, Final residual = 2.72531e-14, No Iterations 5
linear solve U 183
[OGL LOG] init_host_sparsity_pattern : 0 ms
[OGL LOG] matrix not stored update host matrix
[OGL LOG] update_host_mtx : 0 ms
[OGL LOG] matrix is not yet sorted, compute sorting idxs
[OGL LOG] compute_sort : 0 ms
[OGL LOG] matrix is not yet sorted, sorting host matrix
[OGL LOG] sort_host_mtx_sparsity_pattern : 0 ms
[OGL LOG] sort_host_mtx : 0 ms
[OGL LOG] init_preconditioner : 0 ms
[OGL LOG] solve : 5 ms
nonecudaGKOCG:  Solving for p, Initial residual = 0.599316, Final residual = 8.3991e-07, No Iterations 36
linear solve p 742113
time step continuity errors : sum local = 6.92797e-08, global = 7.79535e-20, cumulative = 7.79535e-20
[OGL LOG] init_preconditioner : 0 ms
[OGL LOG] solve : 5 ms
nonecudaGKOCG:  Solving for p, Initial residual = 0.288319, Final residual = 8.72453e-07, No Iterations 35
linear solve p 5463
time step continuity errors : sum local = 3.83259e-08, global = 2.68007e-19, cumulative = 3.4596e-19
ExecutionTime = 0.77 s  ClockTime = 0 s

Time = 0.04

Courant Number mean: 0.143461 max: 0.370002
DILUPBiCGStab:  Solving for Ux, Initial residual = 0.0735166, Final residual = 6.10754e-14, No Iterations 5
DILUPBiCGStab:  Solving for Uy, Initial residual = 0.0725789, Final residual = 1.60424e-13, No Iterations 5
DILUPBiCGStab:  Solving for Uz, Initial residual = 0.17473, Final residual = 2.48423e-13, No Iterations 5
linear solve U 100
[OGL LOG] init_preconditioner : 0 ms
[OGL LOG] solve : 5 ms
nonecudaGKOCG:  Solving for p, Initial residual = 0.212157, Final residual = 4.80531e-07, No Iterations 35
linear solve p 5383
time step continuity errors : sum local = 0.000264125, global = -9.69853e-19, cumulative = -6.23893e-19
[OGL LOG] init_preconditioner : 0 ms
[OGL LOG] solve : 4 ms
nonecudaGKOCG:  Solving for p, Initial residual = 0.0746229, Final residual = 5.40794e-07, No Iterations 33
linear solve p 5088
time step continuity errors : sum local = 0.000237014, global = -7.11508e-19, cumulative = -1.3354e-18
ExecutionTime = 0.78 s  ClockTime = 0 s

Time = 0.06

Courant Number mean: 0.145501 max: 0.37555
DILUPBiCGStab:  Solving for Ux, Initial residual = 0.0154115, Final residual = 1.49278e-15, No Iterations 5
DILUPBiCGStab:  Solving for Uy, Initial residual = 0.0201049, Final residual = 2.28397e-14, No Iterations 5
DILUPBiCGStab:  Solving for Uz, Initial residual = 0.0978127, Final residual = 1.16418e-13, No Iterations 5
linear solve U 96
[OGL LOG] init_preconditioner : 0 ms
[OGL LOG] solve : 4 ms
nonecudaGKOCG:  Solving for p, Initial residual = 0.0170457, Final residual = 5.69275e-07, No Iterations 32
linear solve p 5118
time step continuity errors : sum local = 0.000237524, global = -6.24687e-19, cumulative = -1.96009e-18
[OGL LOG] init_preconditioner : 0 ms
[OGL LOG] solve : 4 ms
nonecudaGKOCG:  Solving for p, Initial residual = 0.0036503, Final residual = 7.48783e-07, No Iterations 30
linear solve p 4769
time step continuity errors : sum local = 0.000237434, global = -4.03399e-19, cumulative = -2.36349e-18
ExecutionTime = 0.79 s  ClockTime = 0 s

Time = 0.08

Courant Number mean: 0.147029 max: 0.378253
DILUPBiCGStab:  Solving for Ux, Initial residual = 0.004788, Final residual = 3.3863e-15, No Iterations 5
DILUPBiCGStab:  Solving for Uy, Initial residual = 0.00642995, Final residual = 1.20381e-14, No Iterations 5
DILUPBiCGStab:  Solving for Uz, Initial residual = 0.0284307, Final residual = 4.44277e-14, No Iterations 5
linear solve U 107
[OGL LOG] init_preconditioner : 0 ms
[OGL LOG] solve : 4 ms
nonecudaGKOCG:  Solving for p, Initial residual = 0.00482338, Final residual = 6.63753e-07, No Iterations 30
linear solve p 4748
time step continuity errors : sum local = 0.000237949, global = -6.20452e-19, cumulative = -2.98394e-18
[OGL LOG] init_preconditioner : 0 ms
[OGL LOG] solve : 4 ms
nonecudaGKOCG:  Solving for p, Initial residual = 0.00114469, Final residual = 7.18919e-07, No Iterations 28
linear solve p 4532
time step continuity errors : sum local = 0.000237675, global = 1.36266e-18, cumulative = -1.62127e-18
ExecutionTime = 0.8 s  ClockTime = 0 s

Time = 0.1

Courant Number mean: 0.14778 max: 0.379477
DILUPBiCGStab:  Solving for Ux, Initial residual = 0.00171223, Final residual = 8.30549e-16, No Iterations 5
DILUPBiCGStab:  Solving for Uy, Initial residual = 0.00257351, Final residual = 2.28375e-15, No Iterations 5
DILUPBiCGStab:  Solving for Uz, Initial residual = 0.0107967, Final residual = 1.44774e-14, No Iterations 5
linear solve U 104
[OGL LOG] init_preconditioner : 0 ms
[OGL LOG] solve : 4 ms
nonecudaGKOCG:  Solving for p, Initial residual = 0.00160382, Final residual = 6.04361e-07, No Iterations 29
linear solve p 4619
time step continuity errors : sum local = 0.00023772, global = 1.65913e-18, cumulative = 3.78518e-20
[OGL LOG] init_preconditioner : 0 ms
[OGL LOG] solve : 4 ms
nonecudaGKOCG:  Solving for p, Initial residual = 0.000367499, Final residual = 9.03585e-07, No Iterations 26
linear solve p 4213
time step continuity errors : sum local = 0.000237684, global = -8.49151e-19, cumulative = -8.11299e-19
ExecutionTime = 0.81 s  ClockTime = 0 s

Time = 0.12

Courant Number mean: 0.148155 max: 0.380093
DILUPBiCGStab:  Solving for Ux, Initial residual = 0.000689987, Final residual = 3.07159e-16, No Iterations 5
DILUPBiCGStab:  Solving for Uy, Initial residual = 0.00109056, Final residual = 3.92843e-16, No Iterations 5
DILUPBiCGStab:  Solving for Uz, Initial residual = 0.00414472, Final residual = 4.97712e-15, No Iterations 5
linear solve U 100
[OGL LOG] init_preconditioner : 0 ms
[OGL LOG] solve : 4 ms
nonecudaGKOCG:  Solving for p, Initial residual = 0.000679417, Final residual = 7.54295e-07, No Iterations 28
linear solve p 4440
time step continuity errors : sum local = 0.000237668, global = 1.41878e-18, cumulative = 6.07481e-19
[OGL LOG] init_preconditioner : 0 ms
[OGL LOG] solve : 4 ms
nonecudaGKOCG:  Solving for p, Initial residual = 0.000161243, Final residual = 5.05937e-07, No Iterations 26
linear solve p 4193
time step continuity errors : sum local = 0.000237662, global = -1.08208e-18, cumulative = -4.74603e-19
ExecutionTime = 0.83 s  ClockTime = 0 s

Time = 0.14

Courant Number mean: 0.148339 max: 0.380409
DILUPBiCGStab:  Solving for Ux, Initial residual = 0.000300351, Final residual = 1.45275e-16, No Iterations 5
DILUPBiCGStab:  Solving for Uy, Initial residual = 0.000488837, Final residual = 2.05481e-16, No Iterations 5
DILUPBiCGStab:  Solving for Uz, Initial residual = 0.00167037, Final residual = 1.7718e-15, No Iterations 5
linear solve U 99
[OGL LOG] init_preconditioner : 0 ms
[OGL LOG] solve : 4 ms
nonecudaGKOCG:  Solving for p, Initial residual = 0.000315641, Final residual = 6.26423e-07, No Iterations 26
linear solve p 4324
time step continuity errors : sum local = 0.000237649, global = 5.02926e-19, cumulative = 2.83227e-20
[OGL LOG] init_preconditioner : 0 ms
[OGL LOG] solve : 2 ms
nonecudaGKOCG:  Solving for p, Initial residual = 7.19404e-05, Final residual = 9.7846e-07, No Iterations 11
linear solve p 2163
time step continuity errors : sum local = 0.000237665, global = 3.5046e-19, cumulative = 3.78783e-19
ExecutionTime = 0.83 s  ClockTime = 0 s

Time = 0.16

Courant Number mean: 0.148428 max: 0.380568
DILUPBiCGStab:  Solving for Ux, Initial residual = 0.000135352, Final residual = 6.77097e-17, No Iterations 5
DILUPBiCGStab:  Solving for Uy, Initial residual = 0.000229104, Final residual = 1.48473e-16, No Iterations 5
DILUPBiCGStab:  Solving for Uz, Initial residual = 0.000707429, Final residual = 6.39613e-16, No Iterations 5
linear solve U 100
[OGL LOG] init_preconditioner : 0 ms
[OGL LOG] solve : 2 ms
nonecudaGKOCG:  Solving for p, Initial residual = 0.000149221, Final residual = 9.58816e-07, No Iterations 11
linear solve p 2158
time step continuity errors : sum local = 0.000237656, global = -5.03985e-19, cumulative = -1.25202e-19
[OGL LOG] init_preconditioner : 0 ms
[OGL LOG] solve : 1 ms
nonecudaGKOCG:  Solving for p, Initial residual = 3.36599e-05, Final residual = 9.41564e-07, No Iterations 9
linear solve p 1800
time step continuity errors : sum local = 0.000237654, global = -4.84926e-19, cumulative = -6.10128e-19
ExecutionTime = 0.84 s  ClockTime = 0 s

Time = 0.18

Courant Number mean: 0.148472 max: 0.380648
DILUPBiCGStab:  Solving for Ux, Initial residual = 6.20698e-05, Final residual = 2.91874e-17, No Iterations 5
DILUPBiCGStab:  Solving for Uy, Initial residual = 0.000108503, Final residual = 7.7226e-17, No Iterations 5
DILUPBiCGStab:  Solving for Uz, Initial residual = 0.000315216, Final residual = 1.84751e-16, No Iterations 5
linear solve U 95
[OGL LOG] init_preconditioner : 0 ms
[OGL LOG] solve : 1 ms
nonecudaGKOCG:  Solving for p, Initial residual = 7.0784e-05, Final residual = 8.24425e-07, No Iterations 9
linear solve p 1806
time step continuity errors : sum local = 0.000237635, global = 8.25857e-20, cumulative = -5.27543e-19
[OGL LOG] init_preconditioner : 0 ms
[OGL LOG] solve : 1 ms
nonecudaGKOCG:  Solving for p, Initial residual = 1.59262e-05, Final residual = 5.92274e-07, No Iterations 7
linear solve p 1533
time step continuity errors : sum local = 0.00023764, global = -1.60301e-18, cumulative = -2.13055e-18
ExecutionTime = 0.84 s  ClockTime = 0 s

Time = 0.2

Courant Number mean: 0.148493 max: 0.380688
DILUPBiCGStab:  Solving for Ux, Initial residual = 2.86726e-05, Final residual = 1.14493e-17, No Iterations 5
DILUPBiCGStab:  Solving for Uy, Initial residual = 5.15297e-05, Final residual = 3.69707e-17, No Iterations 5
DILUPBiCGStab:  Solving for Uz, Initial residual = 0.000144863, Final residual = 5.49266e-17, No Iterations 5
linear solve U 94
[OGL LOG] init_preconditioner : 0 ms
[OGL LOG] solve : 1 ms
nonecudaGKOCG:  Solving for p, Initial residual = 3.37034e-05, Final residual = 8.70439e-07, No Iterations 5
linear solve p 1271
time step continuity errors : sum local = 0.000237643, global = -7.39036e-19, cumulative = -2.86959e-18
[OGL LOG] init_preconditioner : 0 ms
[OGL LOG] solve : 0 ms
nonecudaGKOCG:  Solving for p, Initial residual = 7.45968e-06, Final residual = 6.02974e-07, No Iterations 4
linear solve p 1115
time step continuity errors : sum local = 0.000237633, global = -2.23617e-18, cumulative = -5.10576e-18
ExecutionTime = 0.84 s  ClockTime = 0 s

End

