/*---------------------------------------------------------------------------*\
  =========                 |
  \\      /  F ield         | OpenFOAM: The Open Source CFD Toolbox
   \\    /   O peration     | Website:  https://openfoam.org
    \\  /    A nd           | Version:  8
     \\/     M anipulation  |
\*---------------------------------------------------------------------------*/
Build  : 8-ef60d22ea792
Exec   : icoFoam
Date   : Sep 15 2021
Time   : 14:42:14
Host   : "uc2n482.localdomain"
PID    : 3653139
I/O    : uncollated
Case   : /pfs/data5/home/kit/scc/nq7776/data/code/OBR/lidDrivenCavity3D/Variation_init/100/Variation_mesh/80/Variation_matrix_solver/IR_NoPrecond_CUDA/Variation_innerReductionFactor/0.05/1631709715
nProcs : 1
sigFpe : Enabling floating point exception trapping (FOAM_SIGFPE).
fileModificationChecking : Monitoring run-time modified files using timeStampMaster (fileModificationSkew 10)
allowSystemOperations : Allowing user-supplied system call operations

// * * * * * * * * * * * * * * * * * * * * * * * * * * * * * * * * * * * * * //
Create time

Create mesh for time = 0

Reading transportProperties

Reading field p

Reading field U

Reading/calculating face flux field phi


Starting time loop

Time = 0.00125

Courant Number mean: 0.170872 max: 0.956305
DILUPBiCGStab:  Solving for Ux, Initial residual = 0.0907333, Final residual = 0.00013873, No Iterations 5
DILUPBiCGStab:  Solving for Uy, Initial residual = 0.175752, Final residual = 0.000395244, No Iterations 5
DILUPBiCGStab:  Solving for Uz, Initial residual = 0.2223, Final residual = 0.000391641, No Iterations 5
linear solve U 535486
[OGL LOG] init_host_sparsity_pattern : 153 ms
[OGL LOG] matrix not stored update host matrix
[OGL LOG] update_host_mtx : 83 ms
[OGL LOG] matrix is not yet sorted, compute sorting idxs
[OGL LOG] compute_sort : 4702 ms
[OGL LOG] matrix is not yet sorted, sorting host matrix
[OGL LOG] sort_host_mtx_sparsity_pattern : 106 ms
[OGL LOG] sort_host_mtx : 63 ms
[OGL LOG] init_preconditioner : 0 ms
[OGL LOG] solve : 274 ms
nonecudaGKOIR:  Solving for p, Initial residual = 0.619793, Final residual = 5.22921e-08, No Iterations 6
linear solve p 6187377
time step continuity errors : sum local = 4.33396e-11, global = -9.10589e-21, cumulative = -9.10589e-21
[OGL LOG] init_preconditioner : 0 ms
[OGL LOG] solve : 253 ms
nonecudaGKOIR:  Solving for p, Initial residual = 0.305886, Final residual = 4.8612e-07, No Iterations 5
linear solve p 268952
time step continuity errors : sum local = 3.20564e-10, global = 7.07705e-21, cumulative = -2.02884e-21
ExecutionTime = 9.59 s  ClockTime = 10 s

Time = 0.0025

Courant Number mean: 0.172587 max: 0.956625
DILUPBiCGStab:  Solving for Ux, Initial residual = 0.00609836, Final residual = 2.52818e-05, No Iterations 5
DILUPBiCGStab:  Solving for Uy, Initial residual = 0.0152778, Final residual = 8.34401e-05, No Iterations 5
DILUPBiCGStab:  Solving for Uz, Initial residual = 0.0343256, Final residual = 0.000455093, No Iterations 5
linear solve U 508799
[OGL LOG] init_preconditioner : 0 ms
[OGL LOG] solve : 268 ms
nonecudaGKOIR:  Solving for p, Initial residual = 0.304274, Final residual = 3.033e-07, No Iterations 5
linear solve p 284239
time step continuity errors : sum local = 7.9044e-08, global = 1.5542e-20, cumulative = 1.35132e-20
[OGL LOG] init_preconditioner : 0 ms
[OGL LOG] solve : 262 ms
nonecudaGKOIR:  Solving for p, Initial residual = 0.186321, Final residual = 1.97818e-07, No Iterations 5
linear solve p 277987
time step continuity errors : sum local = 7.65202e-08, global = 8.48073e-21, cumulative = 2.19939e-20
ExecutionTime = 10.95 s  ClockTime = 11 s

Time = 0.00375

Courant Number mean: 0.174167 max: 0.956979
DILUPBiCGStab:  Solving for Ux, Initial residual = 0.00272597, Final residual = 1.98743e-05, No Iterations 5
DILUPBiCGStab:  Solving for Uy, Initial residual = 0.00797019, Final residual = 4.87013e-05, No Iterations 5
DILUPBiCGStab:  Solving for Uz, Initial residual = 0.0231337, Final residual = 0.000236757, No Iterations 5
linear solve U 503264
[OGL LOG] init_preconditioner : 0 ms
[OGL LOG] solve : 263 ms
nonecudaGKOIR:  Solving for p, Initial residual = 0.175565, Final residual = 1.5544e-07, No Iterations 5
linear solve p 279581
time step continuity errors : sum local = 7.79601e-08, global = 2.74631e-20, cumulative = 4.9457e-20
[OGL LOG] init_preconditioner : 0 ms
[OGL LOG] solve : 263 ms
nonecudaGKOIR:  Solving for p, Initial residual = 0.128458, Final residual = 9.88027e-08, No Iterations 5
linear solve p 279855
time step continuity errors : sum local = 7.62832e-08, global = 1.86153e-21, cumulative = 5.13185e-20
ExecutionTime = 12.31 s  ClockTime = 13 s

Time = 0.005

Courant Number mean: 0.175607 max: 0.957348
DILUPBiCGStab:  Solving for Ux, Initial residual = 0.00209245, Final residual = 1.42155e-05, No Iterations 5
DILUPBiCGStab:  Solving for Uy, Initial residual = 0.00664963, Final residual = 3.32673e-05, No Iterations 5
DILUPBiCGStab:  Solving for Uz, Initial residual = 0.0198716, Final residual = 0.000186897, No Iterations 5
linear solve U 501790
[OGL LOG] init_preconditioner : 0 ms
[OGL LOG] solve : 276 ms
nonecudaGKOIR:  Solving for p, Initial residual = 0.13121, Final residual = 1.01598e-07, No Iterations 5
linear solve p 292404
time step continuity errors : sum local = 7.54826e-08, global = 8.55321e-21, cumulative = 5.98717e-20
[OGL LOG] init_preconditioner : 0 ms
[OGL LOG] solve : 280 ms
nonecudaGKOIR:  Solving for p, Initial residual = 0.103886, Final residual = 7.8611e-08, No Iterations 5
linear solve p 296459
time step continuity errors : sum local = 7.63691e-08, global = 2.83345e-20, cumulative = 8.82062e-20
ExecutionTime = 13.7 s  ClockTime = 14 s

Time = 0.00625

Courant Number mean: 0.176919 max: 0.957715
DILUPBiCGStab:  Solving for Ux, Initial residual = 0.0018083, Final residual = 1.12384e-05, No Iterations 5
DILUPBiCGStab:  Solving for Uy, Initial residual = 0.00546601, Final residual = 2.38188e-05, No Iterations 5
DILUPBiCGStab:  Solving for Uz, Initial residual = 0.0155387, Final residual = 0.000136088, No Iterations 5
linear solve U 499481
[OGL LOG] init_preconditioner : 0 ms
[OGL LOG] solve : 264 ms
nonecudaGKOIR:  Solving for p, Initial residual = 0.102546, Final residual = 7.08031e-08, No Iterations 5
linear solve p 283434
time step continuity errors : sum local = 7.70689e-08, global = 1.80475e-20, cumulative = 1.06254e-19
[OGL LOG] init_preconditioner : 0 ms
[OGL LOG] solve : 269 ms
nonecudaGKOIR:  Solving for p, Initial residual = 0.0820775, Final residual = 5.3698e-08, No Iterations 5
linear solve p 285635
time step continuity errors : sum local = 7.63302e-08, global = -2.55433e-20, cumulative = 8.07104e-20
ExecutionTime = 15.08 s  ClockTime = 15 s

Time = 0.0075

Courant Number mean: 0.178117 max: 0.95808
DILUPBiCGStab:  Solving for Ux, Initial residual = 0.00156866, Final residual = 9.33979e-06, No Iterations 5
DILUPBiCGStab:  Solving for Uy, Initial residual = 0.00480634, Final residual = 1.83342e-05, No Iterations 5
DILUPBiCGStab:  Solving for Uz, Initial residual = 0.0133339, Final residual = 9.97687e-05, No Iterations 5
linear solve U 493718
[OGL LOG] init_preconditioner : 0 ms
[OGL LOG] solve : 278 ms
nonecudaGKOIR:  Solving for p, Initial residual = 0.0841105, Final residual = 5.28446e-08, No Iterations 5
linear solve p 293947
time step continuity errors : sum local = 7.59607e-08, global = -2.80411e-21, cumulative = 7.79063e-20
[OGL LOG] init_preconditioner : 0 ms
[OGL LOG] solve : 235 ms
nonecudaGKOIR:  Solving for p, Initial residual = 0.0682281, Final residual = 8.70168e-07, No Iterations 4
linear solve p 250994
time step continuity errors : sum local = 7.64991e-08, global = 3.97315e-21, cumulative = 8.18794e-20
ExecutionTime = 16.42 s  ClockTime = 17 s

Time = 0.00875

Courant Number mean: 0.179203 max: 0.958354
DILUPBiCGStab:  Solving for Ux, Initial residual = 0.00137905, Final residual = 7.5887e-06, No Iterations 5
DILUPBiCGStab:  Solving for Uy, Initial residual = 0.00418586, Final residual = 1.4932e-05, No Iterations 5
DILUPBiCGStab:  Solving for Uz, Initial residual = 0.0107658, Final residual = 6.68969e-05, No Iterations 5
linear solve U 503963
[OGL LOG] init_preconditioner : 0 ms
[OGL LOG] solve : 210 ms
nonecudaGKOIR:  Solving for p, Initial residual = 0.068813, Final residual = 7.79764e-07, No Iterations 4
linear solve p 226416
time step continuity errors : sum local = 7.67734e-08, global = 1.29565e-20, cumulative = 9.48359e-20
[OGL LOG] init_preconditioner : 0 ms
[OGL LOG] solve : 202 ms
nonecudaGKOIR:  Solving for p, Initial residual = 0.0558618, Final residual = 6.45441e-07, No Iterations 4
linear solve p 218274
time step continuity errors : sum local = 7.6445e-08, global = 1.71929e-21, cumulative = 9.65552e-20
ExecutionTime = 17.66 s  ClockTime = 18 s

Time = 0.01

Courant Number mean: 0.180199 max: 0.958646
DILUPBiCGStab:  Solving for Ux, Initial residual = 0.00123649, Final residual = 6.64414e-06, No Iterations 5
DILUPBiCGStab:  Solving for Uy, Initial residual = 0.00372458, Final residual = 1.06851e-05, No Iterations 5
DILUPBiCGStab:  Solving for Uz, Initial residual = 0.00938554, Final residual = 5.11717e-05, No Iterations 5
linear solve U 503069
[OGL LOG] init_preconditioner : 0 ms
[OGL LOG] solve : 227 ms
nonecudaGKOIR:  Solving for p, Initial residual = 0.0568364, Final residual = 6.25408e-07, No Iterations 4
linear solve p 243171
time step continuity errors : sum local = 7.63014e-08, global = -4.54872e-20, cumulative = 5.1068e-20
[OGL LOG] init_preconditioner : 0 ms
[OGL LOG] solve : 231 ms
nonecudaGKOIR:  Solving for p, Initial residual = 0.0464023, Final residual = 4.66176e-07, No Iterations 4
linear solve p 247520
time step continuity errors : sum local = 7.64091e-08, global = -7.23363e-21, cumulative = 4.38344e-20
ExecutionTime = 18.95 s  ClockTime = 19 s

Time = 0.01125

Courant Number mean: 0.181104 max: 0.958866
DILUPBiCGStab:  Solving for Ux, Initial residual = 0.00109738, Final residual = 5.11486e-06, No Iterations 5
DILUPBiCGStab:  Solving for Uy, Initial residual = 0.00332109, Final residual = 9.68077e-06, No Iterations 5
DILUPBiCGStab:  Solving for Uz, Initial residual = 0.00777806, Final residual = 3.55534e-05, No Iterations 5
linear solve U 502479
[OGL LOG] init_preconditioner : 0 ms
[OGL LOG] solve : 232 ms
nonecudaGKOIR:  Solving for p, Initial residual = 0.0471987, Final residual = 5.22855e-07, No Iterations 4
linear solve p 249243
time step continuity errors : sum local = 7.65381e-08, global = 4.55227e-21, cumulative = 4.83867e-20
[OGL LOG] init_preconditioner : 0 ms
[OGL LOG] solve : 221 ms
nonecudaGKOIR:  Solving for p, Initial residual = 0.0385696, Final residual = 4.18887e-07, No Iterations 4
linear solve p 237160
time step continuity errors : sum local = 7.63975e-08, global = 1.85337e-21, cumulative = 5.024e-20
ExecutionTime = 20.24 s  ClockTime = 21 s

Time = 0.0125

Courant Number mean: 0.181936 max: 0.959099
DILUPBiCGStab:  Solving for Ux, Initial residual = 0.000997475, Final residual = 4.78131e-06, No Iterations 5
DILUPBiCGStab:  Solving for Uy, Initial residual = 0.00298587, Final residual = 6.76115e-06, No Iterations 5
DILUPBiCGStab:  Solving for Uz, Initial residual = 0.00690889, Final residual = 2.94023e-05, No Iterations 5
linear solve U 496481
[OGL LOG] init_preconditioner : 0 ms
[OGL LOG] solve : 136 ms
nonecudaGKOIR:  Solving for p, Initial residual = 0.0390469, Final residual = 3.85474e-07, No Iterations 4
linear solve p 152347
time step continuity errors : sum local = 7.63515e-08, global = -5.76036e-21, cumulative = 4.44797e-20
[OGL LOG] init_preconditioner : 0 ms
[OGL LOG] solve : 216 ms
nonecudaGKOIR:  Solving for p, Initial residual = 0.0320091, Final residual = 3.38663e-07, No Iterations 4
linear solve p 232989
time step continuity errors : sum local = 7.63815e-08, global = 2.51164e-20, cumulative = 6.9596e-20
ExecutionTime = 21.41 s  ClockTime = 22 s

End

