/*---------------------------------------------------------------------------*\
  =========                 |
  \\      /  F ield         | OpenFOAM: The Open Source CFD Toolbox
   \\    /   O peration     | Website:  https://openfoam.org
    \\  /    A nd           | Version:  8
     \\/     M anipulation  |
\*---------------------------------------------------------------------------*/
Build  : 8-ef60d22ea792
Exec   : icoFoam
Date   : Sep 15 2021
Time   : 14:16:24
Host   : "uc2n438.localdomain"
PID    : 3548716
I/O    : uncollated
Case   : /pfs/data5/home/kit/scc/nq7776/data/code/OBR/lidDrivenCavity3D/Variation_init/100/Variation_mesh/80/Variation_matrix_solver/BiCGStab_NoPrecond_Serial/1631708148
nProcs : 1
sigFpe : Enabling floating point exception trapping (FOAM_SIGFPE).
fileModificationChecking : Monitoring run-time modified files using timeStampMaster (fileModificationSkew 10)
allowSystemOperations : Allowing user-supplied system call operations

// * * * * * * * * * * * * * * * * * * * * * * * * * * * * * * * * * * * * * //
Create time

Create mesh for time = 0

Reading transportProperties

Reading field p

Reading field U

Reading/calculating face flux field phi


Starting time loop

Time = 0.00125

Courant Number mean: 0.170872 max: 0.956305
DILUPBiCGStab:  Solving for Ux, Initial residual = 0.0907333, Final residual = 0.00013873, No Iterations 5
DILUPBiCGStab:  Solving for Uy, Initial residual = 0.175752, Final residual = 0.000395244, No Iterations 5
DILUPBiCGStab:  Solving for Uz, Initial residual = 0.2223, Final residual = 0.000391641, No Iterations 5
linear solve U 553133
nonePBiCGStab:  Solving for p, Initial residual = 0.619793, Final residual = 9.43808e-07, No Iterations 506
linear solve p 7182420
time step continuity errors : sum local = 1.55813e-09, global = 1.69481e-21, cumulative = 1.69481e-21
nonePBiCGStab:  Solving for p, Initial residual = 0.305887, Final residual = 6.19684e-07, No Iterations 502
linear solve p 7123359
time step continuity errors : sum local = 7.8408e-10, global = -5.70484e-20, cumulative = -5.53536e-20
ExecutionTime = 17.61 s  ClockTime = 18 s

Time = 0.0025

Courant Number mean: 0.172587 max: 0.956625
DILUPBiCGStab:  Solving for Ux, Initial residual = 0.00609791, Final residual = 2.52913e-05, No Iterations 5
DILUPBiCGStab:  Solving for Uy, Initial residual = 0.0152814, Final residual = 8.3487e-05, No Iterations 5
DILUPBiCGStab:  Solving for Uz, Initial residual = 0.0343522, Final residual = 0.000455331, No Iterations 5
linear solve U 478463
nonePBiCGStab:  Solving for p, Initial residual = 0.304307, Final residual = 8.52841e-07, No Iterations 512
linear solve p 6976081
time step continuity errors : sum local = 9.22213e-10, global = -2.10982e-20, cumulative = -7.64518e-20
nonePBiCGStab:  Solving for p, Initial residual = 0.186352, Final residual = 6.01231e-07, No Iterations 510
linear solve p 7215365
time step continuity errors : sum local = 5.78934e-10, global = 1.46957e-20, cumulative = -6.1756e-20
ExecutionTime = 32.52 s  ClockTime = 33 s

Time = 0.00375

Courant Number mean: 0.174167 max: 0.956979
DILUPBiCGStab:  Solving for Ux, Initial residual = 0.00272818, Final residual = 1.98935e-05, No Iterations 5
DILUPBiCGStab:  Solving for Uy, Initial residual = 0.00797198, Final residual = 4.87984e-05, No Iterations 5
DILUPBiCGStab:  Solving for Uz, Initial residual = 0.0233176, Final residual = 0.000238442, No Iterations 5
linear solve U 476131
nonePBiCGStab:  Solving for p, Initial residual = 0.175622, Final residual = 9.85044e-07, No Iterations 520
linear solve p 7340056
time step continuity errors : sum local = 6.01963e-10, global = 1.46917e-20, cumulative = -4.70644e-20
nonePBiCGStab:  Solving for p, Initial residual = 0.128512, Final residual = 7.95517e-07, No Iterations 533
linear solve p 7557932
time step continuity errors : sum local = 4.6126e-10, global = 9.55635e-21, cumulative = -3.7508e-20
ExecutionTime = 48.12 s  ClockTime = 48 s

Time = 0.005

Courant Number mean: 0.175607 max: 0.957348
DILUPBiCGStab:  Solving for Ux, Initial residual = 0.00209346, Final residual = 1.42268e-05, No Iterations 5
DILUPBiCGStab:  Solving for Uy, Initial residual = 0.00665791, Final residual = 3.33197e-05, No Iterations 5
DILUPBiCGStab:  Solving for Uz, Initial residual = 0.019967, Final residual = 0.000187197, No Iterations 5
linear solve U 473095
nonePBiCGStab:  Solving for p, Initial residual = 0.131279, Final residual = 4.289e-07, No Iterations 496
linear solve p 7003206
time step continuity errors : sum local = 2.80771e-10, global = -7.59954e-22, cumulative = -3.8268e-20
nonePBiCGStab:  Solving for p, Initial residual = 0.103955, Final residual = 9.09822e-07, No Iterations 504
linear solve p 6856711
time step continuity errors : sum local = 7.9646e-10, global = 6.30167e-21, cumulative = -3.19663e-20
ExecutionTime = 62.68 s  ClockTime = 63 s

Time = 0.00625

Courant Number mean: 0.176919 max: 0.957715
DILUPBiCGStab:  Solving for Ux, Initial residual = 0.00181034, Final residual = 1.12513e-05, No Iterations 5
DILUPBiCGStab:  Solving for Uy, Initial residual = 0.00546811, Final residual = 2.38834e-05, No Iterations 5
DILUPBiCGStab:  Solving for Uz, Initial residual = 0.015677, Final residual = 0.00013723, No Iterations 5
linear solve U 478630
nonePBiCGStab:  Solving for p, Initial residual = 0.10261, Final residual = 5.96898e-07, No Iterations 527
linear solve p 7480683
time step continuity errors : sum local = 3.27491e-10, global = -3.42689e-21, cumulative = -3.53932e-20
nonePBiCGStab:  Solving for p, Initial residual = 0.0821366, Final residual = 4.29147e-07, No Iterations 473
linear solve p 6480145
time step continuity errors : sum local = 2.16457e-10, global = 3.27672e-20, cumulative = -2.626e-21
ExecutionTime = 77.35 s  ClockTime = 78 s

Time = 0.0075

Courant Number mean: 0.178117 max: 0.958081
DILUPBiCGStab:  Solving for Ux, Initial residual = 0.00156971, Final residual = 9.35401e-06, No Iterations 5
DILUPBiCGStab:  Solving for Uy, Initial residual = 0.00481185, Final residual = 1.83764e-05, No Iterations 5
DILUPBiCGStab:  Solving for Uz, Initial residual = 0.0134005, Final residual = 0.00010033, No Iterations 5
linear solve U 469985
nonePBiCGStab:  Solving for p, Initial residual = 0.0841687, Final residual = 7.58e-07, No Iterations 485
linear solve p 6599064
time step continuity errors : sum local = 5.3868e-10, global = 1.1709e-21, cumulative = -1.4551e-21
nonePBiCGStab:  Solving for p, Initial residual = 0.0682826, Final residual = 8.80862e-07, No Iterations 514
linear solve p 7300922
time step continuity errors : sum local = 6.84797e-10, global = -9.93828e-21, cumulative = -1.13934e-20
ExecutionTime = 91.96 s  ClockTime = 92 s

Time = 0.00875

Courant Number mean: 0.179203 max: 0.958354
DILUPBiCGStab:  Solving for Ux, Initial residual = 0.00138075, Final residual = 7.60074e-06, No Iterations 5
DILUPBiCGStab:  Solving for Uy, Initial residual = 0.00418702, Final residual = 1.4993e-05, No Iterations 5
DILUPBiCGStab:  Solving for Uz, Initial residual = 0.0108745, Final residual = 6.78016e-05, No Iterations 5
linear solve U 482396
nonePBiCGStab:  Solving for p, Initial residual = 0.0688708, Final residual = 9.56101e-07, No Iterations 521
linear solve p 7390572
time step continuity errors : sum local = 4.97103e-10, global = 1.61034e-20, cumulative = 4.71003e-21
nonePBiCGStab:  Solving for p, Initial residual = 0.055916, Final residual = 4.85305e-07, No Iterations 469
linear solve p 6402395
time step continuity errors : sum local = 4.08617e-10, global = -2.12122e-20, cumulative = -1.65022e-20
ExecutionTime = 106.46 s  ClockTime = 107 s

Time = 0.01

Courant Number mean: 0.180199 max: 0.958646
DILUPBiCGStab:  Solving for Ux, Initial residual = 0.00123714, Final residual = 6.65901e-06, No Iterations 5
DILUPBiCGStab:  Solving for Uy, Initial residual = 0.00373053, Final residual = 1.07419e-05, No Iterations 5
DILUPBiCGStab:  Solving for Uz, Initial residual = 0.00943657, Final residual = 5.17876e-05, No Iterations 5
linear solve U 475123
nonePBiCGStab:  Solving for p, Initial residual = 0.0568985, Final residual = 8.25047e-07, No Iterations 530
linear solve p 7255096
time step continuity errors : sum local = 7.42473e-10, global = 1.21809e-20, cumulative = -4.32122e-21
nonePBiCGStab:  Solving for p, Initial residual = 0.0464603, Final residual = 9.14817e-07, No Iterations 527
linear solve p 7443954
time step continuity errors : sum local = 8.2303e-10, global = -1.78418e-20, cumulative = -2.2163e-20
ExecutionTime = 121.87 s  ClockTime = 122 s

Time = 0.01125

Courant Number mean: 0.181104 max: 0.958866
DILUPBiCGStab:  Solving for Ux, Initial residual = 0.00109977, Final residual = 5.13964e-06, No Iterations 5
DILUPBiCGStab:  Solving for Uy, Initial residual = 0.00332135, Final residual = 9.79985e-06, No Iterations 5
DILUPBiCGStab:  Solving for Uz, Initial residual = 0.00792356, Final residual = 3.67856e-05, No Iterations 5
linear solve U 475189
nonePBiCGStab:  Solving for p, Initial residual = 0.0472771, Final residual = 5.81525e-07, No Iterations 459
linear solve p 6508721
time step continuity errors : sum local = 4.72555e-10, global = 1.67356e-20, cumulative = -5.42733e-21
nonePBiCGStab:  Solving for p, Initial residual = 0.038643, Final residual = 8.54764e-07, No Iterations 484
linear solve p 6840979
time step continuity errors : sum local = 4.77109e-10, global = -1.18754e-20, cumulative = -1.73027e-20
ExecutionTime = 135.92 s  ClockTime = 136 s

Time = 0.0125

Courant Number mean: 0.181936 max: 0.959099
DILUPBiCGStab:  Solving for Ux, Initial residual = 0.000998351, Final residual = 4.82053e-06, No Iterations 5
DILUPBiCGStab:  Solving for Uy, Initial residual = 0.002994, Final residual = 6.85467e-06, No Iterations 5
DILUPBiCGStab:  Solving for Uz, Initial residual = 0.00698042, Final residual = 3.03729e-05, No Iterations 5
linear solve U 473902
nonePBiCGStab:  Solving for p, Initial residual = 0.0391305, Final residual = 8.58552e-07, No Iterations 500
linear solve p 7096117
time step continuity errors : sum local = 6.37338e-10, global = -3.52514e-21, cumulative = -2.08279e-20
nonePBiCGStab:  Solving for p, Initial residual = 0.0320872, Final residual = 8.19961e-07, No Iterations 470
linear solve p 6642416
time step continuity errors : sum local = 7.06634e-10, global = 1.17007e-20, cumulative = -9.12717e-21
ExecutionTime = 150.37 s  ClockTime = 151 s

End

