/*---------------------------------------------------------------------------*\
  =========                 |
  \\      /  F ield         | OpenFOAM: The Open Source CFD Toolbox
   \\    /   O peration     | Website:  https://openfoam.org
    \\  /    A nd           | Version:  8
     \\/     M anipulation  |
\*---------------------------------------------------------------------------*/
Build  : 8-ef60d22ea792
Exec   : icoFoam
Date   : Sep 15 2021
Time   : 13:20:40
Host   : "uc2n482.localdomain"
PID    : 3629596
I/O    : uncollated
Case   : /pfs/data5/home/kit/scc/nq7776/data/code/OBR/lidDrivenCavity3D/Variation_init/100/Variation_mesh/90/Variation_matrix_solver/IR_NoPrecond_CUDA/Variation_innerReductionFactor/0.05/1631704812
nProcs : 1
sigFpe : Enabling floating point exception trapping (FOAM_SIGFPE).
fileModificationChecking : Monitoring run-time modified files using timeStampMaster (fileModificationSkew 10)
allowSystemOperations : Allowing user-supplied system call operations

// * * * * * * * * * * * * * * * * * * * * * * * * * * * * * * * * * * * * * //
Create time

Create mesh for time = 0

Reading transportProperties

Reading field p

Reading field U

Reading/calculating face flux field phi


Starting time loop

Time = 0.00111111

Courant Number mean: 0.170803 max: 0.959403
DILUPBiCGStab:  Solving for Ux, Initial residual = 0.0817494, Final residual = 0.000236661, No Iterations 5
DILUPBiCGStab:  Solving for Uy, Initial residual = 0.166742, Final residual = 0.000630917, No Iterations 5
DILUPBiCGStab:  Solving for Uz, Initial residual = 0.256474, Final residual = 0.00093799, No Iterations 5
linear solve U 782472
[OGL LOG] init_host_sparsity_pattern : 211 ms
[OGL LOG] matrix not stored update host matrix
[OGL LOG] update_host_mtx : 115 ms
[OGL LOG] matrix is not yet sorted, compute sorting idxs
[OGL LOG] compute_sort : 6841 ms
[OGL LOG] matrix is not yet sorted, sorting host matrix
[OGL LOG] sort_host_mtx_sparsity_pattern : 148 ms
[OGL LOG] sort_host_mtx : 89 ms
[OGL LOG] init_preconditioner : 0 ms
[OGL LOG] solve : 381 ms
nonecudaGKOIR:  Solving for p, Initial residual = 0.628613, Final residual = 7.33413e-07, No Iterations 5
linear solve p 8594061
time step continuity errors : sum local = 5.74339e-10, global = 3.33202e-21, cumulative = 3.33202e-21
[OGL LOG] init_preconditioner : 0 ms
[OGL LOG] solve : 389 ms
nonecudaGKOIR:  Solving for p, Initial residual = 0.413687, Final residual = 3.78434e-07, No Iterations 5
linear solve p 412309
time step continuity errors : sum local = 2.59848e-10, global = -3.72732e-21, cumulative = -3.95302e-22
ExecutionTime = 13.63 s  ClockTime = 14 s

Time = 0.00222222

Courant Number mean: 0.172492 max: 0.961842
DILUPBiCGStab:  Solving for Ux, Initial residual = 0.00648976, Final residual = 6.6517e-05, No Iterations 5
DILUPBiCGStab:  Solving for Uy, Initial residual = 0.018169, Final residual = 0.000188378, No Iterations 5
DILUPBiCGStab:  Solving for Uz, Initial residual = 0.0559278, Final residual = 0.000786694, No Iterations 5
linear solve U 722700
[OGL LOG] init_preconditioner : 0 ms
[OGL LOG] solve : 399 ms
nonecudaGKOIR:  Solving for p, Initial residual = 0.502231, Final residual = 3.54109e-07, No Iterations 5
linear solve p 425239
time step continuity errors : sum local = 6.53683e-08, global = -4.27336e-21, cumulative = -4.66867e-21
[OGL LOG] init_preconditioner : 0 ms
[OGL LOG] solve : 422 ms
nonecudaGKOIR:  Solving for p, Initial residual = 0.412943, Final residual = 2.75359e-07, No Iterations 5
linear solve p 445293
time step continuity errors : sum local = 5.58039e-08, global = 5.61343e-21, cumulative = 9.4476e-22
ExecutionTime = 15.65 s  ClockTime = 16 s

Time = 0.00333333

Courant Number mean: 0.173861 max: 0.961987
DILUPBiCGStab:  Solving for Ux, Initial residual = 0.00378862, Final residual = 3.601e-05, No Iterations 5
DILUPBiCGStab:  Solving for Uy, Initial residual = 0.0107274, Final residual = 0.000108706, No Iterations 5
DILUPBiCGStab:  Solving for Uz, Initial residual = 0.0377595, Final residual = 0.00049019, No Iterations 5
linear solve U 750131
[OGL LOG] init_preconditioner : 0 ms
[OGL LOG] solve : 396 ms
nonecudaGKOIR:  Solving for p, Initial residual = 0.412757, Final residual = 2.14617e-07, No Iterations 5
linear solve p 421679
time step continuity errors : sum local = 5.79883e-08, global = -3.80951e-20, cumulative = -3.71503e-20
[OGL LOG] init_preconditioner : 0 ms
[OGL LOG] solve : 366 ms
nonecudaGKOIR:  Solving for p, Initial residual = 0.329405, Final residual = 1.78253e-07, No Iterations 5
linear solve p 391001
time step continuity errors : sum local = 5.50291e-08, global = 8.79784e-22, cumulative = -3.62706e-20
ExecutionTime = 17.7 s  ClockTime = 18 s

Time = 0.00444444

Courant Number mean: 0.175122 max: 0.96203
DILUPBiCGStab:  Solving for Ux, Initial residual = 0.00283366, Final residual = 2.30253e-05, No Iterations 5
DILUPBiCGStab:  Solving for Uy, Initial residual = 0.00840082, Final residual = 6.82567e-05, No Iterations 5
DILUPBiCGStab:  Solving for Uz, Initial residual = 0.0303761, Final residual = 0.000466634, No Iterations 5
linear solve U 734152
[OGL LOG] init_preconditioner : 0 ms
[OGL LOG] solve : 411 ms
nonecudaGKOIR:  Solving for p, Initial residual = 0.355944, Final residual = 1.79707e-07, No Iterations 5
linear solve p 434636
time step continuity errors : sum local = 5.6665e-08, global = 1.17743e-20, cumulative = -2.44962e-20
[OGL LOG] init_preconditioner : 0 ms
[OGL LOG] solve : 408 ms
nonecudaGKOIR:  Solving for p, Initial residual = 0.288926, Final residual = 1.53281e-07, No Iterations 5
linear solve p 431483
time step continuity errors : sum local = 5.54331e-08, global = 8.14975e-21, cumulative = -1.63465e-20
ExecutionTime = 19.78 s  ClockTime = 20 s

Time = 0.00555556

Courant Number mean: 0.176337 max: 0.962265
DILUPBiCGStab:  Solving for Ux, Initial residual = 0.00237661, Final residual = 1.58518e-05, No Iterations 5
DILUPBiCGStab:  Solving for Uy, Initial residual = 0.00656992, Final residual = 4.32083e-05, No Iterations 5
DILUPBiCGStab:  Solving for Uz, Initial residual = 0.0243791, Final residual = 0.000373314, No Iterations 5
linear solve U 725509
[OGL LOG] init_preconditioner : 0 ms
[OGL LOG] solve : 404 ms
nonecudaGKOIR:  Solving for p, Initial residual = 0.298696, Final residual = 1.3339e-07, No Iterations 5
linear solve p 430628
time step continuity errors : sum local = 5.65751e-08, global = 1.18396e-20, cumulative = -4.50685e-21
[OGL LOG] init_preconditioner : 0 ms
[OGL LOG] solve : 406 ms
nonecudaGKOIR:  Solving for p, Initial residual = 0.24135, Final residual = 1.06304e-07, No Iterations 5
linear solve p 429759
time step continuity errors : sum local = 5.51492e-08, global = -1.37316e-20, cumulative = -1.82384e-20
ExecutionTime = 21.82 s  ClockTime = 22 s

Time = 0.00666667

Courant Number mean: 0.177448 max: 0.962592
DILUPBiCGStab:  Solving for Ux, Initial residual = 0.00201483, Final residual = 1.19559e-05, No Iterations 5
DILUPBiCGStab:  Solving for Uy, Initial residual = 0.00552651, Final residual = 3.24111e-05, No Iterations 5
DILUPBiCGStab:  Solving for Uz, Initial residual = 0.0203571, Final residual = 0.000326771, No Iterations 5
linear solve U 719122
[OGL LOG] init_preconditioner : 0 ms
[OGL LOG] solve : 394 ms
nonecudaGKOIR:  Solving for p, Initial residual = 0.259594, Final residual = 1.07145e-07, No Iterations 5
linear solve p 417270
time step continuity errors : sum local = 5.55846e-08, global = 1.8479e-21, cumulative = -1.63905e-20
[OGL LOG] init_preconditioner : 0 ms
[OGL LOG] solve : 397 ms
nonecudaGKOIR:  Solving for p, Initial residual = 0.210338, Final residual = 7.9288e-08, No Iterations 5
linear solve p 419995
time step continuity errors : sum local = 5.53323e-08, global = -3.21337e-21, cumulative = -1.96039e-20
ExecutionTime = 23.82 s  ClockTime = 24 s

Time = 0.00777778

Courant Number mean: 0.17848 max: 0.962789
DILUPBiCGStab:  Solving for Ux, Initial residual = 0.00174459, Final residual = 9.87662e-06, No Iterations 5
DILUPBiCGStab:  Solving for Uy, Initial residual = 0.00474393, Final residual = 2.29057e-05, No Iterations 5
DILUPBiCGStab:  Solving for Uz, Initial residual = 0.0169164, Final residual = 0.000263286, No Iterations 5
linear solve U 719726
[OGL LOG] init_preconditioner : 0 ms
[OGL LOG] solve : 370 ms
nonecudaGKOIR:  Solving for p, Initial residual = 0.222056, Final residual = 9.01478e-08, No Iterations 5
linear solve p 394713
time step continuity errors : sum local = 5.58335e-08, global = 2.24438e-20, cumulative = 2.83989e-21
[OGL LOG] init_preconditioner : 0 ms
[OGL LOG] solve : 373 ms
nonecudaGKOIR:  Solving for p, Initial residual = 0.180056, Final residual = 7.14108e-08, No Iterations 5
linear solve p 396622
time step continuity errors : sum local = 5.51863e-08, global = -2.17798e-20, cumulative = -1.89399e-20
ExecutionTime = 25.76 s  ClockTime = 26 s

Time = 0.00888889

Courant Number mean: 0.17943 max: 0.963051
DILUPBiCGStab:  Solving for Ux, Initial residual = 0.00153309, Final residual = 8.75927e-06, No Iterations 5
DILUPBiCGStab:  Solving for Uy, Initial residual = 0.00409987, Final residual = 1.97699e-05, No Iterations 5
DILUPBiCGStab:  Solving for Uz, Initial residual = 0.0141843, Final residual = 0.000221832, No Iterations 5
linear solve U 727378
[OGL LOG] init_preconditioner : 0 ms
[OGL LOG] solve : 391 ms
nonecudaGKOIR:  Solving for p, Initial residual = 0.192567, Final residual = 6.70472e-08, No Iterations 5
linear solve p 415109
time step continuity errors : sum local = 5.54514e-08, global = -1.33457e-20, cumulative = -3.22856e-20
[OGL LOG] init_preconditioner : 0 ms
[OGL LOG] solve : 385 ms
nonecudaGKOIR:  Solving for p, Initial residual = 0.156034, Final residual = 6.25229e-08, No Iterations 5
linear solve p 408585
time step continuity errors : sum local = 5.5296e-08, global = -3.13102e-20, cumulative = -6.35958e-20
ExecutionTime = 27.75 s  ClockTime = 28 s

Time = 0.01

Courant Number mean: 0.180306 max: 0.963239
DILUPBiCGStab:  Solving for Ux, Initial residual = 0.00134687, Final residual = 8.22676e-06, No Iterations 5
DILUPBiCGStab:  Solving for Uy, Initial residual = 0.0036434, Final residual = 1.63477e-05, No Iterations 5
DILUPBiCGStab:  Solving for Uz, Initial residual = 0.0119458, Final residual = 0.000171567, No Iterations 5
linear solve U 724373
[OGL LOG] init_preconditioner : 0 ms
[OGL LOG] solve : 382 ms
nonecudaGKOIR:  Solving for p, Initial residual = 0.165997, Final residual = 6.23038e-08, No Iterations 5
linear solve p 405780
time step continuity errors : sum local = 5.54653e-08, global = 2.17905e-20, cumulative = -4.18053e-20
[OGL LOG] init_preconditioner : 0 ms
[OGL LOG] solve : 400 ms
nonecudaGKOIR:  Solving for p, Initial residual = 0.134791, Final residual = 5.08405e-08, No Iterations 5
linear solve p 423889
time step continuity errors : sum local = 5.52045e-08, global = -2.05068e-20, cumulative = -6.23121e-20
ExecutionTime = 29.73 s  ClockTime = 30 s

Time = 0.0111111

Courant Number mean: 0.181116 max: 0.963438
DILUPBiCGStab:  Solving for Ux, Initial residual = 0.00120344, Final residual = 7.36986e-06, No Iterations 5
DILUPBiCGStab:  Solving for Uy, Initial residual = 0.00320712, Final residual = 1.52822e-05, No Iterations 5
DILUPBiCGStab:  Solving for Uz, Initial residual = 0.0101858, Final residual = 0.000139949, No Iterations 5
linear solve U 715239
[OGL LOG] init_preconditioner : 0 ms
[OGL LOG] solve : 390 ms
nonecudaGKOIR:  Solving for p, Initial residual = 0.143531, Final residual = 5.43554e-08, No Iterations 5
linear solve p 413571
time step continuity errors : sum local = 5.53943e-08, global = 5.80102e-21, cumulative = -5.65111e-20
[OGL LOG] init_preconditioner : 0 ms
[OGL LOG] solve : 340 ms
nonecudaGKOIR:  Solving for p, Initial residual = 0.116378, Final residual = 8.77982e-07, No Iterations 4
linear solve p 363117
time step continuity errors : sum local = 5.54577e-08, global = -9.39328e-21, cumulative = -6.59043e-20
ExecutionTime = 31.64 s  ClockTime = 32 s

End

