/*---------------------------------------------------------------------------*\
  =========                 |
  \\      /  F ield         | OpenFOAM: The Open Source CFD Toolbox
   \\    /   O peration     | Website:  https://openfoam.org
    \\  /    A nd           | Version:  8
     \\/     M anipulation  |
\*---------------------------------------------------------------------------*/
Build  : 8-ef60d22ea792
Exec   : icoFoam
Date   : Sep 15 2021
Time   : 14:48:17
Host   : "uc2n482.localdomain"
PID    : 3654439
I/O    : uncollated
Case   : /pfs/data5/home/kit/scc/nq7776/data/code/OBR/lidDrivenCavity3D/Variation_init/100/Variation_mesh/85/Variation_matrix_solver/CG_BJ_CUDA/Variation_maxBlockSize/4/1631710072
nProcs : 1
sigFpe : Enabling floating point exception trapping (FOAM_SIGFPE).
fileModificationChecking : Monitoring run-time modified files using timeStampMaster (fileModificationSkew 10)
allowSystemOperations : Allowing user-supplied system call operations

// * * * * * * * * * * * * * * * * * * * * * * * * * * * * * * * * * * * * * //
Create time

Create mesh for time = 0

Reading transportProperties

Reading field p

Reading field U

Reading/calculating face flux field phi


Starting time loop

Time = 0.00117647

Courant Number mean: 0.17078 max: 0.958539
DILUPBiCGStab:  Solving for Ux, Initial residual = 0.08035, Final residual = 0.000200532, No Iterations 5
DILUPBiCGStab:  Solving for Uy, Initial residual = 0.159613, Final residual = 0.00056519, No Iterations 5
DILUPBiCGStab:  Solving for Uz, Initial residual = 0.222246, Final residual = 0.000790216, No Iterations 5
linear solve U 660968
[OGL LOG] init_host_sparsity_pattern : 183 ms
[OGL LOG] matrix not stored update host matrix
[OGL LOG] update_host_mtx : 101 ms
[OGL LOG] matrix is not yet sorted, compute sorting idxs
[OGL LOG] compute_sort : 5750 ms
[OGL LOG] matrix is not yet sorted, sorting host matrix
[OGL LOG] sort_host_mtx_sparsity_pattern : 123 ms
[OGL LOG] sort_host_mtx : 76 ms
[OGL LOG] init_preconditioner : 68 ms
[OGL LOG] solve : 495 ms
BJcudaGKOCG:  Solving for p, Initial residual = 0.643964, Final residual = 9.7647e-07, No Iterations 596
linear solve p 7608076
time step continuity errors : sum local = 7.83686e-10, global = 7.02901e-21, cumulative = 7.02901e-21
[OGL LOG] init_preconditioner : 0 ms
[OGL LOG] solve : 490 ms
BJcudaGKOCG:  Solving for p, Initial residual = 0.369996, Final residual = 9.78219e-07, No Iterations 596
linear solve p 509604
time step continuity errors : sum local = 6.97863e-10, global = -2.03957e-20, cumulative = -1.33667e-20
ExecutionTime = 12.02 s  ClockTime = 12 s

Time = 0.00235294

Courant Number mean: 0.17242 max: 0.959521
DILUPBiCGStab:  Solving for Ux, Initial residual = 0.00668669, Final residual = 4.22368e-05, No Iterations 5
DILUPBiCGStab:  Solving for Uy, Initial residual = 0.0171906, Final residual = 0.000144526, No Iterations 5
DILUPBiCGStab:  Solving for Uz, Initial residual = 0.043363, Final residual = 0.000582262, No Iterations 5
linear solve U 622899
[OGL LOG] init_preconditioner : 0 ms
[OGL LOG] solve : 494 ms
BJcudaGKOCG:  Solving for p, Initial residual = 0.435511, Final residual = 9.68703e-07, No Iterations 602
linear solve p 513968
time step continuity errors : sum local = 8.1232e-08, global = 1.06199e-20, cumulative = -2.74675e-21
[OGL LOG] init_preconditioner : 0 ms
[OGL LOG] solve : 494 ms
BJcudaGKOCG:  Solving for p, Initial residual = 0.303854, Final residual = 9.78066e-07, No Iterations 601
linear solve p 514280
time step continuity errors : sum local = 7.01907e-08, global = -1.92312e-20, cumulative = -2.19779e-20
ExecutionTime = 14.03 s  ClockTime = 14 s

Time = 0.00352941

Courant Number mean: 0.173894 max: 0.959456
DILUPBiCGStab:  Solving for Ux, Initial residual = 0.00333714, Final residual = 3.14696e-05, No Iterations 5
DILUPBiCGStab:  Solving for Uy, Initial residual = 0.00945609, Final residual = 8.9658e-05, No Iterations 5
DILUPBiCGStab:  Solving for Uz, Initial residual = 0.0306859, Final residual = 0.000410324, No Iterations 5
linear solve U 603933
[OGL LOG] init_preconditioner : 0 ms
[OGL LOG] solve : 485 ms
BJcudaGKOCG:  Solving for p, Initial residual = 0.299931, Final residual = 9.81751e-07, No Iterations 589
linear solve p 511454
time step continuity errors : sum local = 6.82707e-08, global = 1.90948e-20, cumulative = -2.88313e-21
[OGL LOG] init_preconditioner : 0 ms
[OGL LOG] solve : 484 ms
BJcudaGKOCG:  Solving for p, Initial residual = 0.215688, Final residual = 9.62733e-07, No Iterations 588
linear solve p 503684
time step continuity errors : sum local = 6.84439e-08, global = 1.77821e-20, cumulative = 1.48989e-20
ExecutionTime = 16.03 s  ClockTime = 16 s

Time = 0.00470588

Courant Number mean: 0.175264 max: 0.959792
DILUPBiCGStab:  Solving for Ux, Initial residual = 0.0024873, Final residual = 2.07235e-05, No Iterations 5
DILUPBiCGStab:  Solving for Uy, Initial residual = 0.00741666, Final residual = 5.77342e-05, No Iterations 5
DILUPBiCGStab:  Solving for Uz, Initial residual = 0.0248502, Final residual = 0.000346953, No Iterations 5
linear solve U 608965
[OGL LOG] init_preconditioner : 0 ms
[OGL LOG] solve : 475 ms
BJcudaGKOCG:  Solving for p, Initial residual = 0.231304, Final residual = 9.60752e-07, No Iterations 584
linear solve p 494829
time step continuity errors : sum local = 6.99058e-08, global = 2.44517e-20, cumulative = 3.93506e-20
[OGL LOG] init_preconditioner : 0 ms
[OGL LOG] solve : 483 ms
BJcudaGKOCG:  Solving for p, Initial residual = 0.174242, Final residual = 9.45642e-07, No Iterations 583
linear solve p 504458
time step continuity errors : sum local = 6.91637e-08, global = 3.68217e-20, cumulative = 7.61723e-20
ExecutionTime = 18.02 s  ClockTime = 18 s

Time = 0.00588235

Courant Number mean: 0.176537 max: 0.960088
DILUPBiCGStab:  Solving for Ux, Initial residual = 0.00205612, Final residual = 1.5029e-05, No Iterations 5
DILUPBiCGStab:  Solving for Uy, Initial residual = 0.0059711, Final residual = 3.6132e-05, No Iterations 5
DILUPBiCGStab:  Solving for Uz, Initial residual = 0.019855, Final residual = 0.000272448, No Iterations 5
linear solve U 608249
[OGL LOG] init_preconditioner : 0 ms
[OGL LOG] solve : 477 ms
BJcudaGKOCG:  Solving for p, Initial residual = 0.174288, Final residual = 9.63688e-07, No Iterations 582
linear solve p 496751
time step continuity errors : sum local = 6.921e-08, global = 2.2685e-20, cumulative = 9.88573e-20
[OGL LOG] init_preconditioner : 0 ms
[OGL LOG] solve : 476 ms
BJcudaGKOCG:  Solving for p, Initial residual = 0.135155, Final residual = 9.58412e-07, No Iterations 581
linear solve p 495752
time step continuity errors : sum local = 6.87827e-08, global = 7.77872e-21, cumulative = 1.06636e-19
ExecutionTime = 19.99 s  ClockTime = 20 s

Time = 0.00705882

Courant Number mean: 0.177704 max: 0.960428
DILUPBiCGStab:  Solving for Ux, Initial residual = 0.00174906, Final residual = 1.21877e-05, No Iterations 5
DILUPBiCGStab:  Solving for Uy, Initial residual = 0.0051241, Final residual = 2.67725e-05, No Iterations 5
DILUPBiCGStab:  Solving for Uz, Initial residual = 0.0165779, Final residual = 0.000216554, No Iterations 5
linear solve U 612266
[OGL LOG] init_preconditioner : 0 ms
[OGL LOG] solve : 468 ms
BJcudaGKOCG:  Solving for p, Initial residual = 0.141168, Final residual = 9.96583e-07, No Iterations 570
linear solve p 488138
time step continuity errors : sum local = 6.8956e-08, global = -7.02576e-21, cumulative = 9.96102e-20
[OGL LOG] init_preconditioner : 0 ms
[OGL LOG] solve : 465 ms
BJcudaGKOCG:  Solving for p, Initial residual = 0.112335, Final residual = 9.55294e-07, No Iterations 569
linear solve p 484562
time step continuity errors : sum local = 6.89685e-08, global = -2.21162e-20, cumulative = 7.7494e-20
ExecutionTime = 21.94 s  ClockTime = 22 s

Time = 0.00823529

Courant Number mean: 0.178771 max: 0.960686
DILUPBiCGStab:  Solving for Ux, Initial residual = 0.00151465, Final residual = 9.78434e-06, No Iterations 5
DILUPBiCGStab:  Solving for Uy, Initial residual = 0.00444477, Final residual = 2.00466e-05, No Iterations 5
DILUPBiCGStab:  Solving for Uz, Initial residual = 0.0136238, Final residual = 0.000161981, No Iterations 5
linear solve U 615711
[OGL LOG] init_preconditioner : 0 ms
[OGL LOG] solve : 466 ms
BJcudaGKOCG:  Solving for p, Initial residual = 0.11392, Final residual = 9.89897e-07, No Iterations 568
linear solve p 485795
time step continuity errors : sum local = 6.91466e-08, global = 1.07292e-20, cumulative = 8.82233e-20
[OGL LOG] init_preconditioner : 0 ms
[OGL LOG] solve : 465 ms
BJcudaGKOCG:  Solving for p, Initial residual = 0.091822, Final residual = 9.84974e-07, No Iterations 567
linear solve p 483941
time step continuity errors : sum local = 6.88655e-08, global = -8.41581e-21, cumulative = 7.98074e-20
ExecutionTime = 23.9 s  ClockTime = 24 s

Time = 0.00941176

Courant Number mean: 0.179753 max: 0.960953
DILUPBiCGStab:  Solving for Ux, Initial residual = 0.001345, Final residual = 8.39639e-06, No Iterations 5
DILUPBiCGStab:  Solving for Uy, Initial residual = 0.00391834, Final residual = 1.64922e-05, No Iterations 5
DILUPBiCGStab:  Solving for Uz, Initial residual = 0.0115649, Final residual = 0.000123234, No Iterations 5
linear solve U 613447
[OGL LOG] init_preconditioner : 0 ms
[OGL LOG] solve : 469 ms
BJcudaGKOCG:  Solving for p, Initial residual = 0.0945188, Final residual = 9.61619e-07, No Iterations 564
linear solve p 488668
time step continuity errors : sum local = 6.88566e-08, global = 4.08492e-21, cumulative = 8.38924e-20
[OGL LOG] init_preconditioner : 0 ms
[OGL LOG] solve : 469 ms
BJcudaGKOCG:  Solving for p, Initial residual = 0.0771013, Final residual = 9.95846e-07, No Iterations 562
linear solve p 488239
time step continuity errors : sum local = 6.89256e-08, global = -6.49922e-22, cumulative = 8.32424e-20
ExecutionTime = 25.84 s  ClockTime = 26 s

Time = 0.0105882

Courant Number mean: 0.180649 max: 0.961168
DILUPBiCGStab:  Solving for Ux, Initial residual = 0.00118528, Final residual = 6.93723e-06, No Iterations 5
DILUPBiCGStab:  Solving for Uy, Initial residual = 0.00349481, Final residual = 1.38681e-05, No Iterations 5
DILUPBiCGStab:  Solving for Uz, Initial residual = 0.00963804, Final residual = 8.71537e-05, No Iterations 5
linear solve U 621042
[OGL LOG] init_preconditioner : 0 ms
[OGL LOG] solve : 467 ms
BJcudaGKOCG:  Solving for p, Initial residual = 0.0787019, Final residual = 9.79376e-07, No Iterations 557
linear solve p 487453
time step continuity errors : sum local = 6.90455e-08, global = 7.12309e-21, cumulative = 9.03655e-20
[OGL LOG] init_preconditioner : 0 ms
[OGL LOG] solve : 465 ms
BJcudaGKOCG:  Solving for p, Initial residual = 0.0645006, Final residual = 9.57502e-07, No Iterations 557
linear solve p 484043
time step continuity errors : sum local = 6.88746e-08, global = 4.02166e-20, cumulative = 1.30582e-19
ExecutionTime = 27.82 s  ClockTime = 28 s

Time = 0.0117647

Courant Number mean: 0.181477 max: 0.961382
DILUPBiCGStab:  Solving for Ux, Initial residual = 0.00107352, Final residual = 6.12233e-06, No Iterations 5
DILUPBiCGStab:  Solving for Uy, Initial residual = 0.00312573, Final residual = 1.24597e-05, No Iterations 5
DILUPBiCGStab:  Solving for Uz, Initial residual = 0.00836319, Final residual = 6.59503e-05, No Iterations 5
linear solve U 613452
[OGL LOG] init_preconditioner : 0 ms
[OGL LOG] solve : 458 ms
BJcudaGKOCG:  Solving for p, Initial residual = 0.0658939, Final residual = 9.63978e-07, No Iterations 559
linear solve p 477800
time step continuity errors : sum local = 6.88555e-08, global = 1.3848e-20, cumulative = 1.4443e-19
[OGL LOG] init_preconditioner : 0 ms
[OGL LOG] solve : 457 ms
BJcudaGKOCG:  Solving for p, Initial residual = 0.0542658, Final residual = 9.40075e-07, No Iterations 558
linear solve p 476936
time step continuity errors : sum local = 6.88902e-08, global = -4.18601e-20, cumulative = 1.0257e-19
ExecutionTime = 29.74 s  ClockTime = 29 s

End

