/*---------------------------------------------------------------------------*\
  =========                 |
  \\      /  F ield         | OpenFOAM: The Open Source CFD Toolbox
   \\    /   O peration     | Website:  https://openfoam.org
    \\  /    A nd           | Version:  8
     \\/     M anipulation  |
\*---------------------------------------------------------------------------*/
Build  : 8-ef60d22ea792
Exec   : icoFoam
Date   : Sep 15 2021
Time   : 14:33:37
Host   : "uc2n438.localdomain"
PID    : 3551447
I/O    : uncollated
Case   : /pfs/data5/home/kit/scc/nq7776/data/code/OBR/lidDrivenCavity3D/Variation_init/100/Variation_mesh/55/Variation_matrix_solver/BiCGStab_NoPrecond_Serial/1631709209
nProcs : 1
sigFpe : Enabling floating point exception trapping (FOAM_SIGFPE).
fileModificationChecking : Monitoring run-time modified files using timeStampMaster (fileModificationSkew 10)
allowSystemOperations : Allowing user-supplied system call operations

// * * * * * * * * * * * * * * * * * * * * * * * * * * * * * * * * * * * * * //
Create time

Create mesh for time = 0

Reading transportProperties

Reading field p

Reading field U

Reading/calculating face flux field phi


Starting time loop

Time = 0.00181818

Courant Number mean: 0.170885 max: 0.951813
DILUPBiCGStab:  Solving for Ux, Initial residual = 0.0617772, Final residual = 8.17367e-05, No Iterations 5
DILUPBiCGStab:  Solving for Uy, Initial residual = 0.127918, Final residual = 0.000176819, No Iterations 5
DILUPBiCGStab:  Solving for Uz, Initial residual = 0.177193, Final residual = 0.000215685, No Iterations 5
linear solve U 162736
nonePBiCGStab:  Solving for p, Initial residual = 0.614449, Final residual = 9.71079e-07, No Iterations 345
linear solve p 1447046
time step continuity errors : sum local = 3.19654e-09, global = -1.01806e-20, cumulative = -1.01806e-20
nonePBiCGStab:  Solving for p, Initial residual = 0.429361, Final residual = 9.3489e-07, No Iterations 359
linear solve p 1503749
time step continuity errors : sum local = 1.82359e-09, global = 1.78031e-20, cumulative = 7.62257e-21
ExecutionTime = 4 s  ClockTime = 4 s

Time = 0.00363636

Courant Number mean: 0.173201 max: 0.938447
DILUPBiCGStab:  Solving for Ux, Initial residual = 0.00803516, Final residual = 1.32172e-05, No Iterations 5
DILUPBiCGStab:  Solving for Uy, Initial residual = 0.0188029, Final residual = 2.49159e-05, No Iterations 5
DILUPBiCGStab:  Solving for Uz, Initial residual = 0.0434358, Final residual = 0.000133638, No Iterations 5
linear solve U 148551
nonePBiCGStab:  Solving for p, Initial residual = 0.309283, Final residual = 3.87231e-07, No Iterations 375
linear solve p 1579123
time step continuity errors : sum local = 8.50807e-10, global = 2.15138e-20, cumulative = 2.91363e-20
nonePBiCGStab:  Solving for p, Initial residual = 0.196364, Final residual = 6.10563e-07, No Iterations 391
linear solve p 1648449
time step continuity errors : sum local = 1.30464e-09, global = 1.91874e-21, cumulative = 3.10551e-20
ExecutionTime = 7.45 s  ClockTime = 8 s

Time = 0.00545455

Courant Number mean: 0.175253 max: 0.938256
DILUPBiCGStab:  Solving for Ux, Initial residual = 0.00375087, Final residual = 1.01151e-05, No Iterations 5
DILUPBiCGStab:  Solving for Uy, Initial residual = 0.0092027, Final residual = 1.43111e-05, No Iterations 5
DILUPBiCGStab:  Solving for Uz, Initial residual = 0.0233407, Final residual = 5.77942e-05, No Iterations 5
linear solve U 145928
nonePBiCGStab:  Solving for p, Initial residual = 0.171252, Final residual = 9.54964e-07, No Iterations 371
linear solve p 1560313
time step continuity errors : sum local = 1.3555e-09, global = 3.3007e-20, cumulative = 6.40621e-20
nonePBiCGStab:  Solving for p, Initial residual = 0.116676, Final residual = 4.98212e-07, No Iterations 357
linear solve p 1501276
time step continuity errors : sum local = 7.20249e-10, global = 1.10791e-20, cumulative = 7.51412e-20
ExecutionTime = 10.74 s  ClockTime = 11 s

Time = 0.00727273

Courant Number mean: 0.177048 max: 0.93878
DILUPBiCGStab:  Solving for Ux, Initial residual = 0.00266587, Final residual = 6.46386e-06, No Iterations 5
DILUPBiCGStab:  Solving for Uy, Initial residual = 0.00704444, Final residual = 1.01512e-05, No Iterations 5
DILUPBiCGStab:  Solving for Uz, Initial residual = 0.0168606, Final residual = 3.42808e-05, No Iterations 5
linear solve U 147060
nonePBiCGStab:  Solving for p, Initial residual = 0.103569, Final residual = 9.88146e-07, No Iterations 351
linear solve p 1478411
time step continuity errors : sum local = 1.89061e-09, global = -1.73371e-20, cumulative = 5.7804e-20
nonePBiCGStab:  Solving for p, Initial residual = 0.0729356, Final residual = 9.97633e-07, No Iterations 160
linear solve p 667532
time step continuity errors : sum local = 1.38938e-09, global = -4.00934e-20, cumulative = 1.77107e-20
ExecutionTime = 13.12 s  ClockTime = 13 s

Time = 0.00909091

Courant Number mean: 0.178659 max: 0.939358
DILUPBiCGStab:  Solving for Ux, Initial residual = 0.00214591, Final residual = 4.47567e-06, No Iterations 5
DILUPBiCGStab:  Solving for Uy, Initial residual = 0.00553966, Final residual = 7.70347e-06, No Iterations 5
DILUPBiCGStab:  Solving for Uz, Initial residual = 0.0121012, Final residual = 2.16042e-05, No Iterations 5
linear solve U 147515
nonePBiCGStab:  Solving for p, Initial residual = 0.0677057, Final residual = 5.22671e-07, No Iterations 327
linear solve p 1369507
time step continuity errors : sum local = 9.41693e-10, global = -2.08442e-20, cumulative = -3.1335e-21
nonePBiCGStab:  Solving for p, Initial residual = 0.0494953, Final residual = 8.81777e-07, No Iterations 336
linear solve p 1416458
time step continuity errors : sum local = 1.24824e-09, global = 7.69299e-20, cumulative = 7.37964e-20
ExecutionTime = 16.13 s  ClockTime = 16 s

Time = 0.0109091

Courant Number mean: 0.180069 max: 0.939964
DILUPBiCGStab:  Solving for Ux, Initial residual = 0.0017719, Final residual = 2.9976e-06, No Iterations 5
DILUPBiCGStab:  Solving for Uy, Initial residual = 0.0047307, Final residual = 5.79731e-06, No Iterations 5
DILUPBiCGStab:  Solving for Uz, Initial residual = 0.0101289, Final residual = 1.60258e-05, No Iterations 5
linear solve U 147566
nonePBiCGStab:  Solving for p, Initial residual = 0.044214, Final residual = 8.37526e-07, No Iterations 332
linear solve p 1403358
time step continuity errors : sum local = 1.55313e-09, global = -1.39696e-20, cumulative = 5.98268e-20
nonePBiCGStab:  Solving for p, Initial residual = 0.0331157, Final residual = 9.98056e-07, No Iterations 150
linear solve p 630782
time step continuity errors : sum local = 1.01238e-09, global = -2.06111e-20, cumulative = 3.92157e-20
ExecutionTime = 18.39 s  ClockTime = 19 s

Time = 0.0127273

Courant Number mean: 0.181311 max: 0.940375
DILUPBiCGStab:  Solving for Ux, Initial residual = 0.00150096, Final residual = 1.86404e-06, No Iterations 5
DILUPBiCGStab:  Solving for Uy, Initial residual = 0.00397891, Final residual = 3.94258e-06, No Iterations 5
DILUPBiCGStab:  Solving for Uz, Initial residual = 0.0080538, Final residual = 1.14705e-05, No Iterations 5
linear solve U 148867
nonePBiCGStab:  Solving for p, Initial residual = 0.031318, Final residual = 9.80947e-07, No Iterations 309
linear solve p 1297072
time step continuity errors : sum local = 1.7109e-09, global = 2.61566e-21, cumulative = 4.18313e-20
nonePBiCGStab:  Solving for p, Initial residual = 0.0239818, Final residual = 9.78298e-07, No Iterations 323
linear solve p 1357569
time step continuity errors : sum local = 1.80603e-09, global = -3.59947e-20, cumulative = 5.83664e-21
ExecutionTime = 21.29 s  ClockTime = 22 s

Time = 0.0145455

Courant Number mean: 0.182406 max: 0.940818
DILUPBiCGStab:  Solving for Ux, Initial residual = 0.00128477, Final residual = 1.13241e-06, No Iterations 5
DILUPBiCGStab:  Solving for Uy, Initial residual = 0.00349618, Final residual = 2.56496e-06, No Iterations 5
DILUPBiCGStab:  Solving for Uz, Initial residual = 0.0069479, Final residual = 8.98726e-06, No Iterations 5
linear solve U 147247
nonePBiCGStab:  Solving for p, Initial residual = 0.0215068, Final residual = 2.42357e-07, No Iterations 335
linear solve p 1404610
time step continuity errors : sum local = 4.19756e-10, global = -2.19583e-20, cumulative = -1.61216e-20
nonePBiCGStab:  Solving for p, Initial residual = 0.0167455, Final residual = 8.95534e-07, No Iterations 320
linear solve p 1342440
time step continuity errors : sum local = 1.49598e-09, global = 2.00786e-20, cumulative = 3.95697e-21
ExecutionTime = 24.26 s  ClockTime = 24 s

Time = 0.0163636

Courant Number mean: 0.183372 max: 0.941133
DILUPBiCGStab:  Solving for Ux, Initial residual = 0.0011176, Final residual = 7.05862e-07, No Iterations 5
DILUPBiCGStab:  Solving for Uy, Initial residual = 0.0030093, Final residual = 1.60712e-06, No Iterations 5
DILUPBiCGStab:  Solving for Uz, Initial residual = 0.00588416, Final residual = 6.39623e-06, No Iterations 5
linear solve U 147082
nonePBiCGStab:  Solving for p, Initial residual = 0.0159042, Final residual = 1.2074e-07, No Iterations 315
linear solve p 1320972
time step continuity errors : sum local = 2.11354e-10, global = -3.00244e-20, cumulative = -2.60674e-20
nonePBiCGStab:  Solving for p, Initial residual = 0.0125806, Final residual = 9.37714e-07, No Iterations 320
linear solve p 1340768
time step continuity errors : sum local = 1.72136e-09, global = 2.88381e-20, cumulative = 2.77068e-21
ExecutionTime = 27.16 s  ClockTime = 27 s

Time = 0.0181818

Courant Number mean: 0.18423 max: 0.941454
DILUPBiCGStab:  Solving for Ux, Initial residual = 0.000969222, Final residual = 5.51041e-07, No Iterations 5
DILUPBiCGStab:  Solving for Uy, Initial residual = 0.00268121, Final residual = 1.11368e-06, No Iterations 5
DILUPBiCGStab:  Solving for Uz, Initial residual = 0.00508571, Final residual = 5.37737e-06, No Iterations 5
linear solve U 146932
nonePBiCGStab:  Solving for p, Initial residual = 0.011305, Final residual = 9.80903e-07, No Iterations 313
linear solve p 1311809
time step continuity errors : sum local = 1.79787e-09, global = 3.38906e-20, cumulative = 3.66612e-20
nonePBiCGStab:  Solving for p, Initial residual = 0.00906254, Final residual = 8.48699e-07, No Iterations 146
linear solve p 616779
time step continuity errors : sum local = 8.69665e-10, global = 1.71762e-20, cumulative = 5.38374e-20
ExecutionTime = 29.31 s  ClockTime = 30 s

End

