/*---------------------------------------------------------------------------*\
  =========                 |
  \\      /  F ield         | OpenFOAM: The Open Source CFD Toolbox
   \\    /   O peration     | Website:  https://openfoam.org
    \\  /    A nd           | Version:  8
     \\/     M anipulation  |
\*---------------------------------------------------------------------------*/
Build  : 8-ef60d22ea792
Exec   : icoFoam
Date   : Sep 15 2021
Time   : 13:13:30
Host   : "uc2n438.localdomain"
PID    : 3540078
I/O    : uncollated
Case   : /pfs/data5/home/kit/scc/nq7776/data/code/OBR/lidDrivenCavity3D/Variation_init/100/Variation_mesh/90/Variation_matrix_solver/BiCGStab_NoPrecond_Serial/1631704350
nProcs : 1
sigFpe : Enabling floating point exception trapping (FOAM_SIGFPE).
fileModificationChecking : Monitoring run-time modified files using timeStampMaster (fileModificationSkew 10)
allowSystemOperations : Allowing user-supplied system call operations

// * * * * * * * * * * * * * * * * * * * * * * * * * * * * * * * * * * * * * //
Create time

Create mesh for time = 0

Reading transportProperties

Reading field p

Reading field U

Reading/calculating face flux field phi


Starting time loop

Time = 0.00111111

Courant Number mean: 0.170803 max: 0.959403
DILUPBiCGStab:  Solving for Ux, Initial residual = 0.0817494, Final residual = 0.000236661, No Iterations 5
DILUPBiCGStab:  Solving for Uy, Initial residual = 0.166742, Final residual = 0.000630917, No Iterations 5
DILUPBiCGStab:  Solving for Uz, Initial residual = 0.256474, Final residual = 0.00093799, No Iterations 5
linear solve U 753517
nonePBiCGStab:  Solving for p, Initial residual = 0.628613, Final residual = 8.41338e-07, No Iterations 664
linear solve p 13235939
time step continuity errors : sum local = 1.14002e-09, global = 1.69046e-20, cumulative = 1.69046e-20
nonePBiCGStab:  Solving for p, Initial residual = 0.413688, Final residual = 7.4534e-07, No Iterations 592
linear solve p 11724543
time step continuity errors : sum local = 1.02345e-09, global = -7.77713e-21, cumulative = 9.12747e-21
ExecutionTime = 29.46 s  ClockTime = 29 s

Time = 0.00222222

Courant Number mean: 0.172492 max: 0.961842
DILUPBiCGStab:  Solving for Ux, Initial residual = 0.00648919, Final residual = 6.64903e-05, No Iterations 5
DILUPBiCGStab:  Solving for Uy, Initial residual = 0.0181728, Final residual = 0.000188444, No Iterations 5
DILUPBiCGStab:  Solving for Uz, Initial residual = 0.0559662, Final residual = 0.000787392, No Iterations 5
linear solve U 697477
nonePBiCGStab:  Solving for p, Initial residual = 0.502257, Final residual = 9.90611e-07, No Iterations 568
linear solve p 11369954
time step continuity errors : sum local = 1.05333e-09, global = -1.71792e-20, cumulative = -8.05173e-21
nonePBiCGStab:  Solving for p, Initial residual = 0.412955, Final residual = 9.36668e-07, No Iterations 631
linear solve p 12576155
time step continuity errors : sum local = 1.08302e-09, global = 1.25673e-20, cumulative = 4.51557e-21
ExecutionTime = 54.43 s  ClockTime = 54 s

Time = 0.00333333

Courant Number mean: 0.173861 max: 0.961987
DILUPBiCGStab:  Solving for Ux, Initial residual = 0.00378933, Final residual = 3.60335e-05, No Iterations 5
DILUPBiCGStab:  Solving for Uy, Initial residual = 0.0107322, Final residual = 0.000108717, No Iterations 5
DILUPBiCGStab:  Solving for Uz, Initial residual = 0.0379199, Final residual = 0.000492966, No Iterations 5
linear solve U 687628
nonePBiCGStab:  Solving for p, Initial residual = 0.412782, Final residual = 2.29037e-07, No Iterations 608
linear solve p 12084075
time step continuity errors : sum local = 1.79934e-10, global = 3.4254e-20, cumulative = 3.87695e-20
nonePBiCGStab:  Solving for p, Initial residual = 0.329428, Final residual = 5.22924e-07, No Iterations 567
linear solve p 11302307
time step continuity errors : sum local = 3.95839e-10, global = 6.03652e-21, cumulative = 4.4806e-20
ExecutionTime = 78.84 s  ClockTime = 79 s

Time = 0.00444444

Courant Number mean: 0.175122 max: 0.96203
DILUPBiCGStab:  Solving for Ux, Initial residual = 0.00283407, Final residual = 2.30378e-05, No Iterations 5
DILUPBiCGStab:  Solving for Uy, Initial residual = 0.00840643, Final residual = 6.83047e-05, No Iterations 5
DILUPBiCGStab:  Solving for Uz, Initial residual = 0.0304502, Final residual = 0.000466269, No Iterations 5
linear solve U 693618
nonePBiCGStab:  Solving for p, Initial residual = 0.355984, Final residual = 7.50192e-07, No Iterations 601
linear solve p 11978332
time step continuity errors : sum local = 7.42422e-10, global = -3.51563e-20, cumulative = 9.64973e-21
nonePBiCGStab:  Solving for p, Initial residual = 0.288959, Final residual = 2.10663e-07, No Iterations 633
linear solve p 12624059
time step continuity errors : sum local = 1.56646e-10, global = -5.83601e-21, cumulative = 3.81372e-21
ExecutionTime = 104.47 s  ClockTime = 105 s

Time = 0.00555556

Courant Number mean: 0.176336 max: 0.962264
DILUPBiCGStab:  Solving for Ux, Initial residual = 0.00237804, Final residual = 1.58677e-05, No Iterations 5
DILUPBiCGStab:  Solving for Uy, Initial residual = 0.00657282, Final residual = 4.32625e-05, No Iterations 5
DILUPBiCGStab:  Solving for Uz, Initial residual = 0.0245032, Final residual = 0.00037517, No Iterations 5
linear solve U 693790
nonePBiCGStab:  Solving for p, Initial residual = 0.298747, Final residual = 2.72758e-07, No Iterations 582
linear solve p 11583242
time step continuity errors : sum local = 1.32663e-10, global = -1.58577e-20, cumulative = -1.20439e-20
nonePBiCGStab:  Solving for p, Initial residual = 0.241395, Final residual = 6.65955e-07, No Iterations 582
linear solve p 11582631
time step continuity errors : sum local = 4.65381e-10, global = 9.48979e-22, cumulative = -1.1095e-20
ExecutionTime = 128.66 s  ClockTime = 129 s

Time = 0.00666667

Courant Number mean: 0.177448 max: 0.962592
DILUPBiCGStab:  Solving for Ux, Initial residual = 0.00201595, Final residual = 1.196e-05, No Iterations 5
DILUPBiCGStab:  Solving for Uy, Initial residual = 0.00553034, Final residual = 3.24448e-05, No Iterations 5
DILUPBiCGStab:  Solving for Uz, Initial residual = 0.0204275, Final residual = 0.000326634, No Iterations 5
linear solve U 691304
nonePBiCGStab:  Solving for p, Initial residual = 0.259646, Final residual = 6.51287e-07, No Iterations 589
linear solve p 11661278
time step continuity errors : sum local = 5.68524e-10, global = -2.47613e-20, cumulative = -3.58563e-20
nonePBiCGStab:  Solving for p, Initial residual = 0.210385, Final residual = 9.77144e-07, No Iterations 628
linear solve p 12497339
time step continuity errors : sum local = 5.85806e-10, global = -1.4963e-20, cumulative = -5.08193e-20
ExecutionTime = 153.86 s  ClockTime = 154 s

Time = 0.00777778

Courant Number mean: 0.17848 max: 0.962789
DILUPBiCGStab:  Solving for Ux, Initial residual = 0.00174597, Final residual = 9.88193e-06, No Iterations 5
DILUPBiCGStab:  Solving for Uy, Initial residual = 0.00474594, Final residual = 2.29485e-05, No Iterations 5
DILUPBiCGStab:  Solving for Uz, Initial residual = 0.01701, Final residual = 0.000264465, No Iterations 5
linear solve U 686173
nonePBiCGStab:  Solving for p, Initial residual = 0.222119, Final residual = 8.02059e-07, No Iterations 496
linear solve p 9841587
time step continuity errors : sum local = 6.0833e-10, global = 4.03571e-21, cumulative = -4.67836e-20
nonePBiCGStab:  Solving for p, Initial residual = 0.180112, Final residual = 8.07037e-07, No Iterations 491
linear solve p 9728810
time step continuity errors : sum local = 6.35193e-10, global = -6.93616e-21, cumulative = -5.37198e-20
ExecutionTime = 174.47 s  ClockTime = 175 s

Time = 0.00888889

Courant Number mean: 0.17943 max: 0.963051
DILUPBiCGStab:  Solving for Ux, Initial residual = 0.00153365, Final residual = 8.76111e-06, No Iterations 5
DILUPBiCGStab:  Solving for Uy, Initial residual = 0.00410674, Final residual = 1.98073e-05, No Iterations 5
DILUPBiCGStab:  Solving for Uz, Initial residual = 0.014247, Final residual = 0.000221437, No Iterations 5
linear solve U 692474
nonePBiCGStab:  Solving for p, Initial residual = 0.192655, Final residual = 7.12218e-07, No Iterations 563
linear solve p 11146189
time step continuity errors : sum local = 3.37945e-10, global = 5.87349e-21, cumulative = -4.78463e-20
nonePBiCGStab:  Solving for p, Initial residual = 0.156111, Final residual = 7.49157e-07, No Iterations 544
linear solve p 10800541
time step continuity errors : sum local = 5.7767e-10, global = -2.5459e-20, cumulative = -7.33052e-20
ExecutionTime = 197.45 s  ClockTime = 198 s

Time = 0.01

Courant Number mean: 0.180306 max: 0.963239
DILUPBiCGStab:  Solving for Ux, Initial residual = 0.00134781, Final residual = 8.22973e-06, No Iterations 5
DILUPBiCGStab:  Solving for Uy, Initial residual = 0.00364719, Final residual = 1.63571e-05, No Iterations 5
DILUPBiCGStab:  Solving for Uz, Initial residual = 0.0120825, Final residual = 0.000172737, No Iterations 5
linear solve U 693833
nonePBiCGStab:  Solving for p, Initial residual = 0.16607, Final residual = 8.54532e-07, No Iterations 579
linear solve p 11472077
time step continuity errors : sum local = 3.4781e-10, global = -1.49805e-20, cumulative = -8.82857e-20
nonePBiCGStab:  Solving for p, Initial residual = 0.134854, Final residual = 9.3424e-07, No Iterations 504
linear solve p 10008566
time step continuity errors : sum local = 6.88618e-10, global = 5.23773e-21, cumulative = -8.3048e-20
ExecutionTime = 219.96 s  ClockTime = 221 s

Time = 0.0111111

Courant Number mean: 0.181116 max: 0.963438
DILUPBiCGStab:  Solving for Ux, Initial residual = 0.00120395, Final residual = 7.37764e-06, No Iterations 5
DILUPBiCGStab:  Solving for Uy, Initial residual = 0.00321185, Final residual = 1.53134e-05, No Iterations 5
DILUPBiCGStab:  Solving for Uz, Initial residual = 0.0102332, Final residual = 0.000140178, No Iterations 5
linear solve U 693164
nonePBiCGStab:  Solving for p, Initial residual = 0.143612, Final residual = 4.3075e-07, No Iterations 635
linear solve p 12578393
time step continuity errors : sum local = 2.1518e-10, global = -2.24881e-20, cumulative = -1.05536e-19
nonePBiCGStab:  Solving for p, Initial residual = 0.11645, Final residual = 4.43193e-07, No Iterations 615
linear solve p 12217894
time step continuity errors : sum local = 2.72373e-10, global = 9.76483e-21, cumulative = -9.57713e-20
ExecutionTime = 245.79 s  ClockTime = 246 s

End

