/*---------------------------------------------------------------------------*\
  =========                 |
  \\      /  F ield         | OpenFOAM: The Open Source CFD Toolbox
   \\    /   O peration     | Website:  https://openfoam.org
    \\  /    A nd           | Version:  8
     \\/     M anipulation  |
\*---------------------------------------------------------------------------*/
Build  : 8-ef60d22ea792
Exec   : icoFoam
Date   : Sep 15 2021
Time   : 13:07:36
Host   : "uc2n482.localdomain"
PID    : 3626095
I/O    : uncollated
Case   : /pfs/data5/home/kit/scc/nq7776/data/code/OBR/lidDrivenCavity3D/Variation_init/100/Variation_mesh/5/Variation_matrix_solver/IR_NoPrecond_CUDA/Variation_innerReductionFactor/0.1/1631704054
nProcs : 1
sigFpe : Enabling floating point exception trapping (FOAM_SIGFPE).
fileModificationChecking : Monitoring run-time modified files using timeStampMaster (fileModificationSkew 10)
allowSystemOperations : Allowing user-supplied system call operations

// * * * * * * * * * * * * * * * * * * * * * * * * * * * * * * * * * * * * * //
Create time

Create mesh for time = 0

Reading transportProperties

Reading field p

Reading field U

Reading/calculating face flux field phi


Starting time loop

Time = 0.02

Courant Number mean: 0.144178 max: 0.344046
DILUPBiCGStab:  Solving for Ux, Initial residual = 0.270102, Final residual = 1.39043e-14, No Iterations 5
DILUPBiCGStab:  Solving for Uy, Initial residual = 0.217087, Final residual = 1.19184e-13, No Iterations 5
DILUPBiCGStab:  Solving for Uz, Initial residual = 0.216079, Final residual = 2.72531e-14, No Iterations 5
linear solve U 212
[OGL LOG] init_host_sparsity_pattern : 0 ms
[OGL LOG] matrix not stored update host matrix
[OGL LOG] update_host_mtx : 0 ms
[OGL LOG] matrix is not yet sorted, compute sorting idxs
[OGL LOG] compute_sort : 0 ms
[OGL LOG] matrix is not yet sorted, sorting host matrix
[OGL LOG] sort_host_mtx_sparsity_pattern : 0 ms
[OGL LOG] sort_host_mtx : 0 ms
[OGL LOG] init_preconditioner : 0 ms
[OGL LOG] solve : 10 ms
nonecudaGKOIR:  Solving for p, Initial residual = 0.599316, Final residual = 2.35664e-07, No Iterations 6
linear solve p 745648
time step continuity errors : sum local = 1.8939e-08, global = -7.27257e-19, cumulative = -7.27257e-19
[OGL LOG] init_preconditioner : 0 ms
[OGL LOG] solve : 7 ms
nonecudaGKOIR:  Solving for p, Initial residual = 0.28832, Final residual = 7.45705e-07, No Iterations 5
linear solve p 7960
time step continuity errors : sum local = 3.23934e-08, global = -1.64523e-18, cumulative = -2.37249e-18
ExecutionTime = 0.78 s  ClockTime = 0 s

Time = 0.04

Courant Number mean: 0.143461 max: 0.370002
DILUPBiCGStab:  Solving for Ux, Initial residual = 0.0735166, Final residual = 6.10754e-14, No Iterations 5
DILUPBiCGStab:  Solving for Uy, Initial residual = 0.072579, Final residual = 1.59737e-13, No Iterations 5
DILUPBiCGStab:  Solving for Uz, Initial residual = 0.174731, Final residual = 2.48409e-13, No Iterations 5
linear solve U 98
[OGL LOG] init_preconditioner : 0 ms
[OGL LOG] solve : 9 ms
nonecudaGKOIR:  Solving for p, Initial residual = 0.212158, Final residual = 9.1633e-08, No Iterations 6
linear solve p 10193
time step continuity errors : sum local = 0.000264124, global = 1.78936e-19, cumulative = -2.19355e-18
[OGL LOG] init_preconditioner : 0 ms
[OGL LOG] solve : 8 ms
nonecudaGKOIR:  Solving for p, Initial residual = 0.0746229, Final residual = 2.91082e-07, No Iterations 5
linear solve p 9050
time step continuity errors : sum local = 0.000237014, global = -1.87406e-19, cumulative = -2.38096e-18
ExecutionTime = 0.8 s  ClockTime = 0 s

Time = 0.06

Courant Number mean: 0.145501 max: 0.37555
DILUPBiCGStab:  Solving for Ux, Initial residual = 0.0154115, Final residual = 1.49401e-15, No Iterations 5
DILUPBiCGStab:  Solving for Uy, Initial residual = 0.0201049, Final residual = 2.28395e-14, No Iterations 5
DILUPBiCGStab:  Solving for Uz, Initial residual = 0.0978135, Final residual = 1.16441e-13, No Iterations 5
linear solve U 100
[OGL LOG] init_preconditioner : 0 ms
[OGL LOG] solve : 8 ms
nonecudaGKOIR:  Solving for p, Initial residual = 0.0170458, Final residual = 1.20088e-07, No Iterations 5
linear solve p 8321
time step continuity errors : sum local = 0.000237521, global = -1.02703e-19, cumulative = -2.48366e-18
[OGL LOG] init_preconditioner : 0 ms
[OGL LOG] solve : 6 ms
nonecudaGKOIR:  Solving for p, Initial residual = 0.00365032, Final residual = 1.95403e-07, No Iterations 4
linear solve p 6692
time step continuity errors : sum local = 0.000237436, global = 4.80691e-19, cumulative = -2.00297e-18
ExecutionTime = 0.82 s  ClockTime = 0 s

Time = 0.08

Courant Number mean: 0.147029 max: 0.378253
DILUPBiCGStab:  Solving for Ux, Initial residual = 0.00478793, Final residual = 3.38585e-15, No Iterations 5
DILUPBiCGStab:  Solving for Uy, Initial residual = 0.00643003, Final residual = 1.20407e-14, No Iterations 5
DILUPBiCGStab:  Solving for Uz, Initial residual = 0.028431, Final residual = 4.44318e-14, No Iterations 5
linear solve U 97
[OGL LOG] init_preconditioner : 0 ms
[OGL LOG] solve : 6 ms
nonecudaGKOIR:  Solving for p, Initial residual = 0.00482333, Final residual = 1.62909e-07, No Iterations 4
linear solve p 6866
time step continuity errors : sum local = 0.00023796, global = -4.53163e-19, cumulative = -2.45613e-18
[OGL LOG] init_preconditioner : 0 ms
[OGL LOG] solve : 5 ms
nonecudaGKOIR:  Solving for p, Initial residual = 0.00114477, Final residual = 5.4761e-07, No Iterations 3
linear solve p 5520
time step continuity errors : sum local = 0.000237674, global = 1.39337e-18, cumulative = -1.06276e-18
ExecutionTime = 0.83 s  ClockTime = 0 s

Time = 0.1

Courant Number mean: 0.14778 max: 0.379477
DILUPBiCGStab:  Solving for Ux, Initial residual = 0.00171227, Final residual = 8.30681e-16, No Iterations 5
DILUPBiCGStab:  Solving for Uy, Initial residual = 0.00257347, Final residual = 2.28132e-15, No Iterations 5
DILUPBiCGStab:  Solving for Uz, Initial residual = 0.0107948, Final residual = 1.44889e-14, No Iterations 5
linear solve U 92
[OGL LOG] init_preconditioner : 0 ms
[OGL LOG] solve : 6 ms
nonecudaGKOIR:  Solving for p, Initial residual = 0.00160394, Final residual = 1.22451e-07, No Iterations 4
linear solve p 6405
time step continuity errors : sum local = 0.000237722, global = 7.99387e-19, cumulative = -2.63374e-19
[OGL LOG] init_preconditioner : 0 ms
[OGL LOG] solve : 5 ms
nonecudaGKOIR:  Solving for p, Initial residual = 0.000367557, Final residual = 2.07849e-07, No Iterations 3
linear solve p 5437
time step continuity errors : sum local = 0.000237673, global = 1.69407e-20, cumulative = -2.46434e-19
ExecutionTime = 0.84 s  ClockTime = 0 s

Time = 0.12

Courant Number mean: 0.148155 max: 0.380093
DILUPBiCGStab:  Solving for Ux, Initial residual = 0.000689985, Final residual = 3.07134e-16, No Iterations 5
DILUPBiCGStab:  Solving for Uy, Initial residual = 0.00109056, Final residual = 3.92805e-16, No Iterations 5
DILUPBiCGStab:  Solving for Uz, Initial residual = 0.00414437, Final residual = 4.98641e-15, No Iterations 5
linear solve U 98
[OGL LOG] init_preconditioner : 0 ms
[OGL LOG] solve : 5 ms
nonecudaGKOIR:  Solving for p, Initial residual = 0.00067949, Final residual = 3.09567e-07, No Iterations 3
linear solve p 5255
time step continuity errors : sum local = 0.000237672, global = 8.21622e-19, cumulative = 5.75188e-19
[OGL LOG] init_preconditioner : 0 ms
[OGL LOG] solve : 3 ms
nonecudaGKOIR:  Solving for p, Initial residual = 0.000161367, Final residual = 8.21234e-07, No Iterations 2
linear solve p 4172
time step continuity errors : sum local = 0.00023766, global = -3.854e-19, cumulative = 1.89788e-19
ExecutionTime = 0.85 s  ClockTime = 0 s

Time = 0.14

Courant Number mean: 0.148339 max: 0.380409
DILUPBiCGStab:  Solving for Ux, Initial residual = 0.000300342, Final residual = 1.45245e-16, No Iterations 5
DILUPBiCGStab:  Solving for Uy, Initial residual = 0.000488851, Final residual = 2.03929e-16, No Iterations 5
DILUPBiCGStab:  Solving for Uz, Initial residual = 0.00167025, Final residual = 1.76033e-15, No Iterations 5
linear solve U 98
[OGL LOG] init_preconditioner : 0 ms
[OGL LOG] solve : 4 ms
nonecudaGKOIR:  Solving for p, Initial residual = 0.0003153, Final residual = 1.14248e-07, No Iterations 3
linear solve p 5147
time step continuity errors : sum local = 0.000237652, global = -2.05405e-19, cumulative = -1.56172e-20
[OGL LOG] init_preconditioner : 0 ms
[OGL LOG] solve : 4 ms
nonecudaGKOIR:  Solving for p, Initial residual = 7.17879e-05, Final residual = 2.19673e-07, No Iterations 2
linear solve p 4256
time step continuity errors : sum local = 0.000237649, global = 5.10337e-19, cumulative = 4.9472e-19
ExecutionTime = 0.86 s  ClockTime = 0 s

Time = 0.16

Courant Number mean: 0.148428 max: 0.380568
DILUPBiCGStab:  Solving for Ux, Initial residual = 0.000135448, Final residual = 6.75255e-17, No Iterations 5
DILUPBiCGStab:  Solving for Uy, Initial residual = 0.00022895, Final residual = 1.44874e-16, No Iterations 5
DILUPBiCGStab:  Solving for Uz, Initial residual = 0.000705927, Final residual = 6.17044e-16, No Iterations 5
linear solve U 92
[OGL LOG] init_preconditioner : 0 ms
[OGL LOG] solve : 4 ms
nonecudaGKOIR:  Solving for p, Initial residual = 0.00014962, Final residual = 9.95142e-08, No Iterations 3
linear solve p 5064
time step continuity errors : sum local = 0.000237641, global = -1.63054e-19, cumulative = 3.31666e-19
[OGL LOG] init_preconditioner : 0 ms
[OGL LOG] solve : 4 ms
nonecudaGKOIR:  Solving for p, Initial residual = 3.3774e-05, Final residual = 8.31714e-08, No Iterations 2
linear solve p 4262
time step continuity errors : sum local = 0.000237641, global = -6.22569e-19, cumulative = -2.90903e-19
ExecutionTime = 0.87 s  ClockTime = 0 s

Time = 0.18

Courant Number mean: 0.148472 max: 0.380648
DILUPBiCGStab:  Solving for Ux, Initial residual = 6.19482e-05, Final residual = 2.99445e-17, No Iterations 5
DILUPBiCGStab:  Solving for Uy, Initial residual = 0.000108759, Final residual = 7.71649e-17, No Iterations 5
DILUPBiCGStab:  Solving for Uz, Initial residual = 0.000313282, Final residual = 1.93261e-16, No Iterations 5
linear solve U 93
[OGL LOG] init_preconditioner : 0 ms
[OGL LOG] solve : 2 ms
nonecudaGKOIR:  Solving for p, Initial residual = 7.09085e-05, Final residual = 4.35208e-07, No Iterations 2
linear solve p 2770
time step continuity errors : sum local = 0.000237648, global = -6.56451e-19, cumulative = -9.47353e-19
[OGL LOG] init_preconditioner : 0 ms
[OGL LOG] solve : 3 ms
nonecudaGKOIR:  Solving for p, Initial residual = 1.59603e-05, Final residual = 1.32635e-07, No Iterations 2
linear solve p 4084
time step continuity errors : sum local = 0.000237637, global = 7.85623e-19, cumulative = -1.6173e-19
ExecutionTime = 0.88 s  ClockTime = 0 s

Time = 0.2

Courant Number mean: 0.148493 max: 0.380688
DILUPBiCGStab:  Solving for Ux, Initial residual = 2.86555e-05, Final residual = 1.28486e-17, No Iterations 5
DILUPBiCGStab:  Solving for Uy, Initial residual = 5.16033e-05, Final residual = 3.69607e-17, No Iterations 5
DILUPBiCGStab:  Solving for Uz, Initial residual = 0.000144976, Final residual = 6.89704e-17, No Iterations 5
linear solve U 98
[OGL LOG] init_preconditioner : 0 ms
[OGL LOG] solve : 2 ms
nonecudaGKOIR:  Solving for p, Initial residual = 3.35948e-05, Final residual = 1.63612e-07, No Iterations 2
linear solve p 2904
time step continuity errors : sum local = 0.000237637, global = 8.98914e-19, cumulative = 7.37183e-19
[OGL LOG] init_preconditioner : 0 ms
[OGL LOG] solve : 1 ms
nonecudaGKOIR:  Solving for p, Initial residual = 7.52486e-06, Final residual = 5.94661e-07, No Iterations 1
linear solve p 1500
time step continuity errors : sum local = 0.000237636, global = -1.11385e-18, cumulative = -3.76665e-19
ExecutionTime = 0.89 s  ClockTime = 0 s

End

