/*---------------------------------------------------------------------------*\
  =========                 |
  \\      /  F ield         | OpenFOAM: The Open Source CFD Toolbox
   \\    /   O peration     | Website:  https://openfoam.org
    \\  /    A nd           | Version:  8
     \\/     M anipulation  |
\*---------------------------------------------------------------------------*/
Build  : 8-ef60d22ea792
Exec   : icoFoam
Date   : Sep 15 2021
Time   : 14:11:02
Host   : "uc2n482.localdomain"
PID    : 3642062
I/O    : uncollated
Case   : /pfs/data5/home/kit/scc/nq7776/data/code/OBR/lidDrivenCavity3D/Variation_init/100/Variation_mesh/70/Variation_matrix_solver/BiCGStab_BJ_CUDA/1631707847
nProcs : 1
sigFpe : Enabling floating point exception trapping (FOAM_SIGFPE).
fileModificationChecking : Monitoring run-time modified files using timeStampMaster (fileModificationSkew 10)
allowSystemOperations : Allowing user-supplied system call operations

// * * * * * * * * * * * * * * * * * * * * * * * * * * * * * * * * * * * * * //
Create time

Create mesh for time = 0

Reading transportProperties

Reading field p

Reading field U

Reading/calculating face flux field phi


Starting time loop

Time = 0.00142857

Courant Number mean: 0.170837 max: 0.954853
DILUPBiCGStab:  Solving for Ux, Initial residual = 0.123158, Final residual = 4.78684e-05, No Iterations 5
DILUPBiCGStab:  Solving for Uy, Initial residual = 0.240191, Final residual = 8.17702e-05, No Iterations 5
DILUPBiCGStab:  Solving for Uz, Initial residual = 0.328596, Final residual = 0.000523545, No Iterations 5
linear solve U 371515
[OGL LOG] init_host_sparsity_pattern : 98 ms
[OGL LOG] matrix not stored update host matrix
[OGL LOG] update_host_mtx : 55 ms
[OGL LOG] matrix is not yet sorted, compute sorting idxs
[OGL LOG] compute_sort : 3103 ms
[OGL LOG] matrix is not yet sorted, sorting host matrix
[OGL LOG] sort_host_mtx_sparsity_pattern : 69 ms
[OGL LOG] sort_host_mtx : 37 ms
[OGL LOG] init_preconditioner : 38 ms
[OGL LOG] solve : 442 ms
BJcudaGKOBiCGStab:  Solving for p, Initial residual = 0.567453, Final residual = 8.33675e-07, No Iterations 353
linear solve p 4629804
time step continuity errors : sum local = 1.11092e-09, global = -1.68001e-20, cumulative = -1.68001e-20
[OGL LOG] init_preconditioner : 0 ms
[OGL LOG] solve : 419 ms
BJcudaGKOBiCGStab:  Solving for p, Initial residual = 0.279391, Final residual = 4.28559e-07, No Iterations 338
linear solve p 432540
time step continuity errors : sum local = 1.35817e-05, global = -1.47084e-21, cumulative = -1.82709e-20
ExecutionTime = 7.31 s  ClockTime = 8 s

Time = 0.00285714

Courant Number mean: 0.172878 max: 0.950345
DILUPBiCGStab:  Solving for Ux, Initial residual = 0.00605325, Final residual = 2.35605e-05, No Iterations 5
DILUPBiCGStab:  Solving for Uy, Initial residual = 0.0139714, Final residual = 4.53664e-05, No Iterations 5
DILUPBiCGStab:  Solving for Uz, Initial residual = 0.0806042, Final residual = 0.000777664, No Iterations 5
linear solve U 352590
[OGL LOG] init_preconditioner : 0 ms
[OGL LOG] solve : 435 ms
BJcudaGKOBiCGStab:  Solving for p, Initial residual = 0.324758, Final residual = 5.9374e-07, No Iterations 345
linear solve p 447229
time step continuity errors : sum local = 9.0275e-06, global = 4.01079e-21, cumulative = -1.42601e-20
[OGL LOG] init_preconditioner : 0 ms
[OGL LOG] solve : 446 ms
BJcudaGKOBiCGStab:  Solving for p, Initial residual = 0.232338, Final residual = 5.35698e-07, No Iterations 358
linear solve p 458344
time step continuity errors : sum local = 1.78748e-05, global = 1.97052e-20, cumulative = 5.44512e-21
ExecutionTime = 8.79 s  ClockTime = 9 s

Time = 0.00428571

Courant Number mean: 0.174663 max: 0.952168
DILUPBiCGStab:  Solving for Ux, Initial residual = 0.00281909, Final residual = 1.29435e-05, No Iterations 5
DILUPBiCGStab:  Solving for Uy, Initial residual = 0.0075492, Final residual = 2.61008e-05, No Iterations 5
DILUPBiCGStab:  Solving for Uz, Initial residual = 0.117681, Final residual = 0.0014114, No Iterations 5
linear solve U 345371
[OGL LOG] init_preconditioner : 0 ms
[OGL LOG] solve : 467 ms
BJcudaGKOBiCGStab:  Solving for p, Initial residual = 0.35121, Final residual = 9.52597e-07, No Iterations 373
linear solve p 479119
time step continuity errors : sum local = 2.10115e-07, global = -1.55875e-20, cumulative = -1.01424e-20
[OGL LOG] init_preconditioner : 0 ms
[OGL LOG] solve : 414 ms
BJcudaGKOBiCGStab:  Solving for p, Initial residual = 0.282218, Final residual = 6.44265e-07, No Iterations 332
linear solve p 426586
time step continuity errors : sum local = 4.35565e-05, global = -3.42453e-21, cumulative = -1.35669e-20
ExecutionTime = 10.28 s  ClockTime = 11 s

Time = 0.00571429

Courant Number mean: 0.176239 max: 0.953848
DILUPBiCGStab:  Solving for Ux, Initial residual = 0.0022443, Final residual = 8.25699e-06, No Iterations 5
DILUPBiCGStab:  Solving for Uy, Initial residual = 0.0065109, Final residual = 2.10995e-05, No Iterations 5
DILUPBiCGStab:  Solving for Uz, Initial residual = 0.186853, Final residual = 0.002198, No Iterations 5
linear solve U 342251
[OGL LOG] init_preconditioner : 0 ms
[OGL LOG] solve : 435 ms
BJcudaGKOBiCGStab:  Solving for p, Initial residual = 0.456943, Final residual = 9.51094e-07, No Iterations 347
linear solve p 448038
time step continuity errors : sum local = 1.19676e-05, global = -8.13174e-21, cumulative = -2.16987e-20
[OGL LOG] init_preconditioner : 0 ms
[OGL LOG] solve : 436 ms
BJcudaGKOBiCGStab:  Solving for p, Initial residual = 0.363222, Final residual = 8.00021e-07, No Iterations 351
linear solve p 447343
time step continuity errors : sum local = 4.27087e-06, global = -8.82255e-21, cumulative = -3.05212e-20
ExecutionTime = 11.74 s  ClockTime = 12 s

Time = 0.00714286

Courant Number mean: 0.177661 max: 0.955192
DILUPBiCGStab:  Solving for Ux, Initial residual = 0.00205383, Final residual = 6.04136e-06, No Iterations 5
DILUPBiCGStab:  Solving for Uy, Initial residual = 0.00593665, Final residual = 2.01139e-05, No Iterations 5
DILUPBiCGStab:  Solving for Uz, Initial residual = 0.21486, Final residual = 0.00177125, No Iterations 5
linear solve U 334245
[OGL LOG] init_preconditioner : 0 ms
[OGL LOG] solve : 424 ms
BJcudaGKOBiCGStab:  Solving for p, Initial residual = 0.410983, Final residual = 9.10896e-07, No Iterations 339
linear solve p 434760
time step continuity errors : sum local = 2.31478e-06, global = 3.08774e-20, cumulative = 3.56183e-22
[OGL LOG] init_preconditioner : 0 ms
[OGL LOG] solve : 409 ms
BJcudaGKOBiCGStab:  Solving for p, Initial residual = 0.345288, Final residual = 8.56999e-07, No Iterations 330
linear solve p 421475
time step continuity errors : sum local = 2.89136e-05, global = 2.13161e-20, cumulative = 2.16723e-20
ExecutionTime = 13.13 s  ClockTime = 14 s

Time = 0.00857143

Courant Number mean: 0.178908 max: 0.954551
DILUPBiCGStab:  Solving for Ux, Initial residual = 0.00177132, Final residual = 5.06606e-06, No Iterations 5
DILUPBiCGStab:  Solving for Uy, Initial residual = 0.00514443, Final residual = 1.53117e-05, No Iterations 5
DILUPBiCGStab:  Solving for Uz, Initial residual = 0.139694, Final residual = 0.00068575, No Iterations 5
linear solve U 336234
[OGL LOG] init_preconditioner : 0 ms
[OGL LOG] solve : 427 ms
BJcudaGKOBiCGStab:  Solving for p, Initial residual = 0.279139, Final residual = 8.43154e-07, No Iterations 344
linear solve p 439278
time step continuity errors : sum local = 4.57046e-06, global = 2.57371e-20, cumulative = 4.74095e-20
[OGL LOG] init_preconditioner : 0 ms
[OGL LOG] solve : 425 ms
BJcudaGKOBiCGStab:  Solving for p, Initial residual = 0.224663, Final residual = 1.40068e-07, No Iterations 342
linear solve p 436801
time step continuity errors : sum local = 4.80415e-05, global = -5.43539e-22, cumulative = 4.68659e-20
ExecutionTime = 14.57 s  ClockTime = 15 s

Time = 0.01

Courant Number mean: 0.180036 max: 0.953599
DILUPBiCGStab:  Solving for Ux, Initial residual = 0.00145571, Final residual = 5.78734e-06, No Iterations 5
DILUPBiCGStab:  Solving for Uy, Initial residual = 0.00422954, Final residual = 1.36958e-05, No Iterations 5
DILUPBiCGStab:  Solving for Uz, Initial residual = 0.145977, Final residual = 0.00171186, No Iterations 5
linear solve U 331935
[OGL LOG] init_preconditioner : 0 ms
[OGL LOG] solve : 396 ms
BJcudaGKOBiCGStab:  Solving for p, Initial residual = 0.378244, Final residual = 9.28776e-07, No Iterations 318
linear solve p 406895
time step continuity errors : sum local = 8.86861e-06, global = -4.95496e-20, cumulative = -2.68367e-21
[OGL LOG] init_preconditioner : 0 ms
[OGL LOG] solve : 409 ms
BJcudaGKOBiCGStab:  Solving for p, Initial residual = 0.304348, Final residual = 9.51389e-07, No Iterations 327
linear solve p 420294
time step continuity errors : sum local = 2.17252e-06, global = 1.41601e-20, cumulative = 1.14764e-20
ExecutionTime = 15.93 s  ClockTime = 16 s

Time = 0.0114286

Courant Number mean: 0.181095 max: 0.95569
DILUPBiCGStab:  Solving for Ux, Initial residual = 0.00140135, Final residual = 5.40563e-06, No Iterations 5
DILUPBiCGStab:  Solving for Uy, Initial residual = 0.00416093, Final residual = 1.52109e-05, No Iterations 5
DILUPBiCGStab:  Solving for Uz, Initial residual = 0.145761, Final residual = 0.00147704, No Iterations 5
linear solve U 335824
[OGL LOG] init_preconditioner : 0 ms
[OGL LOG] solve : 429 ms
BJcudaGKOBiCGStab:  Solving for p, Initial residual = 0.30896, Final residual = 9.97996e-07, No Iterations 344
linear solve p 441277
time step continuity errors : sum local = 3.38575e-07, global = 1.8326e-20, cumulative = 2.98025e-20
[OGL LOG] init_preconditioner : 0 ms
[OGL LOG] solve : 400 ms
BJcudaGKOBiCGStab:  Solving for p, Initial residual = 0.267113, Final residual = 9.8095e-07, No Iterations 322
linear solve p 410494
time step continuity errors : sum local = 2.075e-07, global = 6.05207e-20, cumulative = 9.03232e-20
ExecutionTime = 17.31 s  ClockTime = 18 s

Time = 0.0128571

Courant Number mean: 0.181993 max: 0.954942
DILUPBiCGStab:  Solving for Ux, Initial residual = 0.00122829, Final residual = 4.33973e-06, No Iterations 5
DILUPBiCGStab:  Solving for Uy, Initial residual = 0.00362457, Final residual = 1.1542e-05, No Iterations 5
DILUPBiCGStab:  Solving for Uz, Initial residual = 0.109183, Final residual = 0.00074366, No Iterations 5
linear solve U 339077
[OGL LOG] init_preconditioner : 0 ms
[OGL LOG] solve : 428 ms
BJcudaGKOBiCGStab:  Solving for p, Initial residual = 0.220283, Final residual = 9.77599e-07, No Iterations 344
linear solve p 439990
time step continuity errors : sum local = 1.64449e-06, global = 6.23476e-21, cumulative = 9.65579e-20
[OGL LOG] init_preconditioner : 0 ms
[OGL LOG] solve : 423 ms
BJcudaGKOBiCGStab:  Solving for p, Initial residual = 0.189235, Final residual = 1.28477e-07, No Iterations 337
linear solve p 434366
time step continuity errors : sum local = 1.54993e-05, global = -2.30403e-21, cumulative = 9.42539e-20
ExecutionTime = 18.73 s  ClockTime = 19 s

Time = 0.0142857

Courant Number mean: 0.182829 max: 0.954606
DILUPBiCGStab:  Solving for Ux, Initial residual = 0.00106579, Final residual = 3.79617e-06, No Iterations 5
DILUPBiCGStab:  Solving for Uy, Initial residual = 0.00314035, Final residual = 1.03658e-05, No Iterations 5
DILUPBiCGStab:  Solving for Uz, Initial residual = 0.108132, Final residual = 0.00101246, No Iterations 5
linear solve U 333265
[OGL LOG] init_preconditioner : 0 ms
[OGL LOG] solve : 396 ms
BJcudaGKOBiCGStab:  Solving for p, Initial residual = 0.267576, Final residual = 2.06165e-07, No Iterations 319
linear solve p 407523
time step continuity errors : sum local = 4.89818e-05, global = -3.58442e-20, cumulative = 5.84097e-20
[OGL LOG] init_preconditioner : 0 ms
[OGL LOG] solve : 402 ms
BJcudaGKOBiCGStab:  Solving for p, Initial residual = 0.228754, Final residual = 9.96798e-07, No Iterations 324
linear solve p 413455
time step continuity errors : sum local = 4.95959e-06, global = -1.6809e-20, cumulative = 4.16007e-20
ExecutionTime = 20.08 s  ClockTime = 21 s

End

