/*---------------------------------------------------------------------------*\
  =========                 |
  \\      /  F ield         | OpenFOAM: The Open Source CFD Toolbox
   \\    /   O peration     | Website:  https://openfoam.org
    \\  /    A nd           | Version:  8
     \\/     M anipulation  |
\*---------------------------------------------------------------------------*/
Build  : 8-ef60d22ea792
Exec   : icoFoam
Date   : Sep 15 2021
Time   : 13:34:03
Host   : "uc2n482.localdomain"
PID    : 3632252
I/O    : uncollated
Case   : /pfs/data5/home/kit/scc/nq7776/data/code/OBR/lidDrivenCavity3D/Variation_init/100/Variation_mesh/40/Variation_matrix_solver/CG_BJ_CUDA/Variation_maxBlockSize/16/1631705639
nProcs : 1
sigFpe : Enabling floating point exception trapping (FOAM_SIGFPE).
fileModificationChecking : Monitoring run-time modified files using timeStampMaster (fileModificationSkew 10)
allowSystemOperations : Allowing user-supplied system call operations

// * * * * * * * * * * * * * * * * * * * * * * * * * * * * * * * * * * * * * //
Create time

Create mesh for time = 0

Reading transportProperties

Reading field p

Reading field U

Reading/calculating face flux field phi


Starting time loop

Time = 0.0025

Courant Number mean: 0.170274 max: 0.898977
DILUPBiCGStab:  Solving for Ux, Initial residual = 0.0777941, Final residual = 5.00153e-06, No Iterations 5
DILUPBiCGStab:  Solving for Uy, Initial residual = 0.123446, Final residual = 1.39078e-05, No Iterations 5
DILUPBiCGStab:  Solving for Uz, Initial residual = 0.127456, Final residual = 2.53141e-05, No Iterations 5
linear solve U 54652
[OGL LOG] init_host_sparsity_pattern : 17 ms
[OGL LOG] matrix not stored update host matrix
[OGL LOG] update_host_mtx : 9 ms
[OGL LOG] matrix is not yet sorted, compute sorting idxs
[OGL LOG] compute_sort : 504 ms
[OGL LOG] matrix is not yet sorted, sorting host matrix
[OGL LOG] sort_host_mtx_sparsity_pattern : 11 ms
[OGL LOG] sort_host_mtx : 6 ms
[OGL LOG] init_preconditioner : 7 ms
[OGL LOG] solve : 41 ms
BJcudaGKOCG:  Solving for p, Initial residual = 0.406972, Final residual = 8.71934e-07, No Iterations 276
linear solve p 1370095
time step continuity errors : sum local = 2.084e-09, global = -1.89022e-20, cumulative = -1.89022e-20
[OGL LOG] init_preconditioner : 0 ms
[OGL LOG] solve : 39 ms
BJcudaGKOCG:  Solving for p, Initial residual = 0.212572, Final residual = 9.79258e-07, No Iterations 274
linear solve p 41253
time step continuity errors : sum local = 1.88236e-09, global = 5.73473e-20, cumulative = 3.84451e-20
ExecutionTime = 1.8 s  ClockTime = 2 s

Time = 0.005

Courant Number mean: 0.173472 max: 0.913614
DILUPBiCGStab:  Solving for Ux, Initial residual = 0.00786556, Final residual = 6.97741e-06, No Iterations 5
DILUPBiCGStab:  Solving for Uy, Initial residual = 0.0156864, Final residual = 1.02456e-05, No Iterations 5
DILUPBiCGStab:  Solving for Uz, Initial residual = 0.0331137, Final residual = 1.79167e-05, No Iterations 5
linear solve U 48006
[OGL LOG] init_preconditioner : 0 ms
[OGL LOG] solve : 38 ms
BJcudaGKOCG:  Solving for p, Initial residual = 0.146659, Final residual = 9.38325e-07, No Iterations 271
linear solve p 40436
time step continuity errors : sum local = 6.66653e-07, global = 4.76606e-20, cumulative = 8.61057e-20
[OGL LOG] init_preconditioner : 0 ms
[OGL LOG] solve : 38 ms
BJcudaGKOCG:  Solving for p, Initial residual = 0.104781, Final residual = 9.74766e-07, No Iterations 269
linear solve p 40585
time step continuity errors : sum local = 6.28366e-07, global = -1.67028e-20, cumulative = 6.94028e-20
ExecutionTime = 1.96 s  ClockTime = 2 s

Time = 0.0075

Courant Number mean: 0.17602 max: 0.915377
DILUPBiCGStab:  Solving for Ux, Initial residual = 0.00346378, Final residual = 3.3083e-06, No Iterations 5
DILUPBiCGStab:  Solving for Uy, Initial residual = 0.0093035, Final residual = 5.91562e-06, No Iterations 5
DILUPBiCGStab:  Solving for Uz, Initial residual = 0.017889, Final residual = 9.63596e-06, No Iterations 5
linear solve U 47833
[OGL LOG] init_preconditioner : 0 ms
[OGL LOG] solve : 37 ms
BJcudaGKOCG:  Solving for p, Initial residual = 0.0595654, Final residual = 8.89786e-07, No Iterations 258
linear solve p 39606
time step continuity errors : sum local = 6.16985e-07, global = 1.45915e-20, cumulative = 8.39943e-20
[OGL LOG] init_preconditioner : 0 ms
[OGL LOG] solve : 36 ms
BJcudaGKOCG:  Solving for p, Initial residual = 0.0435579, Final residual = 9.35704e-07, No Iterations 256
linear solve p 38695
time step continuity errors : sum local = 6.25635e-07, global = -7.72985e-20, cumulative = 6.69582e-21
ExecutionTime = 2.12 s  ClockTime = 2 s

Time = 0.01

Courant Number mean: 0.178224 max: 0.9168
DILUPBiCGStab:  Solving for Ux, Initial residual = 0.00264592, Final residual = 1.07535e-06, No Iterations 5
DILUPBiCGStab:  Solving for Uy, Initial residual = 0.00688021, Final residual = 2.61714e-06, No Iterations 5
DILUPBiCGStab:  Solving for Uz, Initial residual = 0.0130783, Final residual = 5.09467e-06, No Iterations 5
linear solve U 48158
[OGL LOG] init_preconditioner : 0 ms
[OGL LOG] solve : 36 ms
BJcudaGKOCG:  Solving for p, Initial residual = 0.0322232, Final residual = 8.94834e-07, No Iterations 253
linear solve p 38006
time step continuity errors : sum local = 6.28772e-07, global = 5.43396e-20, cumulative = 6.10354e-20
[OGL LOG] init_preconditioner : 0 ms
[OGL LOG] solve : 36 ms
BJcudaGKOCG:  Solving for p, Initial residual = 0.0246085, Final residual = 8.87166e-07, No Iterations 252
linear solve p 38593
time step continuity errors : sum local = 6.26128e-07, global = 7.47761e-20, cumulative = 1.35811e-19
ExecutionTime = 2.28 s  ClockTime = 3 s

Time = 0.0125

Courant Number mean: 0.180054 max: 0.917664
DILUPBiCGStab:  Solving for Ux, Initial residual = 0.00210911, Final residual = 6.87226e-07, No Iterations 5
DILUPBiCGStab:  Solving for Uy, Initial residual = 0.00541051, Final residual = 9.63033e-07, No Iterations 5
DILUPBiCGStab:  Solving for Uz, Initial residual = 0.00995259, Final residual = 2.78778e-06, No Iterations 5
linear solve U 47932
[OGL LOG] init_preconditioner : 0 ms
[OGL LOG] solve : 35 ms
BJcudaGKOCG:  Solving for p, Initial residual = 0.0202265, Final residual = 9.31125e-07, No Iterations 241
linear solve p 37313
time step continuity errors : sum local = 6.25225e-07, global = -2.92884e-20, cumulative = 1.06523e-19
[OGL LOG] init_preconditioner : 0 ms
[OGL LOG] solve : 34 ms
BJcudaGKOCG:  Solving for p, Initial residual = 0.0155688, Final residual = 9.77216e-07, No Iterations 239
linear solve p 36217
time step continuity errors : sum local = 6.2612e-07, global = 3.47933e-21, cumulative = 1.10002e-19
ExecutionTime = 2.43 s  ClockTime = 3 s

Time = 0.015

Courant Number mean: 0.181609 max: 0.918509
DILUPBiCGStab:  Solving for Ux, Initial residual = 0.00174189, Final residual = 3.58545e-07, No Iterations 5
DILUPBiCGStab:  Solving for Uy, Initial residual = 0.00457552, Final residual = 8.59234e-07, No Iterations 5
DILUPBiCGStab:  Solving for Uz, Initial residual = 0.00838719, Final residual = 2.26607e-06, No Iterations 5
linear solve U 48081
[OGL LOG] init_preconditioner : 0 ms
[OGL LOG] solve : 34 ms
BJcudaGKOCG:  Solving for p, Initial residual = 0.0124366, Final residual = 9.83236e-07, No Iterations 242
linear solve p 36764
time step continuity errors : sum local = 6.26485e-07, global = 9.76668e-20, cumulative = 2.07669e-19
[OGL LOG] init_preconditioner : 0 ms
[OGL LOG] solve : 35 ms
BJcudaGKOCG:  Solving for p, Initial residual = 0.00997345, Final residual = 9.77676e-07, No Iterations 241
linear solve p 37037
time step continuity errors : sum local = 6.26147e-07, global = 6.1019e-20, cumulative = 2.68688e-19
ExecutionTime = 2.59 s  ClockTime = 3 s

Time = 0.0175

Courant Number mean: 0.182919 max: 0.919116
DILUPBiCGStab:  Solving for Ux, Initial residual = 0.00145911, Final residual = 2.82574e-07, No Iterations 5
DILUPBiCGStab:  Solving for Uy, Initial residual = 0.0037737, Final residual = 5.34778e-07, No Iterations 5
DILUPBiCGStab:  Solving for Uz, Initial residual = 0.00672485, Final residual = 1.32562e-06, No Iterations 5
linear solve U 48117
[OGL LOG] init_preconditioner : 0 ms
[OGL LOG] solve : 35 ms
BJcudaGKOCG:  Solving for p, Initial residual = 0.00873826, Final residual = 9.4409e-07, No Iterations 243
linear solve p 37391
time step continuity errors : sum local = 6.25992e-07, global = -2.49684e-20, cumulative = 2.4372e-19
[OGL LOG] init_preconditioner : 0 ms
[OGL LOG] solve : 35 ms
BJcudaGKOCG:  Solving for p, Initial residual = 0.00701559, Final residual = 9.5534e-07, No Iterations 241
linear solve p 37221
time step continuity errors : sum local = 6.26115e-07, global = 1.30281e-22, cumulative = 2.4385e-19
ExecutionTime = 2.75 s  ClockTime = 3 s

Time = 0.02

Courant Number mean: 0.184033 max: 0.919668
DILUPBiCGStab:  Solving for Ux, Initial residual = 0.00122817, Final residual = 1.57077e-07, No Iterations 5
DILUPBiCGStab:  Solving for Uy, Initial residual = 0.00323105, Final residual = 5.21894e-07, No Iterations 5
DILUPBiCGStab:  Solving for Uz, Initial residual = 0.00573331, Final residual = 1.18142e-06, No Iterations 5
linear solve U 48546
[OGL LOG] init_preconditioner : 0 ms
[OGL LOG] solve : 34 ms
BJcudaGKOCG:  Solving for p, Initial residual = 0.00585559, Final residual = 9.7389e-07, No Iterations 236
linear solve p 36215
time step continuity errors : sum local = 6.2618e-07, global = -4.56743e-20, cumulative = 1.98176e-19
[OGL LOG] init_preconditioner : 0 ms
[OGL LOG] solve : 33 ms
BJcudaGKOCG:  Solving for p, Initial residual = 0.00491617, Final residual = 9.83052e-07, No Iterations 235
linear solve p 35786
time step continuity errors : sum local = 6.26155e-07, global = -5.04596e-20, cumulative = 1.47716e-19
ExecutionTime = 2.9 s  ClockTime = 3 s

Time = 0.0225

Courant Number mean: 0.184978 max: 0.920092
DILUPBiCGStab:  Solving for Ux, Initial residual = 0.0010412, Final residual = 1.36354e-07, No Iterations 5
DILUPBiCGStab:  Solving for Uy, Initial residual = 0.00272323, Final residual = 3.78028e-07, No Iterations 5
DILUPBiCGStab:  Solving for Uz, Initial residual = 0.00472941, Final residual = 8.71334e-07, No Iterations 5
linear solve U 52566
[OGL LOG] init_preconditioner : 0 ms
[OGL LOG] solve : 35 ms
BJcudaGKOCG:  Solving for p, Initial residual = 0.00445697, Final residual = 9.90046e-07, No Iterations 239
linear solve p 37363
time step continuity errors : sum local = 6.26096e-07, global = -1.51994e-21, cumulative = 1.46196e-19
[OGL LOG] init_preconditioner : 0 ms
[OGL LOG] solve : 34 ms
BJcudaGKOCG:  Solving for p, Initial residual = 0.00379289, Final residual = 9.97949e-07, No Iterations 237
linear solve p 36498
time step continuity errors : sum local = 6.26165e-07, global = 1.99785e-20, cumulative = 1.66175e-19
ExecutionTime = 3.06 s  ClockTime = 3 s

Time = 0.025

Courant Number mean: 0.185785 max: 0.920464
DILUPBiCGStab:  Solving for Ux, Initial residual = 0.000884704, Final residual = 9.18048e-08, No Iterations 5
DILUPBiCGStab:  Solving for Uy, Initial residual = 0.00233888, Final residual = 4.8063e-07, No Iterations 5
DILUPBiCGStab:  Solving for Uz, Initial residual = 0.00401854, Final residual = 7.58984e-07, No Iterations 5
linear solve U 48456
[OGL LOG] init_preconditioner : 0 ms
[OGL LOG] solve : 33 ms
BJcudaGKOCG:  Solving for p, Initial residual = 0.00328251, Final residual = 9.62151e-07, No Iterations 229
linear solve p 35349
time step continuity errors : sum local = 6.26145e-07, global = -2.47265e-20, cumulative = 1.41448e-19
[OGL LOG] init_preconditioner : 0 ms
[OGL LOG] solve : 33 ms
BJcudaGKOCG:  Solving for p, Initial residual = 0.00288862, Final residual = 9.67545e-07, No Iterations 228
linear solve p 34943
time step continuity errors : sum local = 6.2617e-07, global = 5.19604e-20, cumulative = 1.93409e-19
ExecutionTime = 3.21 s  ClockTime = 3 s

End

