/*---------------------------------------------------------------------------*\
  =========                 |
  \\      /  F ield         | OpenFOAM: The Open Source CFD Toolbox
   \\    /   O peration     | Website:  https://openfoam.org
    \\  /    A nd           | Version:  8
     \\/     M anipulation  |
\*---------------------------------------------------------------------------*/
Build  : 8-ef60d22ea792
Exec   : icoFoam
Date   : Sep 15 2021
Time   : 14:38:14
Host   : "uc2n482.localdomain"
PID    : 3652224
I/O    : uncollated
Case   : /pfs/data5/home/kit/scc/nq7776/data/code/OBR/lidDrivenCavity3D/Variation_init/100/Variation_mesh/80/Variation_matrix_solver/BiCGStab_ILU_CUDA/1631709470
nProcs : 1
sigFpe : Enabling floating point exception trapping (FOAM_SIGFPE).
fileModificationChecking : Monitoring run-time modified files using timeStampMaster (fileModificationSkew 10)
allowSystemOperations : Allowing user-supplied system call operations

// * * * * * * * * * * * * * * * * * * * * * * * * * * * * * * * * * * * * * //
Create time

Create mesh for time = 0

Reading transportProperties

Reading field p

Reading field U

Reading/calculating face flux field phi


Starting time loop

Time = 0.00125

Courant Number mean: 0.170872 max: 0.956305
DILUPBiCGStab:  Solving for Ux, Initial residual = 0.0907333, Final residual = 0.00013873, No Iterations 5
DILUPBiCGStab:  Solving for Uy, Initial residual = 0.175752, Final residual = 0.000395244, No Iterations 5
DILUPBiCGStab:  Solving for Uz, Initial residual = 0.2223, Final residual = 0.000391641, No Iterations 5
linear solve U 543617
[OGL LOG] init_host_sparsity_pattern : 151 ms
[OGL LOG] matrix not stored update host matrix
[OGL LOG] update_host_mtx : 81 ms
[OGL LOG] matrix is not yet sorted, compute sorting idxs
[OGL LOG] compute_sort : 4692 ms
[OGL LOG] matrix is not yet sorted, sorting host matrix
[OGL LOG] sort_host_mtx_sparsity_pattern : 106 ms
[OGL LOG] sort_host_mtx : 63 ms
[OGL LOG] init_preconditioner : 181 ms
[OGL LOG] solve : 1369 ms
ILUcudaGKOBiCGStab:  Solving for p, Initial residual = 0.619793, Final residual = 8.53867e-07, No Iterations 162
linear solve p 7443725
time step continuity errors : sum local = 7.74156e-08, global = 1.07961e-20, cumulative = 1.07961e-20
[OGL LOG] init_preconditioner : 0 ms
[OGL LOG] solve : 1213 ms
ILUcudaGKOBiCGStab:  Solving for p, Initial residual = 0.30589, Final residual = 9.17258e-07, No Iterations 144
linear solve p 1229412
time step continuity errors : sum local = 4.0735e-07, global = -2.11058e-20, cumulative = -1.03097e-20
ExecutionTime = 11.79 s  ClockTime = 12 s

Time = 0.0025

Courant Number mean: 0.172587 max: 0.956625
DILUPBiCGStab:  Solving for Ux, Initial residual = 0.00609832, Final residual = 2.5281e-05, No Iterations 5
DILUPBiCGStab:  Solving for Uy, Initial residual = 0.0152774, Final residual = 8.34397e-05, No Iterations 5
DILUPBiCGStab:  Solving for Uz, Initial residual = 0.0350913, Final residual = 0.00046394, No Iterations 5
linear solve U 497536
[OGL LOG] init_preconditioner : 0 ms
[OGL LOG] solve : 1321 ms
ILUcudaGKOBiCGStab:  Solving for p, Initial residual = 0.304788, Final residual = 8.1418e-07, No Iterations 157
linear solve p 1338450
time step continuity errors : sum local = 1.04857e-06, global = 1.57682e-20, cumulative = 5.4585e-21
[OGL LOG] init_preconditioner : 0 ms
[OGL LOG] solve : 1241 ms
ILUcudaGKOBiCGStab:  Solving for p, Initial residual = 0.187759, Final residual = 8.6049e-07, No Iterations 147
linear solve p 1259386
time step continuity errors : sum local = 2.05294e-06, global = -1.03935e-20, cumulative = -4.93496e-21
ExecutionTime = 15.2 s  ClockTime = 15 s

Time = 0.00375

Courant Number mean: 0.174167 max: 0.956984
DILUPBiCGStab:  Solving for Ux, Initial residual = 0.00272539, Final residual = 1.98704e-05, No Iterations 5
DILUPBiCGStab:  Solving for Uy, Initial residual = 0.00797205, Final residual = 4.87157e-05, No Iterations 5
DILUPBiCGStab:  Solving for Uz, Initial residual = 0.0318927, Final residual = 0.000384506, No Iterations 5
linear solve U 501127
[OGL LOG] init_preconditioner : 0 ms
[OGL LOG] solve : 1482 ms
ILUcudaGKOBiCGStab:  Solving for p, Initial residual = 0.199393, Final residual = 7.69834e-07, No Iterations 176
linear solve p 1498008
time step continuity errors : sum local = 1.04978e-07, global = 1.6439e-20, cumulative = 1.15041e-20
[OGL LOG] init_preconditioner : 0 ms
[OGL LOG] solve : 1146 ms
ILUcudaGKOBiCGStab:  Solving for p, Initial residual = 0.15068, Final residual = 9.32739e-07, No Iterations 136
linear solve p 1162978
time step continuity errors : sum local = 8.64672e-07, global = -4.3532e-20, cumulative = -3.20279e-20
ExecutionTime = 18.66 s  ClockTime = 19 s

Time = 0.005

Courant Number mean: 0.175608 max: 0.957352
DILUPBiCGStab:  Solving for Ux, Initial residual = 0.00209432, Final residual = 1.42194e-05, No Iterations 5
DILUPBiCGStab:  Solving for Uy, Initial residual = 0.00665686, Final residual = 3.33934e-05, No Iterations 5
DILUPBiCGStab:  Solving for Uz, Initial residual = 0.0317241, Final residual = 0.000320372, No Iterations 5
linear solve U 500960
[OGL LOG] init_preconditioner : 0 ms
[OGL LOG] solve : 1177 ms
ILUcudaGKOBiCGStab:  Solving for p, Initial residual = 0.157182, Final residual = 9.78044e-07, No Iterations 140
linear solve p 1194593
time step continuity errors : sum local = 7.60301e-08, global = 2.31113e-20, cumulative = -8.91665e-21
[OGL LOG] init_preconditioner : 0 ms
[OGL LOG] solve : 1209 ms
ILUcudaGKOBiCGStab:  Solving for p, Initial residual = 0.126603, Final residual = 8.75962e-07, No Iterations 144
linear solve p 1227495
time step continuity errors : sum local = 7.67568e-08, global = -1.15776e-20, cumulative = -2.04943e-20
ExecutionTime = 21.91 s  ClockTime = 22 s

Time = 0.00625

Courant Number mean: 0.176919 max: 0.957721
DILUPBiCGStab:  Solving for Ux, Initial residual = 0.00180999, Final residual = 1.12389e-05, No Iterations 5
DILUPBiCGStab:  Solving for Uy, Initial residual = 0.00548478, Final residual = 2.39487e-05, No Iterations 5
DILUPBiCGStab:  Solving for Uz, Initial residual = 0.0254225, Final residual = 0.000214049, No Iterations 5
linear solve U 501522
[OGL LOG] init_preconditioner : 0 ms
[OGL LOG] solve : 637 ms
ILUcudaGKOBiCGStab:  Solving for p, Initial residual = 0.123017, Final residual = 6.21225e-07, No Iterations 75
linear solve p 653053
time step continuity errors : sum local = 7.97828e-08, global = 5.58374e-21, cumulative = -1.49105e-20
[OGL LOG] init_preconditioner : 0 ms
[OGL LOG] solve : 614 ms
ILUcudaGKOBiCGStab:  Solving for p, Initial residual = 0.0998644, Final residual = 9.76352e-07, No Iterations 73
linear solve p 629797
time step continuity errors : sum local = 7.68721e-08, global = 1.12188e-20, cumulative = -3.69173e-21
ExecutionTime = 24.01 s  ClockTime = 24 s

Time = 0.0075

Courant Number mean: 0.178117 max: 0.958092
DILUPBiCGStab:  Solving for Ux, Initial residual = 0.00156972, Final residual = 9.33685e-06, No Iterations 5
DILUPBiCGStab:  Solving for Uy, Initial residual = 0.00481193, Final residual = 1.83733e-05, No Iterations 5
DILUPBiCGStab:  Solving for Uz, Initial residual = 0.0208653, Final residual = 0.000149279, No Iterations 5
linear solve U 529961
[OGL LOG] init_preconditioner : 0 ms
[OGL LOG] solve : 613 ms
ILUcudaGKOBiCGStab:  Solving for p, Initial residual = 0.101337, Final residual = 9.34974e-07, No Iterations 72
linear solve p 629874
time step continuity errors : sum local = 7.75481e-08, global = -2.83542e-21, cumulative = -6.52715e-21
[OGL LOG] init_preconditioner : 0 ms
[OGL LOG] solve : 658 ms
ILUcudaGKOBiCGStab:  Solving for p, Initial residual = 0.0830753, Final residual = 8.53619e-07, No Iterations 78
linear solve p 674326
time step continuity errors : sum local = 7.69225e-08, global = 2.60408e-20, cumulative = 1.95136e-20
ExecutionTime = 26.15 s  ClockTime = 26 s

Time = 0.00875

Courant Number mean: 0.179203 max: 0.958361
DILUPBiCGStab:  Solving for Ux, Initial residual = 0.00137964, Final residual = 7.58233e-06, No Iterations 5
DILUPBiCGStab:  Solving for Uy, Initial residual = 0.00419454, Final residual = 1.49509e-05, No Iterations 5
DILUPBiCGStab:  Solving for Uz, Initial residual = 0.0165038, Final residual = 0.000100514, No Iterations 5
linear solve U 497619
[OGL LOG] init_preconditioner : 0 ms
[OGL LOG] solve : 1232 ms
ILUcudaGKOBiCGStab:  Solving for p, Initial residual = 0.0830113, Final residual = 6.22173e-07, No Iterations 146
linear solve p 1249267
time step continuity errors : sum local = 9.5688e-07, global = 6.04837e-21, cumulative = 2.5562e-20
[OGL LOG] init_preconditioner : 0 ms
[OGL LOG] solve : 1185 ms
ILUcudaGKOBiCGStab:  Solving for p, Initial residual = 0.067076, Final residual = 9.03648e-07, No Iterations 141
linear solve p 1201744
time step continuity errors : sum local = 7.66129e-08, global = -2.11648e-20, cumulative = 4.39718e-21
ExecutionTime = 29.4 s  ClockTime = 30 s

Time = 0.01

Courant Number mean: 0.180199 max: 0.958655
DILUPBiCGStab:  Solving for Ux, Initial residual = 0.00123723, Final residual = 6.63799e-06, No Iterations 5
DILUPBiCGStab:  Solving for Uy, Initial residual = 0.00372571, Final residual = 1.07472e-05, No Iterations 5
DILUPBiCGStab:  Solving for Uz, Initial residual = 0.0158556, Final residual = 0.000128659, No Iterations 5
linear solve U 514291
[OGL LOG] init_preconditioner : 0 ms
[OGL LOG] solve : 1159 ms
ILUcudaGKOBiCGStab:  Solving for p, Initial residual = 0.0746579, Final residual = 9.91869e-07, No Iterations 138
linear solve p 1175469
time step continuity errors : sum local = 7.64548e-08, global = -1.1121e-20, cumulative = -6.72386e-21
[OGL LOG] init_preconditioner : 0 ms
[OGL LOG] solve : 1229 ms
ILUcudaGKOBiCGStab:  Solving for p, Initial residual = 0.0617289, Final residual = 9.68252e-07, No Iterations 146
linear solve p 1244689
time step continuity errors : sum local = 7.65656e-08, global = 2.82451e-21, cumulative = -3.89935e-21
ExecutionTime = 32.64 s  ClockTime = 33 s

Time = 0.01125

Courant Number mean: 0.181104 max: 0.958867
DILUPBiCGStab:  Solving for Ux, Initial residual = 0.00109866, Final residual = 5.11518e-06, No Iterations 5
DILUPBiCGStab:  Solving for Uy, Initial residual = 0.00333035, Final residual = 9.69032e-06, No Iterations 5
DILUPBiCGStab:  Solving for Uz, Initial residual = 0.0135926, Final residual = 8.14806e-05, No Iterations 5
linear solve U 500569
[OGL LOG] init_preconditioner : 0 ms
[OGL LOG] solve : 587 ms
ILUcudaGKOBiCGStab:  Solving for p, Initial residual = 0.0620756, Final residual = 9.57589e-07, No Iterations 69
linear solve p 603125
time step continuity errors : sum local = 7.76998e-08, global = -2.02878e-20, cumulative = -2.41872e-20
[OGL LOG] init_preconditioner : 0 ms
[OGL LOG] solve : 587 ms
ILUcudaGKOBiCGStab:  Solving for p, Initial residual = 0.0511804, Final residual = 9.82822e-07, No Iterations 69
linear solve p 603141
time step continuity errors : sum local = 7.87044e-08, global = -1.75666e-21, cumulative = -2.59439e-20
ExecutionTime = 34.64 s  ClockTime = 35 s

Time = 0.0125

Courant Number mean: 0.181936 max: 0.959104
DILUPBiCGStab:  Solving for Ux, Initial residual = 0.000999154, Final residual = 4.772e-06, No Iterations 5
DILUPBiCGStab:  Solving for Uy, Initial residual = 0.00298805, Final residual = 6.79218e-06, No Iterations 5
DILUPBiCGStab:  Solving for Uz, Initial residual = 0.0114496, Final residual = 5.78e-05, No Iterations 5
linear solve U 502384
[OGL LOG] init_preconditioner : 0 ms
[OGL LOG] solve : 1050 ms
ILUcudaGKOBiCGStab:  Solving for p, Initial residual = 0.0517062, Final residual = 9.28755e-07, No Iterations 125
linear solve p 1066375
time step continuity errors : sum local = 7.67498e-08, global = 5.10823e-21, cumulative = -2.08356e-20
[OGL LOG] init_preconditioner : 0 ms
[OGL LOG] solve : 1155 ms
ILUcudaGKOBiCGStab:  Solving for p, Initial residual = 0.042729, Final residual = 9.19258e-07, No Iterations 137
linear solve p 1172228
time step continuity errors : sum local = 7.65494e-08, global = 3.30384e-21, cumulative = -1.75318e-20
ExecutionTime = 37.69 s  ClockTime = 38 s

End

