/*---------------------------------------------------------------------------*\
  =========                 |
  \\      /  F ield         | OpenFOAM: The Open Source CFD Toolbox
   \\    /   O peration     | Website:  https://openfoam.org
    \\  /    A nd           | Version:  8
     \\/     M anipulation  |
\*---------------------------------------------------------------------------*/
Build  : 8-ef60d22ea792
Exec   : icoFoam
Date   : Sep 15 2021
Time   : 14:59:16
Host   : "uc2n482.localdomain"
PID    : 3657378
I/O    : uncollated
Case   : /pfs/data5/home/kit/scc/nq7776/data/code/OBR/lidDrivenCavity3D/Variation_init/100/Variation_mesh/10/Variation_matrix_solver/IR_NoPrecond_CUDA/Variation_innerReductionFactor/0.01/1631710754
nProcs : 1
sigFpe : Enabling floating point exception trapping (FOAM_SIGFPE).
fileModificationChecking : Monitoring run-time modified files using timeStampMaster (fileModificationSkew 10)
allowSystemOperations : Allowing user-supplied system call operations

// * * * * * * * * * * * * * * * * * * * * * * * * * * * * * * * * * * * * * //
Create time

Create mesh for time = 0

Reading transportProperties

Reading field p

Reading field U

Reading/calculating face flux field phi


Starting time loop

Time = 0.01

Courant Number mean: 0.164367 max: 0.687382
DILUPBiCGStab:  Solving for Ux, Initial residual = 0.143876, Final residual = 4.90416e-10, No Iterations 5
DILUPBiCGStab:  Solving for Uy, Initial residual = 0.166383, Final residual = 9.49899e-10, No Iterations 5
DILUPBiCGStab:  Solving for Uz, Initial residual = 0.331866, Final residual = 6.25857e-09, No Iterations 5
linear solve U 783
[OGL LOG] init_host_sparsity_pattern : 0 ms
[OGL LOG] matrix not stored update host matrix
[OGL LOG] update_host_mtx : 0 ms
[OGL LOG] matrix is not yet sorted, compute sorting idxs
[OGL LOG] compute_sort : 5 ms
[OGL LOG] matrix is not yet sorted, sorting host matrix
[OGL LOG] sort_host_mtx_sparsity_pattern : 0 ms
[OGL LOG] sort_host_mtx : 0 ms
[OGL LOG] init_preconditioner : 0 ms
[OGL LOG] solve : 13 ms
nonecudaGKOIR:  Solving for p, Initial residual = 0.61492, Final residual = 9.04533e-07, No Iterations 3
linear solve p 763710
time step continuity errors : sum local = 3.23101e-08, global = -1.96914e-19, cumulative = -1.96914e-19
[OGL LOG] init_preconditioner : 0 ms
[OGL LOG] solve : 13 ms
nonecudaGKOIR:  Solving for p, Initial residual = 0.306168, Final residual = 2.33824e-07, No Iterations 3
linear solve p 13752
time step continuity errors : sum local = 4.65005e-09, global = 2.21238e-19, cumulative = 2.43238e-20
ExecutionTime = 0.82 s  ClockTime = 1 s

Time = 0.02

Courant Number mean: 0.168824 max: 0.675339
DILUPBiCGStab:  Solving for Ux, Initial residual = 0.0355473, Final residual = 1.50456e-09, No Iterations 5
DILUPBiCGStab:  Solving for Uy, Initial residual = 0.0400343, Final residual = 6.38256e-10, No Iterations 5
DILUPBiCGStab:  Solving for Uz, Initial residual = 0.103392, Final residual = 1.84313e-09, No Iterations 5
linear solve U 585
[OGL LOG] init_preconditioner : 0 ms
[OGL LOG] solve : 13 ms
nonecudaGKOIR:  Solving for p, Initial residual = 0.153463, Final residual = 1.89926e-07, No Iterations 3
linear solve p 13282
time step continuity errors : sum local = 2.73777e-05, global = 2.06266e-19, cumulative = 2.3059e-19
[OGL LOG] init_preconditioner : 0 ms
[OGL LOG] solve : 13 ms
nonecudaGKOIR:  Solving for p, Initial residual = 0.0682508, Final residual = 6.48997e-08, No Iterations 3
linear solve p 13951
time step continuity errors : sum local = 2.45614e-05, global = 2.24133e-19, cumulative = 4.54722e-19
ExecutionTime = 0.85 s  ClockTime = 1 s

Time = 0.03

Courant Number mean: 0.172125 max: 0.67452
DILUPBiCGStab:  Solving for Ux, Initial residual = 0.00786251, Final residual = 3.41257e-10, No Iterations 5
DILUPBiCGStab:  Solving for Uy, Initial residual = 0.0117526, Final residual = 1.81655e-10, No Iterations 5
DILUPBiCGStab:  Solving for Uz, Initial residual = 0.0329083, Final residual = 7.77888e-10, No Iterations 5
linear solve U 571
[OGL LOG] init_preconditioner : 0 ms
[OGL LOG] solve : 12 ms
nonecudaGKOIR:  Solving for p, Initial residual = 0.0151555, Final residual = 7.82556e-09, No Iterations 3
linear solve p 13069
time step continuity errors : sum local = 2.43581e-05, global = -3.92679e-19, cumulative = 6.20432e-20
[OGL LOG] init_preconditioner : 0 ms
[OGL LOG] solve : 9 ms
nonecudaGKOIR:  Solving for p, Initial residual = 0.00703057, Final residual = 6.47648e-07, No Iterations 2
linear solve p 9497
time step continuity errors : sum local = 2.43908e-05, global = 1.69936e-19, cumulative = 2.31979e-19
ExecutionTime = 0.86 s  ClockTime = 1 s

Time = 0.04

Courant Number mean: 0.174438 max: 0.676488
DILUPBiCGStab:  Solving for Ux, Initial residual = 0.00346889, Final residual = 8.54552e-11, No Iterations 5
DILUPBiCGStab:  Solving for Uy, Initial residual = 0.00573782, Final residual = 8.30682e-11, No Iterations 5
DILUPBiCGStab:  Solving for Uz, Initial residual = 0.0109314, Final residual = 1.59534e-10, No Iterations 5
linear solve U 571
[OGL LOG] init_preconditioner : 0 ms
[OGL LOG] solve : 9 ms
nonecudaGKOIR:  Solving for p, Initial residual = 0.00633134, Final residual = 5.7843e-07, No Iterations 2
linear solve p 10219
time step continuity errors : sum local = 2.44231e-05, global = 2.67742e-19, cumulative = 4.99721e-19
[OGL LOG] init_preconditioner : 0 ms
[OGL LOG] solve : 9 ms
nonecudaGKOIR:  Solving for p, Initial residual = 0.00352264, Final residual = 2.74953e-07, No Iterations 2
linear solve p 9965
time step continuity errors : sum local = 2.43928e-05, global = -2.65293e-19, cumulative = 2.34428e-19
ExecutionTime = 0.89 s  ClockTime = 1 s

Time = 0.05

Courant Number mean: 0.17593 max: 0.67828
DILUPBiCGStab:  Solving for Ux, Initial residual = 0.00187322, Final residual = 4.1477e-11, No Iterations 5
DILUPBiCGStab:  Solving for Uy, Initial residual = 0.00338892, Final residual = 1.909e-11, No Iterations 5
DILUPBiCGStab:  Solving for Uz, Initial residual = 0.00559432, Final residual = 7.97257e-11, No Iterations 5
linear solve U 592
[OGL LOG] init_preconditioner : 0 ms
[OGL LOG] solve : 10 ms
nonecudaGKOIR:  Solving for p, Initial residual = 0.00308565, Final residual = 3.31493e-07, No Iterations 2
linear solve p 10250
time step continuity errors : sum local = 2.43864e-05, global = -5.11131e-19, cumulative = -2.76704e-19
[OGL LOG] init_preconditioner : 0 ms
[OGL LOG] solve : 9 ms
nonecudaGKOIR:  Solving for p, Initial residual = 0.00176218, Final residual = 1.58295e-07, No Iterations 2
linear solve p 9892
time step continuity errors : sum local = 2.43854e-05, global = 6.67038e-19, cumulative = 3.90335e-19
ExecutionTime = 0.91 s  ClockTime = 1 s

Time = 0.06

Courant Number mean: 0.176864 max: 0.679468
DILUPBiCGStab:  Solving for Ux, Initial residual = 0.00111327, Final residual = 1.55529e-11, No Iterations 5
DILUPBiCGStab:  Solving for Uy, Initial residual = 0.00209472, Final residual = 1.01792e-11, No Iterations 5
DILUPBiCGStab:  Solving for Uz, Initial residual = 0.00302028, Final residual = 5.87123e-11, No Iterations 5
linear solve U 573
[OGL LOG] init_preconditioner : 0 ms
[OGL LOG] solve : 9 ms
nonecudaGKOIR:  Solving for p, Initial residual = 0.00188658, Final residual = 1.60345e-07, No Iterations 2
linear solve p 9827
time step continuity errors : sum local = 2.43796e-05, global = -1.05614e-19, cumulative = 2.8472e-19
[OGL LOG] init_preconditioner : 0 ms
[OGL LOG] solve : 9 ms
nonecudaGKOIR:  Solving for p, Initial residual = 0.00108267, Final residual = 9.17042e-08, No Iterations 2
linear solve p 10063
time step continuity errors : sum local = 2.43807e-05, global = 5.92658e-19, cumulative = 8.77379e-19
ExecutionTime = 0.93 s  ClockTime = 1 s

Time = 0.07

Courant Number mean: 0.177444 max: 0.680222
DILUPBiCGStab:  Solving for Ux, Initial residual = 0.000680265, Final residual = 7.14923e-12, No Iterations 5
DILUPBiCGStab:  Solving for Uy, Initial residual = 0.00129779, Final residual = 6.10849e-12, No Iterations 5
DILUPBiCGStab:  Solving for Uz, Initial residual = 0.00176908, Final residual = 3.81232e-11, No Iterations 5
linear solve U 573
[OGL LOG] init_preconditioner : 0 ms
[OGL LOG] solve : 9 ms
nonecudaGKOIR:  Solving for p, Initial residual = 0.00115077, Final residual = 1.17766e-07, No Iterations 2
linear solve p 9801
time step continuity errors : sum local = 2.43768e-05, global = -1.51275e-19, cumulative = 7.26104e-19
[OGL LOG] init_preconditioner : 0 ms
[OGL LOG] solve : 9 ms
nonecudaGKOIR:  Solving for p, Initial residual = 0.000656299, Final residual = 6.27172e-08, No Iterations 2
linear solve p 9739
time step continuity errors : sum local = 2.4378e-05, global = 5.04382e-19, cumulative = 1.23049e-18
ExecutionTime = 0.95 s  ClockTime = 1 s

Time = 0.08

Courant Number mean: 0.177803 max: 0.680688
DILUPBiCGStab:  Solving for Ux, Initial residual = 0.000418542, Final residual = 3.53591e-12, No Iterations 5
DILUPBiCGStab:  Solving for Uy, Initial residual = 0.000805914, Final residual = 3.70973e-12, No Iterations 5
DILUPBiCGStab:  Solving for Uz, Initial residual = 0.00106478, Final residual = 2.40234e-11, No Iterations 5
linear solve U 584
[OGL LOG] init_preconditioner : 0 ms
[OGL LOG] solve : 9 ms
nonecudaGKOIR:  Solving for p, Initial residual = 0.000708216, Final residual = 5.82092e-08, No Iterations 2
linear solve p 9280
time step continuity errors : sum local = 2.43755e-05, global = 9.03943e-20, cumulative = 1.32088e-18
[OGL LOG] init_preconditioner : 0 ms
[OGL LOG] solve : 9 ms
nonecudaGKOIR:  Solving for p, Initial residual = 0.000404066, Final residual = 3.34669e-08, No Iterations 2
linear solve p 9913
time step continuity errors : sum local = 2.43763e-05, global = 5.68439e-20, cumulative = 1.37772e-18
ExecutionTime = 0.97 s  ClockTime = 1 s

Time = 0.09

Courant Number mean: 0.178025 max: 0.680973
DILUPBiCGStab:  Solving for Ux, Initial residual = 0.000258421, Final residual = 1.77555e-12, No Iterations 5
DILUPBiCGStab:  Solving for Uy, Initial residual = 0.000500307, Final residual = 2.26237e-12, No Iterations 5
DILUPBiCGStab:  Solving for Uz, Initial residual = 0.000648855, Final residual = 1.48916e-11, No Iterations 5
linear solve U 592
[OGL LOG] init_preconditioner : 0 ms
[OGL LOG] solve : 9 ms
nonecudaGKOIR:  Solving for p, Initial residual = 0.00043646, Final residual = 3.81479e-08, No Iterations 2
linear solve p 9531
time step continuity errors : sum local = 2.43748e-05, global = 5.88953e-19, cumulative = 1.96668e-18
[OGL LOG] init_preconditioner : 0 ms
[OGL LOG] solve : 9 ms
nonecudaGKOIR:  Solving for p, Initial residual = 0.000248783, Final residual = 2.49936e-08, No Iterations 2
linear solve p 9642
time step continuity errors : sum local = 2.43754e-05, global = -3.85896e-19, cumulative = 1.58078e-18
ExecutionTime = 0.99 s  ClockTime = 1 s

Time = 0.1

Courant Number mean: 0.178162 max: 0.681146
DILUPBiCGStab:  Solving for Ux, Initial residual = 0.000159824, Final residual = 8.85086e-13, No Iterations 5
DILUPBiCGStab:  Solving for Uy, Initial residual = 0.000310564, Final residual = 1.38654e-12, No Iterations 5
DILUPBiCGStab:  Solving for Uz, Initial residual = 0.000398099, Final residual = 9.06004e-12, No Iterations 5
linear solve U 588
[OGL LOG] init_preconditioner : 0 ms
[OGL LOG] solve : 9 ms
nonecudaGKOIR:  Solving for p, Initial residual = 0.000269248, Final residual = 2.59907e-08, No Iterations 2
linear solve p 9531
time step continuity errors : sum local = 2.43744e-05, global = 4.36751e-21, cumulative = 1.58515e-18
[OGL LOG] init_preconditioner : 0 ms
[OGL LOG] solve : 9 ms
nonecudaGKOIR:  Solving for p, Initial residual = 0.000153422, Final residual = 1.5103e-08, No Iterations 2
linear solve p 9590
time step continuity errors : sum local = 2.43748e-05, global = -6.19062e-19, cumulative = 9.66085e-19
ExecutionTime = 1.01 s  ClockTime = 1 s

End

