/*---------------------------------------------------------------------------*\
  =========                 |
  \\      /  F ield         | OpenFOAM: The Open Source CFD Toolbox
   \\    /   O peration     | Website:  https://openfoam.org
    \\  /    A nd           | Version:  8
     \\/     M anipulation  |
\*---------------------------------------------------------------------------*/
Build  : 8-ef60d22ea792
Exec   : icoFoam
Date   : Sep 15 2021
Time   : 15:02:50
Host   : "uc2n482.localdomain"
PID    : 3659455
I/O    : uncollated
Case   : /pfs/data5/home/kit/scc/nq7776/data/code/OBR/lidDrivenCavity3D/Variation_init/100/Variation_mesh/55/Variation_matrix_solver/CG_BJ_CUDA/Variation_maxBlockSize/8/1631710962
nProcs : 1
sigFpe : Enabling floating point exception trapping (FOAM_SIGFPE).
fileModificationChecking : Monitoring run-time modified files using timeStampMaster (fileModificationSkew 10)
allowSystemOperations : Allowing user-supplied system call operations

// * * * * * * * * * * * * * * * * * * * * * * * * * * * * * * * * * * * * * //
Create time

Create mesh for time = 0

Reading transportProperties

Reading field p

Reading field U

Reading/calculating face flux field phi


Starting time loop

Time = 0.00181818

Courant Number mean: 0.170885 max: 0.951813
DILUPBiCGStab:  Solving for Ux, Initial residual = 0.0617772, Final residual = 8.17367e-05, No Iterations 5
DILUPBiCGStab:  Solving for Uy, Initial residual = 0.127918, Final residual = 0.000176819, No Iterations 5
DILUPBiCGStab:  Solving for Uz, Initial residual = 0.177193, Final residual = 0.000215685, No Iterations 5
linear solve U 164687
[OGL LOG] init_host_sparsity_pattern : 48 ms
[OGL LOG] matrix not stored update host matrix
[OGL LOG] update_host_mtx : 26 ms
[OGL LOG] matrix is not yet sorted, compute sorting idxs
[OGL LOG] compute_sort : 1446 ms
[OGL LOG] matrix is not yet sorted, sorting host matrix
[OGL LOG] sort_host_mtx_sparsity_pattern : 33 ms
[OGL LOG] sort_host_mtx : 17 ms
[OGL LOG] init_preconditioner : 17 ms
[OGL LOG] solve : 123 ms
BJcudaGKOCG:  Solving for p, Initial residual = 0.614449, Final residual = 9.66194e-07, No Iterations 376
linear solve p 2492291
time step continuity errors : sum local = 1.59065e-09, global = -5.38007e-20, cumulative = -5.38007e-20
[OGL LOG] init_preconditioner : 0 ms
[OGL LOG] solve : 131 ms
BJcudaGKOCG:  Solving for p, Initial residual = 0.429359, Final residual = 9.51844e-07, No Iterations 379
linear solve p 136706
time step continuity errors : sum local = 1.09702e-09, global = 1.47855e-20, cumulative = -3.90152e-20
ExecutionTime = 3.67 s  ClockTime = 4 s

Time = 0.00363636

Courant Number mean: 0.173201 max: 0.938447
DILUPBiCGStab:  Solving for Ux, Initial residual = 0.00803602, Final residual = 1.32171e-05, No Iterations 5
DILUPBiCGStab:  Solving for Uy, Initial residual = 0.0187993, Final residual = 2.49193e-05, No Iterations 5
DILUPBiCGStab:  Solving for Uz, Initial residual = 0.04342, Final residual = 0.000133406, No Iterations 5
linear solve U 150492
[OGL LOG] init_preconditioner : 0 ms
[OGL LOG] solve : 141 ms
BJcudaGKOCG:  Solving for p, Initial residual = 0.309262, Final residual = 9.91861e-07, No Iterations 408
linear solve p 146337
time step continuity errors : sum local = 3.77546e-07, global = -2.38158e-20, cumulative = -6.28311e-20
[OGL LOG] init_preconditioner : 0 ms
[OGL LOG] solve : 140 ms
BJcudaGKOCG:  Solving for p, Initial residual = 0.196346, Final residual = 9.72197e-07, No Iterations 405
linear solve p 145244
time step continuity errors : sum local = 3.64847e-07, global = 2.71706e-20, cumulative = -3.56604e-20
ExecutionTime = 4.21 s  ClockTime = 4 s

Time = 0.00545455

Courant Number mean: 0.175253 max: 0.938256
DILUPBiCGStab:  Solving for Ux, Initial residual = 0.00374963, Final residual = 1.01145e-05, No Iterations 5
DILUPBiCGStab:  Solving for Uy, Initial residual = 0.00920306, Final residual = 1.43022e-05, No Iterations 5
DILUPBiCGStab:  Solving for Uz, Initial residual = 0.0232232, Final residual = 5.76197e-05, No Iterations 5
linear solve U 151790
[OGL LOG] init_preconditioner : 0 ms
[OGL LOG] solve : 131 ms
BJcudaGKOCG:  Solving for p, Initial residual = 0.171231, Final residual = 9.85528e-07, No Iterations 377
linear solve p 136205
time step continuity errors : sum local = 3.66595e-07, global = -8.36073e-21, cumulative = -4.40212e-20
[OGL LOG] init_preconditioner : 0 ms
[OGL LOG] solve : 129 ms
BJcudaGKOCG:  Solving for p, Initial residual = 0.116657, Final residual = 9.62873e-07, No Iterations 376
linear solve p 134453
time step continuity errors : sum local = 3.63466e-07, global = -7.15727e-21, cumulative = -5.11784e-20
ExecutionTime = 4.72 s  ClockTime = 5 s

Time = 0.00727273

Courant Number mean: 0.177048 max: 0.938779
DILUPBiCGStab:  Solving for Ux, Initial residual = 0.00266586, Final residual = 6.46367e-06, No Iterations 5
DILUPBiCGStab:  Solving for Uy, Initial residual = 0.00703997, Final residual = 1.01549e-05, No Iterations 5
DILUPBiCGStab:  Solving for Uz, Initial residual = 0.0168319, Final residual = 3.42215e-05, No Iterations 5
linear solve U 150053
[OGL LOG] init_preconditioner : 0 ms
[OGL LOG] solve : 124 ms
BJcudaGKOCG:  Solving for p, Initial residual = 0.103548, Final residual = 9.36584e-07, No Iterations 362
linear solve p 129755
time step continuity errors : sum local = 3.61529e-07, global = 3.78435e-22, cumulative = -5.08e-20
[OGL LOG] init_preconditioner : 0 ms
[OGL LOG] solve : 126 ms
BJcudaGKOCG:  Solving for p, Initial residual = 0.0729171, Final residual = 9.66307e-07, No Iterations 360
linear solve p 132137
time step continuity errors : sum local = 3.63407e-07, global = 2.50532e-21, cumulative = -4.82947e-20
ExecutionTime = 5.23 s  ClockTime = 5 s

Time = 0.00909091

Courant Number mean: 0.178659 max: 0.939357
DILUPBiCGStab:  Solving for Ux, Initial residual = 0.00214454, Final residual = 4.47708e-06, No Iterations 5
DILUPBiCGStab:  Solving for Uy, Initial residual = 0.0055403, Final residual = 7.69161e-06, No Iterations 5
DILUPBiCGStab:  Solving for Uz, Initial residual = 0.0120089, Final residual = 2.15275e-05, No Iterations 5
linear solve U 149413
[OGL LOG] init_preconditioner : 0 ms
[OGL LOG] solve : 123 ms
BJcudaGKOCG:  Solving for p, Initial residual = 0.0676788, Final residual = 9.83941e-07, No Iterations 359
linear solve p 128706
time step continuity errors : sum local = 3.64727e-07, global = -1.67225e-20, cumulative = -6.50172e-20
[OGL LOG] init_preconditioner : 0 ms
[OGL LOG] solve : 124 ms
BJcudaGKOCG:  Solving for p, Initial residual = 0.0494694, Final residual = 9.82142e-07, No Iterations 358
linear solve p 129457
time step continuity errors : sum local = 3.63538e-07, global = 2.70964e-20, cumulative = -3.79208e-20
ExecutionTime = 5.73 s  ClockTime = 6 s

Time = 0.0109091

Courant Number mean: 0.180069 max: 0.939963
DILUPBiCGStab:  Solving for Ux, Initial residual = 0.00177179, Final residual = 2.99536e-06, No Iterations 5
DILUPBiCGStab:  Solving for Uy, Initial residual = 0.00472598, Final residual = 5.80062e-06, No Iterations 5
DILUPBiCGStab:  Solving for Uz, Initial residual = 0.0101092, Final residual = 1.58975e-05, No Iterations 5
linear solve U 150221
[OGL LOG] init_preconditioner : 0 ms
[OGL LOG] solve : 123 ms
BJcudaGKOCG:  Solving for p, Initial residual = 0.0441854, Final residual = 9.03392e-07, No Iterations 355
linear solve p 128168
time step continuity errors : sum local = 3.62748e-07, global = 3.79756e-20, cumulative = 5.47719e-23
[OGL LOG] init_preconditioner : 0 ms
[OGL LOG] solve : 122 ms
BJcudaGKOCG:  Solving for p, Initial residual = 0.0330912, Final residual = 9.02647e-07, No Iterations 354
linear solve p 128001
time step continuity errors : sum local = 3.63392e-07, global = 3.53275e-20, cumulative = 3.53822e-20
ExecutionTime = 6.23 s  ClockTime = 6 s

Time = 0.0127273

Courant Number mean: 0.181311 max: 0.940375
DILUPBiCGStab:  Solving for Ux, Initial residual = 0.00150047, Final residual = 1.86619e-06, No Iterations 5
DILUPBiCGStab:  Solving for Uy, Initial residual = 0.00397846, Final residual = 3.93474e-06, No Iterations 5
DILUPBiCGStab:  Solving for Uz, Initial residual = 0.00797138, Final residual = 1.14648e-05, No Iterations 5
linear solve U 151783
[OGL LOG] init_preconditioner : 0 ms
[OGL LOG] solve : 123 ms
BJcudaGKOCG:  Solving for p, Initial residual = 0.0312972, Final residual = 9.87814e-07, No Iterations 350
linear solve p 129806
time step continuity errors : sum local = 3.63819e-07, global = -3.32819e-20, cumulative = 2.10035e-21
[OGL LOG] init_preconditioner : 0 ms
[OGL LOG] solve : 120 ms
BJcudaGKOCG:  Solving for p, Initial residual = 0.0239642, Final residual = 9.59759e-07, No Iterations 348
linear solve p 125646
time step continuity errors : sum local = 3.63472e-07, global = 2.56915e-20, cumulative = 2.77918e-20
ExecutionTime = 6.74 s  ClockTime = 7 s

Time = 0.0145455

Courant Number mean: 0.182406 max: 0.940818
DILUPBiCGStab:  Solving for Ux, Initial residual = 0.0012852, Final residual = 1.12757e-06, No Iterations 5
DILUPBiCGStab:  Solving for Uy, Initial residual = 0.00349041, Final residual = 2.55915e-06, No Iterations 5
DILUPBiCGStab:  Solving for Uz, Initial residual = 0.00694089, Final residual = 8.68613e-06, No Iterations 5
linear solve U 150546
[OGL LOG] init_preconditioner : 0 ms
[OGL LOG] solve : 117 ms
BJcudaGKOCG:  Solving for p, Initial residual = 0.0214638, Final residual = 9.63945e-07, No Iterations 338
linear solve p 122636
time step continuity errors : sum local = 3.63238e-07, global = 2.4148e-22, cumulative = 2.80333e-20
[OGL LOG] init_preconditioner : 0 ms
[OGL LOG] solve : 116 ms
BJcudaGKOCG:  Solving for p, Initial residual = 0.0167047, Final residual = 9.54797e-07, No Iterations 337
linear solve p 122050
time step continuity errors : sum local = 3.63433e-07, global = 9.80585e-21, cumulative = 3.78392e-20
ExecutionTime = 7.23 s  ClockTime = 7 s

Time = 0.0163636

Courant Number mean: 0.183372 max: 0.941134
DILUPBiCGStab:  Solving for Ux, Initial residual = 0.00111633, Final residual = 7.08679e-07, No Iterations 5
DILUPBiCGStab:  Solving for Uy, Initial residual = 0.00301006, Final residual = 1.58228e-06, No Iterations 5
DILUPBiCGStab:  Solving for Uz, Initial residual = 0.00577585, Final residual = 6.12466e-06, No Iterations 5
linear solve U 149420
[OGL LOG] init_preconditioner : 0 ms
[OGL LOG] solve : 117 ms
BJcudaGKOCG:  Solving for p, Initial residual = 0.0158734, Final residual = 9.97006e-07, No Iterations 342
linear solve p 122734
time step continuity errors : sum local = 3.63563e-07, global = 1.13161e-20, cumulative = 4.91553e-20
[OGL LOG] init_preconditioner : 0 ms
[OGL LOG] solve : 117 ms
BJcudaGKOCG:  Solving for p, Initial residual = 0.0125518, Final residual = 9.84966e-07, No Iterations 341
linear solve p 122979
time step continuity errors : sum local = 3.63482e-07, global = -5.58235e-20, cumulative = -6.66823e-21
ExecutionTime = 7.71 s  ClockTime = 8 s

Time = 0.0181818

Courant Number mean: 0.18423 max: 0.941454
DILUPBiCGStab:  Solving for Ux, Initial residual = 0.000969243, Final residual = 5.33221e-07, No Iterations 5
DILUPBiCGStab:  Solving for Uy, Initial residual = 0.00267677, Final residual = 1.09404e-06, No Iterations 5
DILUPBiCGStab:  Solving for Uz, Initial residual = 0.00507954, Final residual = 5.09001e-06, No Iterations 5
linear solve U 151309
[OGL LOG] init_preconditioner : 0 ms
[OGL LOG] solve : 114 ms
BJcudaGKOCG:  Solving for p, Initial residual = 0.0112631, Final residual = 9.82663e-07, No Iterations 330
linear solve p 119655
time step continuity errors : sum local = 3.63375e-07, global = -1.91855e-20, cumulative = -2.58537e-20
[OGL LOG] init_preconditioner : 0 ms
[OGL LOG] solve : 114 ms
BJcudaGKOCG:  Solving for p, Initial residual = 0.00902359, Final residual = 9.35714e-07, No Iterations 329
linear solve p 119714
time step continuity errors : sum local = 3.63436e-07, global = -2.49936e-20, cumulative = -5.08474e-20
ExecutionTime = 8.2 s  ClockTime = 8 s

End

