/*---------------------------------------------------------------------------*\
  =========                 |
  \\      /  F ield         | OpenFOAM: The Open Source CFD Toolbox
   \\    /   O peration     | Website:  https://openfoam.org
    \\  /    A nd           | Version:  8
     \\/     M anipulation  |
\*---------------------------------------------------------------------------*/
Build  : 8-ef60d22ea792
Exec   : icoFoam
Date   : Sep 15 2021
Time   : 13:07:25
Host   : "uc2n438.localdomain"
PID    : 3538836
I/O    : uncollated
Case   : /pfs/data5/home/kit/scc/nq7776/data/code/OBR/lidDrivenCavity3D/Variation_init/100/Variation_mesh/5/Variation_matrix_solver/CG_DIC_Serial/1631704045
nProcs : 1
sigFpe : Enabling floating point exception trapping (FOAM_SIGFPE).
fileModificationChecking : Monitoring run-time modified files using timeStampMaster (fileModificationSkew 10)
allowSystemOperations : Allowing user-supplied system call operations

// * * * * * * * * * * * * * * * * * * * * * * * * * * * * * * * * * * * * * //
Create time

Create mesh for time = 0

Reading transportProperties

Reading field p

Reading field U

Reading/calculating face flux field phi


Starting time loop

Time = 0.02

Courant Number mean: 0.144178 max: 0.344046
DILUPBiCGStab:  Solving for Ux, Initial residual = 0.270102, Final residual = 1.39043e-14, No Iterations 5
DILUPBiCGStab:  Solving for Uy, Initial residual = 0.217087, Final residual = 1.19184e-13, No Iterations 5
DILUPBiCGStab:  Solving for Uz, Initial residual = 0.216079, Final residual = 2.72531e-14, No Iterations 5
linear solve U 228
DICPCG:  Solving for p, Initial residual = 0.599316, Final residual = 1.57302e-07, No Iterations 14
linear solve p 85
time step continuity errors : sum local = 1.31139e-08, global = 5.0147e-19, cumulative = 5.0147e-19
DICPCG:  Solving for p, Initial residual = 0.288319, Final residual = 5.56391e-07, No Iterations 13
linear solve p 57
time step continuity errors : sum local = 2.45011e-08, global = -1.34751e-18, cumulative = -8.4604e-19
ExecutionTime = 0.03 s  ClockTime = 0 s

Time = 0.04

Courant Number mean: 0.143461 max: 0.370002
DILUPBiCGStab:  Solving for Ux, Initial residual = 0.0735166, Final residual = 6.10754e-14, No Iterations 5
DILUPBiCGStab:  Solving for Uy, Initial residual = 0.0725789, Final residual = 1.60317e-13, No Iterations 5
DILUPBiCGStab:  Solving for Uz, Initial residual = 0.17473, Final residual = 2.48415e-13, No Iterations 5
linear solve U 121
DICPCG:  Solving for p, Initial residual = 0.211647, Final residual = 4.06027e-07, No Iterations 13
linear solve p 49
time step continuity errors : sum local = 1.94444e-08, global = -1.51553e-18, cumulative = -2.36157e-18
DICPCG:  Solving for p, Initial residual = 0.0744898, Final residual = 9.61487e-08, No Iterations 13
linear solve p 48
time step continuity errors : sum local = 5.02526e-09, global = 1.79002e-19, cumulative = -2.18257e-18
ExecutionTime = 0.03 s  ClockTime = 0 s

Time = 0.06

Courant Number mean: 0.14551 max: 0.375609
DILUPBiCGStab:  Solving for Ux, Initial residual = 0.0154056, Final residual = 1.73538e-15, No Iterations 5
DILUPBiCGStab:  Solving for Uy, Initial residual = 0.0200502, Final residual = 2.32874e-14, No Iterations 5
DILUPBiCGStab:  Solving for Uz, Initial residual = 0.0977827, Final residual = 1.14739e-13, No Iterations 5
linear solve U 116
DICPCG:  Solving for p, Initial residual = 0.0171785, Final residual = 6.75269e-07, No Iterations 11
linear solve p 45
time step continuity errors : sum local = 3.60226e-08, global = -1.78314e-18, cumulative = -3.9657e-18
DICPCG:  Solving for p, Initial residual = 0.00369186, Final residual = 1.72279e-07, No Iterations 11
linear solve p 45
time step continuity errors : sum local = 9.23215e-09, global = -1.32243e-18, cumulative = -5.28813e-18
ExecutionTime = 0.03 s  ClockTime = 0 s

Time = 0.08

Courant Number mean: 0.147032 max: 0.378285
DILUPBiCGStab:  Solving for Ux, Initial residual = 0.00478602, Final residual = 3.40318e-15, No Iterations 5
DILUPBiCGStab:  Solving for Uy, Initial residual = 0.006415, Final residual = 1.20054e-14, No Iterations 5
DILUPBiCGStab:  Solving for Uz, Initial residual = 0.0285246, Final residual = 4.41471e-14, No Iterations 5
linear solve U 114
DICPCG:  Solving for p, Initial residual = 0.00483257, Final residual = 3.33316e-07, No Iterations 11
linear solve p 44
time step continuity errors : sum local = 1.79292e-08, global = 2.64301e-19, cumulative = -5.02383e-18
DICPCG:  Solving for p, Initial residual = 0.00114521, Final residual = 6.39174e-07, No Iterations 10
linear solve p 42
time step continuity errors : sum local = 3.43369e-08, global = -9.36633e-19, cumulative = -5.96046e-18
ExecutionTime = 0.03 s  ClockTime = 0 s

Time = 0.1

Courant Number mean: 0.147781 max: 0.379502
DILUPBiCGStab:  Solving for Ux, Initial residual = 0.00171092, Final residual = 8.34957e-16, No Iterations 5
DILUPBiCGStab:  Solving for Uy, Initial residual = 0.00256814, Final residual = 2.29415e-15, No Iterations 5
DILUPBiCGStab:  Solving for Uz, Initial residual = 0.0107549, Final residual = 1.44995e-14, No Iterations 5
linear solve U 117
DICPCG:  Solving for p, Initial residual = 0.00160311, Final residual = 6.65924e-07, No Iterations 10
linear solve p 42
time step continuity errors : sum local = 3.57565e-08, global = 9.3789e-19, cumulative = -5.02257e-18
DICPCG:  Solving for p, Initial residual = 0.000367506, Final residual = 8.82917e-07, No Iterations 9
linear solve p 39
time step continuity errors : sum local = 4.74457e-08, global = 2.44184e-20, cumulative = -4.99816e-18
ExecutionTime = 0.03 s  ClockTime = 0 s

Time = 0.12

Courant Number mean: 0.148154 max: 0.380116
DILUPBiCGStab:  Solving for Ux, Initial residual = 0.000688776, Final residual = 3.07409e-16, No Iterations 5
DILUPBiCGStab:  Solving for Uy, Initial residual = 0.00108813, Final residual = 3.92944e-16, No Iterations 5
DILUPBiCGStab:  Solving for Uz, Initial residual = 0.00415413, Final residual = 5.01186e-15, No Iterations 5
linear solve U 116
DICPCG:  Solving for p, Initial residual = 0.000676983, Final residual = 8.33545e-07, No Iterations 9
linear solve p 41
time step continuity errors : sum local = 4.47747e-08, global = -7.8377e-19, cumulative = -5.78193e-18
DICPCG:  Solving for p, Initial residual = 0.000160494, Final residual = 9.56515e-07, No Iterations 8
linear solve p 38
time step continuity errors : sum local = 5.13951e-08, global = 6.46921e-19, cumulative = -5.135e-18
ExecutionTime = 0.03 s  ClockTime = 0 s

Time = 0.14

Courant Number mean: 0.148338 max: 0.38043
DILUPBiCGStab:  Solving for Ux, Initial residual = 0.000299805, Final residual = 1.4541e-16, No Iterations 5
DILUPBiCGStab:  Solving for Uy, Initial residual = 0.00048768, Final residual = 2.12233e-16, No Iterations 5
DILUPBiCGStab:  Solving for Uz, Initial residual = 0.00167066, Final residual = 1.82981e-15, No Iterations 5
linear solve U 116
DICPCG:  Solving for p, Initial residual = 0.000314997, Final residual = 8.84907e-07, No Iterations 8
linear solve p 38
time step continuity errors : sum local = 4.81734e-08, global = -9.25185e-19, cumulative = -6.06019e-18
DICPCG:  Solving for p, Initial residual = 7.1889e-05, Final residual = 7.09159e-07, No Iterations 4
linear solve p 29
time step continuity errors : sum local = 6.07141e-08, global = 7.1561e-19, cumulative = -5.34458e-18
ExecutionTime = 0.04 s  ClockTime = 0 s

Time = 0.16

Courant Number mean: 0.148427 max: 0.380589
DILUPBiCGStab:  Solving for Ux, Initial residual = 0.000135066, Final residual = 6.77416e-17, No Iterations 5
DILUPBiCGStab:  Solving for Uy, Initial residual = 0.000228613, Final residual = 1.4777e-16, No Iterations 5
DILUPBiCGStab:  Solving for Uz, Initial residual = 0.000710925, Final residual = 6.3111e-16, No Iterations 5
linear solve U 121
DICPCG:  Solving for p, Initial residual = 0.000148782, Final residual = 7.01845e-07, No Iterations 4
linear solve p 29
time step continuity errors : sum local = 4.19489e-08, global = 1.26142e-18, cumulative = -4.08316e-18
DICPCG:  Solving for p, Initial residual = 3.3424e-05, Final residual = 7.14813e-07, No Iterations 3
linear solve p 27
time step continuity errors : sum local = 4.84e-08, global = -1.79161e-18, cumulative = -5.87477e-18
ExecutionTime = 0.04 s  ClockTime = 0 s

Time = 0.18

Courant Number mean: 0.14847 max: 0.380668
DILUPBiCGStab:  Solving for Ux, Initial residual = 6.19345e-05, Final residual = 2.90213e-17, No Iterations 5
DILUPBiCGStab:  Solving for Uy, Initial residual = 0.000108253, Final residual = 7.69477e-17, No Iterations 5
DILUPBiCGStab:  Solving for Uz, Initial residual = 0.000313646, Final residual = 2.00258e-16, No Iterations 5
linear solve U 114
DICPCG:  Solving for p, Initial residual = 7.08027e-05, Final residual = 8.03889e-07, No Iterations 3
linear solve p 28
time step continuity errors : sum local = 4.97136e-08, global = -7.75035e-19, cumulative = -6.6498e-18
DICPCG:  Solving for p, Initial residual = 1.58814e-05, Final residual = 6.73277e-07, No Iterations 2
linear solve p 26
time step continuity errors : sum local = 3.80494e-08, global = -1.4426e-19, cumulative = -6.79406e-18
ExecutionTime = 0.04 s  ClockTime = 0 s

Time = 0.2

Courant Number mean: 0.148491 max: 0.380707
DILUPBiCGStab:  Solving for Ux, Initial residual = 2.85012e-05, Final residual = 1.12211e-17, No Iterations 5
DILUPBiCGStab:  Solving for Uy, Initial residual = 5.15447e-05, Final residual = 3.64716e-17, No Iterations 5
DILUPBiCGStab:  Solving for Uz, Initial residual = 0.000145074, Final residual = 5.33861e-17, No Iterations 5
linear solve U 115
DICPCG:  Solving for p, Initial residual = 3.35472e-05, Final residual = 7.04204e-07, No Iterations 2
linear solve p 26
time step continuity errors : sum local = 4.57957e-08, global = -1.17063e-19, cumulative = -6.91113e-18
DICPCG:  Solving for p, Initial residual = 7.33839e-06, Final residual = 1.63626e-07, No Iterations 2
linear solve p 25
time step continuity errors : sum local = 1.5704e-08, global = 1.89312e-18, cumulative = -5.01801e-18
ExecutionTime = 0.04 s  ClockTime = 0 s

End

