/*---------------------------------------------------------------------------*\
  =========                 |
  \\      /  F ield         | OpenFOAM: The Open Source CFD Toolbox
   \\    /   O peration     | Website:  https://openfoam.org
    \\  /    A nd           | Version:  8
     \\/     M anipulation  |
\*---------------------------------------------------------------------------*/
Build  : 8-ef60d22ea792
Exec   : icoFoam
Date   : Sep 15 2021
Time   : 14:45:32
Host   : "uc2n482.localdomain"
PID    : 3653869
I/O    : uncollated
Case   : /pfs/data5/home/kit/scc/nq7776/data/code/OBR/lidDrivenCavity3D/Variation_init/100/Variation_mesh/85/Variation_matrix_solver/CG_BJ_CUDA/Variation_maxBlockSize/16/1631709905
nProcs : 1
sigFpe : Enabling floating point exception trapping (FOAM_SIGFPE).
fileModificationChecking : Monitoring run-time modified files using timeStampMaster (fileModificationSkew 10)
allowSystemOperations : Allowing user-supplied system call operations

// * * * * * * * * * * * * * * * * * * * * * * * * * * * * * * * * * * * * * //
Create time

Create mesh for time = 0

Reading transportProperties

Reading field p

Reading field U

Reading/calculating face flux field phi


Starting time loop

Time = 0.00117647

Courant Number mean: 0.17078 max: 0.958539
DILUPBiCGStab:  Solving for Ux, Initial residual = 0.08035, Final residual = 0.000200532, No Iterations 5
DILUPBiCGStab:  Solving for Uy, Initial residual = 0.159613, Final residual = 0.00056519, No Iterations 5
DILUPBiCGStab:  Solving for Uz, Initial residual = 0.222246, Final residual = 0.000790216, No Iterations 5
linear solve U 649824
[OGL LOG] init_host_sparsity_pattern : 177 ms
[OGL LOG] matrix not stored update host matrix
[OGL LOG] update_host_mtx : 99 ms
[OGL LOG] matrix is not yet sorted, compute sorting idxs
[OGL LOG] compute_sort : 5763 ms
[OGL LOG] matrix is not yet sorted, sorting host matrix
[OGL LOG] sort_host_mtx_sparsity_pattern : 123 ms
[OGL LOG] sort_host_mtx : 74 ms
[OGL LOG] init_preconditioner : 67 ms
[OGL LOG] solve : 527 ms
BJcudaGKOCG:  Solving for p, Initial residual = 0.643964, Final residual = 9.7069e-07, No Iterations 589
linear solve p 7631597
time step continuity errors : sum local = 7.79077e-10, global = -7.00193e-21, cumulative = -7.00193e-21
[OGL LOG] init_preconditioner : 0 ms
[OGL LOG] solve : 523 ms
BJcudaGKOCG:  Solving for p, Initial residual = 0.369996, Final residual = 9.95597e-07, No Iterations 588
linear solve p 543561
time step continuity errors : sum local = 7.10281e-10, global = 7.60273e-21, cumulative = 6.00798e-22
ExecutionTime = 12.06 s  ClockTime = 12 s

Time = 0.00235294

Courant Number mean: 0.17242 max: 0.959521
DILUPBiCGStab:  Solving for Ux, Initial residual = 0.00668669, Final residual = 4.22369e-05, No Iterations 5
DILUPBiCGStab:  Solving for Uy, Initial residual = 0.0171906, Final residual = 0.000144526, No Iterations 5
DILUPBiCGStab:  Solving for Uz, Initial residual = 0.0433629, Final residual = 0.000582259, No Iterations 5
linear solve U 606462
[OGL LOG] init_preconditioner : 0 ms
[OGL LOG] solve : 532 ms
BJcudaGKOCG:  Solving for p, Initial residual = 0.435511, Final residual = 9.59738e-07, No Iterations 602
linear solve p 551513
time step continuity errors : sum local = 8.1235e-08, global = 1.18974e-20, cumulative = 1.24982e-20
[OGL LOG] init_preconditioner : 0 ms
[OGL LOG] solve : 532 ms
BJcudaGKOCG:  Solving for p, Initial residual = 0.303854, Final residual = 9.69597e-07, No Iterations 601
linear solve p 551896
time step continuity errors : sum local = 7.01962e-08, global = -1.78411e-20, cumulative = -5.34285e-21
ExecutionTime = 14.13 s  ClockTime = 14 s

Time = 0.00352941

Courant Number mean: 0.173894 max: 0.959456
DILUPBiCGStab:  Solving for Ux, Initial residual = 0.00333714, Final residual = 3.14695e-05, No Iterations 5
DILUPBiCGStab:  Solving for Uy, Initial residual = 0.0094561, Final residual = 8.96574e-05, No Iterations 5
DILUPBiCGStab:  Solving for Uz, Initial residual = 0.0306854, Final residual = 0.000410318, No Iterations 5
linear solve U 601580
[OGL LOG] init_preconditioner : 0 ms
[OGL LOG] solve : 511 ms
BJcudaGKOCG:  Solving for p, Initial residual = 0.299931, Final residual = 9.90322e-07, No Iterations 581
linear solve p 530627
time step continuity errors : sum local = 6.82793e-08, global = -1.87899e-21, cumulative = -7.22184e-21
[OGL LOG] init_preconditioner : 0 ms
[OGL LOG] solve : 513 ms
BJcudaGKOCG:  Solving for p, Initial residual = 0.215688, Final residual = 9.64797e-07, No Iterations 580
linear solve p 533049
time step continuity errors : sum local = 6.84521e-08, global = -3.01212e-21, cumulative = -1.0234e-20
ExecutionTime = 16.16 s  ClockTime = 16 s

Time = 0.00470588

Courant Number mean: 0.175264 max: 0.959792
DILUPBiCGStab:  Solving for Ux, Initial residual = 0.0024873, Final residual = 2.07235e-05, No Iterations 5
DILUPBiCGStab:  Solving for Uy, Initial residual = 0.00741667, Final residual = 5.77341e-05, No Iterations 5
DILUPBiCGStab:  Solving for Uz, Initial residual = 0.0248501, Final residual = 0.000346957, No Iterations 5
linear solve U 594774
[OGL LOG] init_preconditioner : 0 ms
[OGL LOG] solve : 508 ms
BJcudaGKOCG:  Solving for p, Initial residual = 0.231305, Final residual = 9.26396e-07, No Iterations 577
linear solve p 526580
time step continuity errors : sum local = 6.99035e-08, global = -5.89766e-21, cumulative = -1.61316e-20
[OGL LOG] init_preconditioner : 0 ms
[OGL LOG] solve : 512 ms
BJcudaGKOCG:  Solving for p, Initial residual = 0.174242, Final residual = 9.88625e-07, No Iterations 575
linear solve p 533425
time step continuity errors : sum local = 6.91824e-08, global = 1.39555e-21, cumulative = -1.47361e-20
ExecutionTime = 18.17 s  ClockTime = 18 s

Time = 0.00588235

Courant Number mean: 0.176537 max: 0.960088
DILUPBiCGStab:  Solving for Ux, Initial residual = 0.00205612, Final residual = 1.50289e-05, No Iterations 5
DILUPBiCGStab:  Solving for Uy, Initial residual = 0.00597108, Final residual = 3.6132e-05, No Iterations 5
DILUPBiCGStab:  Solving for Uz, Initial residual = 0.019855, Final residual = 0.00027245, No Iterations 5
linear solve U 602714
[OGL LOG] init_preconditioner : 0 ms
[OGL LOG] solve : 510 ms
BJcudaGKOCG:  Solving for p, Initial residual = 0.174287, Final residual = 9.3992e-07, No Iterations 575
linear solve p 530182
time step continuity errors : sum local = 6.92126e-08, global = 2.0318e-20, cumulative = 5.58189e-21
[OGL LOG] init_preconditioner : 0 ms
[OGL LOG] solve : 505 ms
BJcudaGKOCG:  Solving for p, Initial residual = 0.135155, Final residual = 9.44251e-07, No Iterations 574
linear solve p 524040
time step continuity errors : sum local = 6.87906e-08, global = 3.37336e-21, cumulative = 8.95525e-21
ExecutionTime = 20.2 s  ClockTime = 20 s

Time = 0.00705882

Courant Number mean: 0.177704 max: 0.960428
DILUPBiCGStab:  Solving for Ux, Initial residual = 0.00174906, Final residual = 1.21876e-05, No Iterations 5
DILUPBiCGStab:  Solving for Uy, Initial residual = 0.0051241, Final residual = 2.67723e-05, No Iterations 5
DILUPBiCGStab:  Solving for Uz, Initial residual = 0.0165773, Final residual = 0.000216548, No Iterations 5
linear solve U 603622
[OGL LOG] init_preconditioner : 0 ms
[OGL LOG] solve : 495 ms
BJcudaGKOCG:  Solving for p, Initial residual = 0.141168, Final residual = 9.98167e-07, No Iterations 562
linear solve p 514615
time step continuity errors : sum local = 6.89662e-08, global = 1.59953e-20, cumulative = 2.49505e-20
[OGL LOG] init_preconditioner : 0 ms
[OGL LOG] solve : 494 ms
BJcudaGKOCG:  Solving for p, Initial residual = 0.112335, Final residual = 9.76034e-07, No Iterations 561
linear solve p 513540
time step continuity errors : sum local = 6.8984e-08, global = -3.74649e-20, cumulative = -1.25144e-20
ExecutionTime = 22.18 s  ClockTime = 22 s

Time = 0.00823529

Courant Number mean: 0.178771 max: 0.960686
DILUPBiCGStab:  Solving for Ux, Initial residual = 0.00151465, Final residual = 9.78434e-06, No Iterations 5
DILUPBiCGStab:  Solving for Uy, Initial residual = 0.00444478, Final residual = 2.00467e-05, No Iterations 5
DILUPBiCGStab:  Solving for Uz, Initial residual = 0.013624, Final residual = 0.000161975, No Iterations 5
linear solve U 604134
[OGL LOG] init_preconditioner : 0 ms
[OGL LOG] solve : 501 ms
BJcudaGKOCG:  Solving for p, Initial residual = 0.11392, Final residual = 9.67699e-07, No Iterations 566
linear solve p 521112
time step continuity errors : sum local = 6.91515e-08, global = 1.02935e-20, cumulative = -2.22088e-21
[OGL LOG] init_preconditioner : 0 ms
[OGL LOG] solve : 496 ms
BJcudaGKOCG:  Solving for p, Initial residual = 0.0918223, Final residual = 9.80348e-07, No Iterations 562
linear solve p 515209
time step continuity errors : sum local = 6.88721e-08, global = 1.3875e-20, cumulative = 1.16542e-20
ExecutionTime = 24.19 s  ClockTime = 24 s

Time = 0.00941176

Courant Number mean: 0.179753 max: 0.960953
DILUPBiCGStab:  Solving for Ux, Initial residual = 0.00134501, Final residual = 8.39633e-06, No Iterations 5
DILUPBiCGStab:  Solving for Uy, Initial residual = 0.00391835, Final residual = 1.6492e-05, No Iterations 5
DILUPBiCGStab:  Solving for Uz, Initial residual = 0.0115644, Final residual = 0.000123231, No Iterations 5
linear solve U 590218
[OGL LOG] init_preconditioner : 0 ms
[OGL LOG] solve : 494 ms
BJcudaGKOCG:  Solving for p, Initial residual = 0.0945182, Final residual = 9.53419e-07, No Iterations 558
linear solve p 513287
time step continuity errors : sum local = 6.88622e-08, global = -3.97782e-20, cumulative = -2.8124e-20
[OGL LOG] init_preconditioner : 0 ms
[OGL LOG] solve : 494 ms
BJcudaGKOCG:  Solving for p, Initial residual = 0.0771008, Final residual = 9.72293e-07, No Iterations 556
linear solve p 515044
time step continuity errors : sum local = 6.89247e-08, global = 5.30236e-21, cumulative = -2.28216e-20
ExecutionTime = 26.17 s  ClockTime = 26 s

Time = 0.0105882

Courant Number mean: 0.180649 max: 0.961168
DILUPBiCGStab:  Solving for Ux, Initial residual = 0.00118528, Final residual = 6.9373e-06, No Iterations 5
DILUPBiCGStab:  Solving for Uy, Initial residual = 0.00349481, Final residual = 1.38684e-05, No Iterations 5
DILUPBiCGStab:  Solving for Uz, Initial residual = 0.00963845, Final residual = 8.71497e-05, No Iterations 5
linear solve U 592420
[OGL LOG] init_preconditioner : 0 ms
[OGL LOG] solve : 483 ms
BJcudaGKOCG:  Solving for p, Initial residual = 0.0787022, Final residual = 9.81118e-07, No Iterations 547
linear solve p 502501
time step continuity errors : sum local = 6.90529e-08, global = 3.76632e-20, cumulative = 1.48416e-20
[OGL LOG] init_preconditioner : 0 ms
[OGL LOG] solve : 487 ms
BJcudaGKOCG:  Solving for p, Initial residual = 0.0645009, Final residual = 9.85045e-07, No Iterations 547
linear solve p 507058
time step continuity errors : sum local = 6.88895e-08, global = 1.34117e-20, cumulative = 2.82532e-20
ExecutionTime = 28.13 s  ClockTime = 28 s

Time = 0.0117647

Courant Number mean: 0.181477 max: 0.961382
DILUPBiCGStab:  Solving for Ux, Initial residual = 0.00107352, Final residual = 6.12234e-06, No Iterations 5
DILUPBiCGStab:  Solving for Uy, Initial residual = 0.00312574, Final residual = 1.24598e-05, No Iterations 5
DILUPBiCGStab:  Solving for Uz, Initial residual = 0.00836281, Final residual = 6.59492e-05, No Iterations 5
linear solve U 594993
[OGL LOG] init_preconditioner : 0 ms
[OGL LOG] solve : 485 ms
BJcudaGKOCG:  Solving for p, Initial residual = 0.0658935, Final residual = 9.71208e-07, No Iterations 551
linear solve p 505746
time step continuity errors : sum local = 6.88642e-08, global = 1.68282e-20, cumulative = 4.50815e-20
[OGL LOG] init_preconditioner : 0 ms
[OGL LOG] solve : 489 ms
BJcudaGKOCG:  Solving for p, Initial residual = 0.0542656, Final residual = 9.74634e-07, No Iterations 550
linear solve p 507876
time step continuity errors : sum local = 6.89085e-08, global = -1.50153e-20, cumulative = 3.00662e-20
ExecutionTime = 30.09 s  ClockTime = 30 s

End

