/*---------------------------------------------------------------------------*\
  =========                 |
  \\      /  F ield         | OpenFOAM: The Open Source CFD Toolbox
   \\    /   O peration     | Website:  https://openfoam.org
    \\  /    A nd           | Version:  8
     \\/     M anipulation  |
\*---------------------------------------------------------------------------*/
Build  : 8-ef60d22ea792
Exec   : icoFoam
Date   : Sep 15 2021
Time   : 13:39:47
Host   : "uc2n482.localdomain"
PID    : 3635381
I/O    : uncollated
Case   : /pfs/data5/home/kit/scc/nq7776/data/code/OBR/lidDrivenCavity3D/Variation_init/100/Variation_mesh/65/Variation_matrix_solver/BiCGStab_NoPrecond_CUDA/1631705974
nProcs : 1
sigFpe : Enabling floating point exception trapping (FOAM_SIGFPE).
fileModificationChecking : Monitoring run-time modified files using timeStampMaster (fileModificationSkew 10)
allowSystemOperations : Allowing user-supplied system call operations

// * * * * * * * * * * * * * * * * * * * * * * * * * * * * * * * * * * * * * //
Create time

Create mesh for time = 0

Reading transportProperties

Reading field p

Reading field U

Reading/calculating face flux field phi


Starting time loop

Time = 0.00153846

Courant Number mean: 0.17093 max: 0.953778
DILUPBiCGStab:  Solving for Ux, Initial residual = 0.112594, Final residual = 8.25037e-05, No Iterations 5
DILUPBiCGStab:  Solving for Uy, Initial residual = 0.214167, Final residual = 0.00019351, No Iterations 5
DILUPBiCGStab:  Solving for Uz, Initial residual = 0.265767, Final residual = 0.000360103, No Iterations 5
linear solve U 275370
[OGL LOG] init_host_sparsity_pattern : 77 ms
[OGL LOG] matrix not stored update host matrix
[OGL LOG] update_host_mtx : 42 ms
[OGL LOG] matrix is not yet sorted, compute sorting idxs
[OGL LOG] compute_sort : 2492 ms
[OGL LOG] matrix is not yet sorted, sorting host matrix
[OGL LOG] sort_host_mtx_sparsity_pattern : 55 ms
[OGL LOG] sort_host_mtx : 30 ms
[OGL LOG] init_preconditioner : 0 ms
[OGL LOG] solve : 421 ms
nonecudaGKOBiCGStab:  Solving for p, Initial residual = 0.554571, Final residual = 5.64754e-07, No Iterations 426
linear solve p 3909395
time step continuity errors : sum local = 2.31241e-05, global = -3.41005e-20, cumulative = -3.41005e-20
[OGL LOG] init_preconditioner : 0 ms
[OGL LOG] solve : 404 ms
nonecudaGKOBiCGStab:  Solving for p, Initial residual = 0.349051, Final residual = 8.67892e-07, No Iterations 427
linear solve p 413319
time step continuity errors : sum local = 1.75968e-06, global = -1.55521e-20, cumulative = -4.96526e-20
ExecutionTime = 5.98 s  ClockTime = 6 s

Time = 0.00307692

Courant Number mean: 0.173153 max: 0.946969
DILUPBiCGStab:  Solving for Ux, Initial residual = 0.00646136, Final residual = 2.91038e-05, No Iterations 5
DILUPBiCGStab:  Solving for Uy, Initial residual = 0.0153076, Final residual = 6.5817e-05, No Iterations 5
DILUPBiCGStab:  Solving for Uz, Initial residual = 0.091391, Final residual = 0.00082268, No Iterations 5
linear solve U 261475
[OGL LOG] init_preconditioner : 0 ms
[OGL LOG] solve : 411 ms
nonecudaGKOBiCGStab:  Solving for p, Initial residual = 0.33417, Final residual = 7.37253e-07, No Iterations 412
linear solve p 420311
time step continuity errors : sum local = 3.40422e-06, global = -1.56833e-20, cumulative = -6.5336e-20
[OGL LOG] init_preconditioner : 0 ms
[OGL LOG] solve : 384 ms
nonecudaGKOBiCGStab:  Solving for p, Initial residual = 0.275486, Final residual = 3.75632e-07, No Iterations 392
linear solve p 393199
time step continuity errors : sum local = 2.47511e-07, global = -2.3612e-20, cumulative = -8.8948e-20
ExecutionTime = 7.22 s  ClockTime = 7 s

Time = 0.00461538

Courant Number mean: 0.174982 max: 0.948839
DILUPBiCGStab:  Solving for Ux, Initial residual = 0.00333676, Final residual = 1.29003e-05, No Iterations 5
DILUPBiCGStab:  Solving for Uy, Initial residual = 0.00823406, Final residual = 2.9631e-05, No Iterations 5
DILUPBiCGStab:  Solving for Uz, Initial residual = 0.0842232, Final residual = 0.000507942, No Iterations 5
linear solve U 254483
[OGL LOG] init_preconditioner : 0 ms
[OGL LOG] solve : 442 ms
nonecudaGKOBiCGStab:  Solving for p, Initial residual = 0.235357, Final residual = 9.45736e-07, No Iterations 451
linear solve p 450490
time step continuity errors : sum local = 2.48077e-07, global = -3.00108e-20, cumulative = -1.18959e-19
[OGL LOG] init_preconditioner : 0 ms
[OGL LOG] solve : 412 ms
nonecudaGKOBiCGStab:  Solving for p, Initial residual = 0.194989, Final residual = 4.24457e-07, No Iterations 416
linear solve p 422359
time step continuity errors : sum local = 2.04366e-05, global = 3.16078e-21, cumulative = -1.15798e-19
ExecutionTime = 8.51 s  ClockTime = 8 s

Time = 0.00615385

Courant Number mean: 0.176522 max: 0.948325
DILUPBiCGStab:  Solving for Ux, Initial residual = 0.00231626, Final residual = 8.51958e-06, No Iterations 5
DILUPBiCGStab:  Solving for Uy, Initial residual = 0.00680324, Final residual = 1.906e-05, No Iterations 5
DILUPBiCGStab:  Solving for Uz, Initial residual = 0.0614669, Final residual = 0.000448587, No Iterations 5
linear solve U 258101
[OGL LOG] init_preconditioner : 0 ms
[OGL LOG] solve : 405 ms
nonecudaGKOBiCGStab:  Solving for p, Initial residual = 0.192712, Final residual = 5.77334e-07, No Iterations 408
linear solve p 415136
time step continuity errors : sum local = 2.47956e-07, global = 9.99779e-21, cumulative = -1.058e-19
[OGL LOG] init_preconditioner : 0 ms
[OGL LOG] solve : 397 ms
nonecudaGKOBiCGStab:  Solving for p, Initial residual = 0.153387, Final residual = 9.54877e-07, No Iterations 399
linear solve p 406718
time step continuity errors : sum local = 3.28091e-05, global = -9.6112e-20, cumulative = -2.01912e-19
ExecutionTime = 9.78 s  ClockTime = 9 s

Time = 0.00769231

Courant Number mean: 0.177981 max: 0.94932
DILUPBiCGStab:  Solving for Ux, Initial residual = 0.00196573, Final residual = 6.66588e-06, No Iterations 5
DILUPBiCGStab:  Solving for Uy, Initial residual = 0.00535669, Final residual = 1.45263e-05, No Iterations 5
DILUPBiCGStab:  Solving for Uz, Initial residual = 0.104155, Final residual = 0.00117282, No Iterations 5
linear solve U 256356
[OGL LOG] init_preconditioner : 0 ms
[OGL LOG] solve : 391 ms
nonecudaGKOBiCGStab:  Solving for p, Initial residual = 0.308171, Final residual = 7.2645e-07, No Iterations 398
linear solve p 400243
time step continuity errors : sum local = 5.79119e-06, global = 3.13268e-20, cumulative = -1.70586e-19
[OGL LOG] init_preconditioner : 0 ms
[OGL LOG] solve : 382 ms
nonecudaGKOBiCGStab:  Solving for p, Initial residual = 0.242274, Final residual = 5.58262e-07, No Iterations 383
linear solve p 391666
time step continuity errors : sum local = 3.79021e-05, global = 4.17232e-20, cumulative = -1.28862e-19
ExecutionTime = 11 s  ClockTime = 11 s

Time = 0.00923077

Courant Number mean: 0.179289 max: 0.951158
DILUPBiCGStab:  Solving for Ux, Initial residual = 0.00170158, Final residual = 5.67834e-06, No Iterations 5
DILUPBiCGStab:  Solving for Uy, Initial residual = 0.00501376, Final residual = 1.49751e-05, No Iterations 5
DILUPBiCGStab:  Solving for Uz, Initial residual = 0.172465, Final residual = 0.00169292, No Iterations 5
linear solve U 255464
[OGL LOG] init_preconditioner : 0 ms
[OGL LOG] solve : 394 ms
nonecudaGKOBiCGStab:  Solving for p, Initial residual = 0.398259, Final residual = 8.59495e-07, No Iterations 398
linear solve p 402813
time step continuity errors : sum local = 4.8756e-06, global = 1.6367e-20, cumulative = -1.12495e-19
[OGL LOG] init_preconditioner : 0 ms
[OGL LOG] solve : 413 ms
nonecudaGKOBiCGStab:  Solving for p, Initial residual = 0.325233, Final residual = 3.25009e-07, No Iterations 421
linear solve p 421832
time step continuity errors : sum local = 1.0334e-05, global = -6.64103e-21, cumulative = -1.19136e-19
ExecutionTime = 12.24 s  ClockTime = 12 s

Time = 0.0107692

Courant Number mean: 0.180465 max: 0.951932
DILUPBiCGStab:  Solving for Ux, Initial residual = 0.0016276, Final residual = 5.58951e-06, No Iterations 5
DILUPBiCGStab:  Solving for Uy, Initial residual = 0.00475207, Final residual = 1.48687e-05, No Iterations 5
DILUPBiCGStab:  Solving for Uz, Initial residual = 0.192887, Final residual = 0.00129645, No Iterations 5
linear solve U 252916
[OGL LOG] init_preconditioner : 0 ms
[OGL LOG] solve : 383 ms
nonecudaGKOBiCGStab:  Solving for p, Initial residual = 0.356108, Final residual = 8.5839e-07, No Iterations 390
linear solve p 391983
time step continuity errors : sum local = 3.24575e-05, global = -5.68981e-21, cumulative = -1.24826e-19
[OGL LOG] init_preconditioner : 0 ms
[OGL LOG] solve : 392 ms
nonecudaGKOBiCGStab:  Solving for p, Initial residual = 0.339461, Final residual = 9.24895e-07, No Iterations 391
linear solve p 401874
time step continuity errors : sum local = 1.77662e-06, global = 1.96986e-20, cumulative = -1.05128e-19
ExecutionTime = 13.45 s  ClockTime = 13 s

Time = 0.0123077

Courant Number mean: 0.181493 max: 0.951503
DILUPBiCGStab:  Solving for Ux, Initial residual = 0.00142456, Final residual = 4.90383e-06, No Iterations 5
DILUPBiCGStab:  Solving for Uy, Initial residual = 0.00415052, Final residual = 1.12308e-05, No Iterations 5
DILUPBiCGStab:  Solving for Uz, Initial residual = 0.122141, Final residual = 0.000455361, No Iterations 5
linear solve U 259866
[OGL LOG] init_preconditioner : 0 ms
[OGL LOG] solve : 363 ms
nonecudaGKOBiCGStab:  Solving for p, Initial residual = 0.223586, Final residual = 9.54668e-07, No Iterations 370
linear solve p 372383
time step continuity errors : sum local = 1.2633e-06, global = -2.97605e-20, cumulative = -1.34888e-19
[OGL LOG] init_preconditioner : 0 ms
[OGL LOG] solve : 367 ms
nonecudaGKOBiCGStab:  Solving for p, Initial residual = 0.189417, Final residual = 5.79247e-07, No Iterations 374
linear solve p 375419
time step continuity errors : sum local = 4.73433e-05, global = 7.83358e-20, cumulative = -5.65523e-20
ExecutionTime = 14.63 s  ClockTime = 14 s

Time = 0.0138462

Courant Number mean: 0.182431 max: 0.95032
DILUPBiCGStab:  Solving for Ux, Initial residual = 0.00116045, Final residual = 3.27136e-06, No Iterations 5
DILUPBiCGStab:  Solving for Uy, Initial residual = 0.00339294, Final residual = 8.80847e-06, No Iterations 5
DILUPBiCGStab:  Solving for Uz, Initial residual = 0.158172, Final residual = 0.00123274, No Iterations 5
linear solve U 251484
[OGL LOG] init_preconditioner : 0 ms
[OGL LOG] solve : 379 ms
nonecudaGKOBiCGStab:  Solving for p, Initial residual = 0.351281, Final residual = 6.29348e-07, No Iterations 380
linear solve p 387788
time step continuity errors : sum local = 6.29763e-05, global = 1.08781e-19, cumulative = 5.22291e-20
[OGL LOG] init_preconditioner : 0 ms
[OGL LOG] solve : 390 ms
nonecudaGKOBiCGStab:  Solving for p, Initial residual = 0.268095, Final residual = 8.72811e-07, No Iterations 390
linear solve p 399553
time step continuity errors : sum local = 2.66621e-06, global = -5.93218e-20, cumulative = -7.09271e-21
ExecutionTime = 15.83 s  ClockTime = 16 s

Time = 0.0153846

Courant Number mean: 0.183302 max: 0.952501
DILUPBiCGStab:  Solving for Ux, Initial residual = 0.00114463, Final residual = 3.77082e-06, No Iterations 5
DILUPBiCGStab:  Solving for Uy, Initial residual = 0.00346764, Final residual = 1.30577e-05, No Iterations 5
DILUPBiCGStab:  Solving for Uz, Initial residual = 0.226785, Final residual = 0.00203369, No Iterations 5
linear solve U 257309
[OGL LOG] init_preconditioner : 0 ms
[OGL LOG] solve : 372 ms
nonecudaGKOBiCGStab:  Solving for p, Initial residual = 0.439562, Final residual = 7.41416e-07, No Iterations 380
linear solve p 380813
time step continuity errors : sum local = 5.81177e-06, global = -3.87367e-20, cumulative = -4.58295e-20
[OGL LOG] init_preconditioner : 0 ms
[OGL LOG] solve : 374 ms
nonecudaGKOBiCGStab:  Solving for p, Initial residual = 0.37342, Final residual = 9.0008e-07, No Iterations 384
linear solve p 383202
time step continuity errors : sum local = 2.47548e-07, global = 9.16262e-21, cumulative = -3.66668e-20
ExecutionTime = 17.02 s  ClockTime = 17 s

End

