/*---------------------------------------------------------------------------*\
  =========                 |
  \\      /  F ield         | OpenFOAM: The Open Source CFD Toolbox
   \\    /   O peration     | Website:  https://openfoam.org
    \\  /    A nd           | Version:  8
     \\/     M anipulation  |
\*---------------------------------------------------------------------------*/
Build  : 8-ef60d22ea792
Exec   : icoFoam
Date   : Sep 15 2021
Time   : 15:01:17
Host   : "uc2n482.localdomain"
PID    : 3658717
I/O    : uncollated
Case   : /pfs/data5/home/kit/scc/nq7776/data/code/OBR/lidDrivenCavity3D/Variation_init/100/Variation_mesh/50/Variation_matrix_solver/IR_NoPrecond_CUDA/Variation_innerReductionFactor/0.1/1631710871
nProcs : 1
sigFpe : Enabling floating point exception trapping (FOAM_SIGFPE).
fileModificationChecking : Monitoring run-time modified files using timeStampMaster (fileModificationSkew 10)
allowSystemOperations : Allowing user-supplied system call operations

// * * * * * * * * * * * * * * * * * * * * * * * * * * * * * * * * * * * * * //
Create time

Create mesh for time = 0

Reading transportProperties

Reading field p

Reading field U

Reading/calculating face flux field phi


Starting time loop

Time = 0.002

Courant Number mean: 0.171832 max: 0.950949
DILUPBiCGStab:  Solving for Ux, Initial residual = 0.170437, Final residual = 6.82397e-05, No Iterations 5
DILUPBiCGStab:  Solving for Uy, Initial residual = 0.34992, Final residual = 0.000142663, No Iterations 5
DILUPBiCGStab:  Solving for Uz, Initial residual = 0.557699, Final residual = 0.000189983, No Iterations 5
linear solve U 119383
[OGL LOG] init_host_sparsity_pattern : 36 ms
[OGL LOG] matrix not stored update host matrix
[OGL LOG] update_host_mtx : 20 ms
[OGL LOG] matrix is not yet sorted, compute sorting idxs
[OGL LOG] compute_sort : 1032 ms
[OGL LOG] matrix is not yet sorted, sorting host matrix
[OGL LOG] sort_host_mtx_sparsity_pattern : 24 ms
[OGL LOG] sort_host_mtx : 13 ms
[OGL LOG] init_preconditioner : 0 ms
[OGL LOG] solve : 82 ms
nonecudaGKOIR:  Solving for p, Initial residual = 0.678275, Final residual = 2.76593e-07, No Iterations 7
linear solve p 1989239
time step continuity errors : sum local = 8.31485e-10, global = -2.64131e-20, cumulative = -2.64131e-20
[OGL LOG] init_preconditioner : 0 ms
[OGL LOG] solve : 82 ms
nonecudaGKOIR:  Solving for p, Initial residual = 0.413581, Final residual = 1.4518e-07, No Iterations 7
linear solve p 86378
time step continuity errors : sum local = 2.23709e-10, global = 8.56529e-21, cumulative = -1.78478e-20
ExecutionTime = 2.83 s  ClockTime = 3 s

Time = 0.004

Courant Number mean: 0.174856 max: 0.932415
DILUPBiCGStab:  Solving for Ux, Initial residual = 0.0115943, Final residual = 2.67524e-05, No Iterations 5
DILUPBiCGStab:  Solving for Uy, Initial residual = 0.0268869, Final residual = 4.92436e-05, No Iterations 5
DILUPBiCGStab:  Solving for Uz, Initial residual = 0.112847, Final residual = 0.000158129, No Iterations 5
linear solve U 108842
[OGL LOG] init_preconditioner : 0 ms
[OGL LOG] solve : 83 ms
nonecudaGKOIR:  Solving for p, Initial residual = 0.32733, Final residual = 6.17075e-07, No Iterations 6
linear solve p 87976
time step continuity errors : sum local = 7.21914e-07, global = -1.92127e-20, cumulative = -3.70606e-20
[OGL LOG] init_preconditioner : 0 ms
[OGL LOG] solve : 81 ms
nonecudaGKOIR:  Solving for p, Initial residual = 0.243047, Final residual = 3.73339e-07, No Iterations 6
linear solve p 86234
time step continuity errors : sum local = 6.31004e-07, global = 1.01413e-20, cumulative = -2.69192e-20
ExecutionTime = 3.18 s  ClockTime = 3 s

Time = 0.006

Courant Number mean: 0.176822 max: 0.934846
DILUPBiCGStab:  Solving for Ux, Initial residual = 0.00529441, Final residual = 9.84976e-06, No Iterations 5
DILUPBiCGStab:  Solving for Uy, Initial residual = 0.0102196, Final residual = 2.29775e-05, No Iterations 5
DILUPBiCGStab:  Solving for Uz, Initial residual = 0.0485276, Final residual = 7.73982e-05, No Iterations 5
linear solve U 109916
[OGL LOG] init_preconditioner : 0 ms
[OGL LOG] solve : 81 ms
nonecudaGKOIR:  Solving for p, Initial residual = 0.17444, Final residual = 2.98946e-07, No Iterations 6
linear solve p 86062
time step continuity errors : sum local = 6.72776e-07, global = -3.98825e-21, cumulative = -3.09075e-20
[OGL LOG] init_preconditioner : 0 ms
[OGL LOG] solve : 83 ms
nonecudaGKOIR:  Solving for p, Initial residual = 0.133082, Final residual = 2.18877e-07, No Iterations 6
linear solve p 87401
time step continuity errors : sum local = 6.3035e-07, global = 2.32259e-20, cumulative = -7.68158e-21
ExecutionTime = 3.54 s  ClockTime = 3 s

Time = 0.008

Courant Number mean: 0.178238 max: 0.933359
DILUPBiCGStab:  Solving for Ux, Initial residual = 0.0028961, Final residual = 5.569e-06, No Iterations 5
DILUPBiCGStab:  Solving for Uy, Initial residual = 0.0078635, Final residual = 1.00811e-05, No Iterations 5
DILUPBiCGStab:  Solving for Uz, Initial residual = 0.0260313, Final residual = 3.95518e-05, No Iterations 5
linear solve U 109578
[OGL LOG] init_preconditioner : 0 ms
[OGL LOG] solve : 83 ms
nonecudaGKOIR:  Solving for p, Initial residual = 0.10533, Final residual = 1.62279e-07, No Iterations 6
linear solve p 87108
time step continuity errors : sum local = 6.20793e-07, global = -3.54107e-20, cumulative = -4.30923e-20
[OGL LOG] init_preconditioner : 0 ms
[OGL LOG] solve : 82 ms
nonecudaGKOIR:  Solving for p, Initial residual = 0.081244, Final residual = 1.23529e-07, No Iterations 6
linear solve p 87172
time step continuity errors : sum local = 6.30153e-07, global = -3.82179e-20, cumulative = -8.13102e-20
ExecutionTime = 3.9 s  ClockTime = 4 s

Time = 0.01

Courant Number mean: 0.179753 max: 0.9341
DILUPBiCGStab:  Solving for Ux, Initial residual = 0.00227171, Final residual = 4.01279e-06, No Iterations 5
DILUPBiCGStab:  Solving for Uy, Initial residual = 0.00526714, Final residual = 5.88523e-06, No Iterations 5
DILUPBiCGStab:  Solving for Uz, Initial residual = 0.0148992, Final residual = 2.07727e-05, No Iterations 5
linear solve U 110413
[OGL LOG] init_preconditioner : 0 ms
[OGL LOG] solve : 81 ms
nonecudaGKOIR:  Solving for p, Initial residual = 0.0676236, Final residual = 1.01273e-07, No Iterations 6
linear solve p 85069
time step continuity errors : sum local = 6.34709e-07, global = -9.59364e-21, cumulative = -9.09038e-20
[OGL LOG] init_preconditioner : 0 ms
[OGL LOG] solve : 69 ms
nonecudaGKOIR:  Solving for p, Initial residual = 0.0517196, Final residual = 7.88347e-07, No Iterations 5
linear solve p 73704
time step continuity errors : sum local = 6.30438e-07, global = 4.56402e-20, cumulative = -4.52636e-20
ExecutionTime = 4.24 s  ClockTime = 4 s

Time = 0.012

Courant Number mean: 0.181051 max: 0.934596
DILUPBiCGStab:  Solving for Ux, Initial residual = 0.00175521, Final residual = 1.90484e-06, No Iterations 5
DILUPBiCGStab:  Solving for Uy, Initial residual = 0.00453412, Final residual = 4.02138e-06, No Iterations 5
DILUPBiCGStab:  Solving for Uz, Initial residual = 0.011498, Final residual = 1.25783e-05, No Iterations 5
linear solve U 107063
[OGL LOG] init_preconditioner : 0 ms
[OGL LOG] solve : 67 ms
nonecudaGKOIR:  Solving for p, Initial residual = 0.0446783, Final residual = 6.33213e-07, No Iterations 5
linear solve p 71227
time step continuity errors : sum local = 6.28704e-07, global = 7.15036e-21, cumulative = -3.81132e-20
[OGL LOG] init_preconditioner : 0 ms
[OGL LOG] solve : 72 ms
nonecudaGKOIR:  Solving for p, Initial residual = 0.0343747, Final residual = 5.11548e-07, No Iterations 5
linear solve p 76327
time step continuity errors : sum local = 6.30278e-07, global = -2.85534e-20, cumulative = -6.66667e-20
ExecutionTime = 4.56 s  ClockTime = 4 s

Time = 0.014

Courant Number mean: 0.182225 max: 0.93496
DILUPBiCGStab:  Solving for Ux, Initial residual = 0.0014906, Final residual = 9.87679e-07, No Iterations 5
DILUPBiCGStab:  Solving for Uy, Initial residual = 0.00373594, Final residual = 1.79918e-06, No Iterations 5
DILUPBiCGStab:  Solving for Uz, Initial residual = 0.0081938, Final residual = 8.40736e-06, No Iterations 5
linear solve U 107743
[OGL LOG] init_preconditioner : 0 ms
[OGL LOG] solve : 69 ms
nonecudaGKOIR:  Solving for p, Initial residual = 0.0303475, Final residual = 4.18366e-07, No Iterations 5
linear solve p 73449
time step continuity errors : sum local = 6.30502e-07, global = -2.47652e-20, cumulative = -9.14319e-20
[OGL LOG] init_preconditioner : 0 ms
[OGL LOG] solve : 67 ms
nonecudaGKOIR:  Solving for p, Initial residual = 0.0232668, Final residual = 2.92003e-07, No Iterations 5
linear solve p 71370
time step continuity errors : sum local = 6.30247e-07, global = 1.11395e-20, cumulative = -8.02923e-20
ExecutionTime = 4.88 s  ClockTime = 5 s

Time = 0.016

Courant Number mean: 0.183255 max: 0.935382
DILUPBiCGStab:  Solving for Ux, Initial residual = 0.00125112, Final residual = 4.13792e-07, No Iterations 5
DILUPBiCGStab:  Solving for Uy, Initial residual = 0.00326804, Final residual = 1.01005e-06, No Iterations 5
DILUPBiCGStab:  Solving for Uz, Initial residual = 0.00685071, Final residual = 6.24993e-06, No Iterations 5
linear solve U 108055
[OGL LOG] init_preconditioner : 0 ms
[OGL LOG] solve : 67 ms
nonecudaGKOIR:  Solving for p, Initial residual = 0.020701, Final residual = 2.74035e-07, No Iterations 5
linear solve p 71038
time step continuity errors : sum local = 6.29786e-07, global = -3.5575e-20, cumulative = -1.15867e-19
[OGL LOG] init_preconditioner : 0 ms
[OGL LOG] solve : 69 ms
nonecudaGKOIR:  Solving for p, Initial residual = 0.0160331, Final residual = 2.00395e-07, No Iterations 5
linear solve p 74088
time step continuity errors : sum local = 6.30203e-07, global = 3.13036e-20, cumulative = -8.45637e-20
ExecutionTime = 5.21 s  ClockTime = 5 s

Time = 0.018

Courant Number mean: 0.184168 max: 0.935681
DILUPBiCGStab:  Solving for Ux, Initial residual = 0.00108072, Final residual = 3.28409e-07, No Iterations 5
DILUPBiCGStab:  Solving for Uy, Initial residual = 0.00281173, Final residual = 1.01197e-06, No Iterations 5
DILUPBiCGStab:  Solving for Uz, Initial residual = 0.00553635, Final residual = 4.59582e-06, No Iterations 5
linear solve U 110359
[OGL LOG] init_preconditioner : 0 ms
[OGL LOG] solve : 61 ms
nonecudaGKOIR:  Solving for p, Initial residual = 0.014462, Final residual = 1.63312e-07, No Iterations 5
linear solve p 65555
time step continuity errors : sum local = 6.29993e-07, global = -2.09388e-20, cumulative = -1.05503e-19
[OGL LOG] init_preconditioner : 0 ms
[OGL LOG] solve : 67 ms
nonecudaGKOIR:  Solving for p, Initial residual = 0.0112118, Final residual = 1.33974e-07, No Iterations 5
linear solve p 71235
time step continuity errors : sum local = 6.30199e-07, global = 6.93181e-20, cumulative = -3.61844e-20
ExecutionTime = 5.53 s  ClockTime = 5 s

Time = 0.02

Courant Number mean: 0.184973 max: 0.935986
DILUPBiCGStab:  Solving for Ux, Initial residual = 0.000928419, Final residual = 1.85296e-07, No Iterations 5
DILUPBiCGStab:  Solving for Uy, Initial residual = 0.00248407, Final residual = 5.62483e-07, No Iterations 5
DILUPBiCGStab:  Solving for Uz, Initial residual = 0.00473773, Final residual = 3.34233e-06, No Iterations 5
linear solve U 110182
[OGL LOG] init_preconditioner : 0 ms
[OGL LOG] solve : 67 ms
nonecudaGKOIR:  Solving for p, Initial residual = 0.0101777, Final residual = 1.14189e-07, No Iterations 5
linear solve p 71413
time step continuity errors : sum local = 6.29961e-07, global = -7.64305e-21, cumulative = -4.38274e-20
[OGL LOG] init_preconditioner : 0 ms
[OGL LOG] solve : 58 ms
nonecudaGKOIR:  Solving for p, Initial residual = 0.00803426, Final residual = 9.04761e-07, No Iterations 4
linear solve p 62576
time step continuity errors : sum local = 6.30393e-07, global = 1.52688e-20, cumulative = -2.85586e-20
ExecutionTime = 5.83 s  ClockTime = 6 s

End

