/*---------------------------------------------------------------------------*\
  =========                 |
  \\      /  F ield         | OpenFOAM: The Open Source CFD Toolbox
   \\    /   O peration     | Website:  https://openfoam.org
    \\  /    A nd           | Version:  8
     \\/     M anipulation  |
\*---------------------------------------------------------------------------*/
Build  : 8-ef60d22ea792
Exec   : icoFoam
Date   : Sep 15 2021
Time   : 13:09:08
Host   : "uc2n482.localdomain"
PID    : 3627772
I/O    : uncollated
Case   : /pfs/data5/home/kit/scc/nq7776/data/code/OBR/lidDrivenCavity3D/Variation_init/100/Variation_mesh/90/Variation_matrix_solver/CG_BJ_CUDA/Variation_maxBlockSize/16/1631704119
nProcs : 1
sigFpe : Enabling floating point exception trapping (FOAM_SIGFPE).
fileModificationChecking : Monitoring run-time modified files using timeStampMaster (fileModificationSkew 10)
allowSystemOperations : Allowing user-supplied system call operations

// * * * * * * * * * * * * * * * * * * * * * * * * * * * * * * * * * * * * * //
Create time

Create mesh for time = 0

Reading transportProperties

Reading field p

Reading field U

Reading/calculating face flux field phi


Starting time loop

Time = 0.00111111

Courant Number mean: 0.170803 max: 0.959403
DILUPBiCGStab:  Solving for Ux, Initial residual = 0.0817494, Final residual = 0.000236661, No Iterations 5
DILUPBiCGStab:  Solving for Uy, Initial residual = 0.166742, Final residual = 0.000630917, No Iterations 5
DILUPBiCGStab:  Solving for Uz, Initial residual = 0.256474, Final residual = 0.00093799, No Iterations 5
linear solve U 780010
[OGL LOG] init_host_sparsity_pattern : 209 ms
[OGL LOG] matrix not stored update host matrix
[OGL LOG] update_host_mtx : 117 ms
[OGL LOG] matrix is not yet sorted, compute sorting idxs
[OGL LOG] compute_sort : 6800 ms
[OGL LOG] matrix is not yet sorted, sorting host matrix
[OGL LOG] sort_host_mtx_sparsity_pattern : 147 ms
[OGL LOG] sort_host_mtx : 88 ms
[OGL LOG] init_preconditioner : 79 ms
[OGL LOG] solve : 654 ms
BJcudaGKOCG:  Solving for p, Initial residual = 0.628613, Final residual = 9.57406e-07, No Iterations 620
linear solve p 8903644
time step continuity errors : sum local = 7.49355e-10, global = 1.82957e-20, cumulative = 1.82957e-20
[OGL LOG] init_preconditioner : 0 ms
[OGL LOG] solve : 639 ms
BJcudaGKOCG:  Solving for p, Initial residual = 0.413687, Final residual = 9.85447e-07, No Iterations 619
linear solve p 661909
time step continuity errors : sum local = 6.76634e-10, global = -1.29434e-20, cumulative = 5.35232e-21
ExecutionTime = 14.13 s  ClockTime = 14 s

Time = 0.00222222

Courant Number mean: 0.172492 max: 0.961842
DILUPBiCGStab:  Solving for Ux, Initial residual = 0.00648976, Final residual = 6.65167e-05, No Iterations 5
DILUPBiCGStab:  Solving for Uy, Initial residual = 0.018169, Final residual = 0.000188378, No Iterations 5
DILUPBiCGStab:  Solving for Uz, Initial residual = 0.0559298, Final residual = 0.000786924, No Iterations 5
linear solve U 725281
[OGL LOG] init_preconditioner : 0 ms
[OGL LOG] solve : 685 ms
BJcudaGKOCG:  Solving for p, Initial residual = 0.502231, Final residual = 9.9956e-07, No Iterations 657
linear solve p 707696
time step continuity errors : sum local = 6.55989e-08, global = -1.38504e-20, cumulative = -8.49811e-21
[OGL LOG] init_preconditioner : 0 ms
[OGL LOG] solve : 690 ms
BJcudaGKOCG:  Solving for p, Initial residual = 0.412943, Final residual = 9.97146e-07, No Iterations 656
linear solve p 717122
time step continuity errors : sum local = 5.607e-08, global = -2.51637e-20, cumulative = -3.36618e-20
ExecutionTime = 16.73 s  ClockTime = 17 s

Time = 0.00333333

Courant Number mean: 0.173861 max: 0.961987
DILUPBiCGStab:  Solving for Ux, Initial residual = 0.00378862, Final residual = 3.60102e-05, No Iterations 5
DILUPBiCGStab:  Solving for Uy, Initial residual = 0.0107274, Final residual = 0.000108706, No Iterations 5
DILUPBiCGStab:  Solving for Uz, Initial residual = 0.0377612, Final residual = 0.000490216, No Iterations 5
linear solve U 736937
[OGL LOG] init_preconditioner : 0 ms
[OGL LOG] solve : 661 ms
BJcudaGKOCG:  Solving for p, Initial residual = 0.412758, Final residual = 9.95099e-07, No Iterations 630
linear solve p 685907
time step continuity errors : sum local = 5.82142e-08, global = -1.68848e-20, cumulative = -5.05466e-20
[OGL LOG] init_preconditioner : 0 ms
[OGL LOG] solve : 653 ms
BJcudaGKOCG:  Solving for p, Initial residual = 0.329405, Final residual = 9.82706e-07, No Iterations 626
linear solve p 676761
time step continuity errors : sum local = 5.53007e-08, global = -2.2882e-20, cumulative = -7.34286e-20
ExecutionTime = 19.36 s  ClockTime = 20 s

Time = 0.00444444

Courant Number mean: 0.175122 max: 0.962031
DILUPBiCGStab:  Solving for Ux, Initial residual = 0.00283365, Final residual = 2.30254e-05, No Iterations 5
DILUPBiCGStab:  Solving for Uy, Initial residual = 0.0084008, Final residual = 6.82564e-05, No Iterations 5
DILUPBiCGStab:  Solving for Uz, Initial residual = 0.0303767, Final residual = 0.000466651, No Iterations 5
linear solve U 727367
[OGL LOG] init_preconditioner : 0 ms
[OGL LOG] solve : 641 ms
BJcudaGKOCG:  Solving for p, Initial residual = 0.355944, Final residual = 9.60413e-07, No Iterations 615
linear solve p 664620
time step continuity errors : sum local = 5.68748e-08, global = 1.4098e-20, cumulative = -5.93307e-20
[OGL LOG] init_preconditioner : 0 ms
[OGL LOG] solve : 639 ms
BJcudaGKOCG:  Solving for p, Initial residual = 0.288926, Final residual = 9.85916e-07, No Iterations 613
linear solve p 662741
time step continuity errors : sum local = 5.56723e-08, global = -2.12155e-20, cumulative = -8.05462e-20
ExecutionTime = 21.92 s  ClockTime = 22 s

Time = 0.00555556

Courant Number mean: 0.176337 max: 0.962265
DILUPBiCGStab:  Solving for Ux, Initial residual = 0.00237662, Final residual = 1.5852e-05, No Iterations 5
DILUPBiCGStab:  Solving for Uy, Initial residual = 0.00656991, Final residual = 4.32084e-05, No Iterations 5
DILUPBiCGStab:  Solving for Uz, Initial residual = 0.0243786, Final residual = 0.000373293, No Iterations 5
linear solve U 731921
[OGL LOG] init_preconditioner : 0 ms
[OGL LOG] solve : 634 ms
BJcudaGKOCG:  Solving for p, Initial residual = 0.298696, Final residual = 9.6819e-07, No Iterations 612
linear solve p 656981
time step continuity errors : sum local = 5.6789e-08, global = 4.90874e-21, cumulative = -7.56375e-20
[OGL LOG] init_preconditioner : 0 ms
[OGL LOG] solve : 633 ms
BJcudaGKOCG:  Solving for p, Initial residual = 0.24135, Final residual = 9.89769e-07, No Iterations 610
linear solve p 655497
time step continuity errors : sum local = 5.53967e-08, global = -1.53347e-20, cumulative = -9.09721e-20
ExecutionTime = 24.4 s  ClockTime = 25 s

Time = 0.00666667

Courant Number mean: 0.177448 max: 0.962592
DILUPBiCGStab:  Solving for Ux, Initial residual = 0.00201482, Final residual = 1.19558e-05, No Iterations 5
DILUPBiCGStab:  Solving for Uy, Initial residual = 0.00552649, Final residual = 3.24105e-05, No Iterations 5
DILUPBiCGStab:  Solving for Uz, Initial residual = 0.0203575, Final residual = 0.000326762, No Iterations 5
linear solve U 720064
[OGL LOG] init_preconditioner : 0 ms
[OGL LOG] solve : 631 ms
BJcudaGKOCG:  Solving for p, Initial residual = 0.259594, Final residual = 9.16517e-07, No Iterations 606
linear solve p 653708
time step continuity errors : sum local = 5.57751e-08, global = 1.76983e-20, cumulative = -7.32738e-20
[OGL LOG] init_preconditioner : 0 ms
[OGL LOG] solve : 630 ms
BJcudaGKOCG:  Solving for p, Initial residual = 0.210338, Final residual = 9.89389e-07, No Iterations 604
linear solve p 654038
time step continuity errors : sum local = 5.55637e-08, global = 1.45681e-20, cumulative = -5.87058e-20
ExecutionTime = 26.88 s  ClockTime = 27 s

Time = 0.00777778

Courant Number mean: 0.17848 max: 0.96279
DILUPBiCGStab:  Solving for Ux, Initial residual = 0.00174459, Final residual = 9.87669e-06, No Iterations 5
DILUPBiCGStab:  Solving for Uy, Initial residual = 0.00474395, Final residual = 2.29057e-05, No Iterations 5
DILUPBiCGStab:  Solving for Uz, Initial residual = 0.0169165, Final residual = 0.000263262, No Iterations 5
linear solve U 713024
[OGL LOG] init_preconditioner : 0 ms
[OGL LOG] solve : 628 ms
BJcudaGKOCG:  Solving for p, Initial residual = 0.222056, Final residual = 9.82364e-07, No Iterations 605
linear solve p 650145
time step continuity errors : sum local = 5.60481e-08, global = -1.97922e-20, cumulative = -7.8498e-20
[OGL LOG] init_preconditioner : 0 ms
[OGL LOG] solve : 630 ms
BJcudaGKOCG:  Solving for p, Initial residual = 0.180056, Final residual = 9.73203e-07, No Iterations 604
linear solve p 652990
time step continuity errors : sum local = 5.54089e-08, global = 2.67942e-20, cumulative = -5.17038e-20
ExecutionTime = 29.33 s  ClockTime = 30 s

Time = 0.00888889

Courant Number mean: 0.17943 max: 0.963051
DILUPBiCGStab:  Solving for Ux, Initial residual = 0.00153308, Final residual = 8.75928e-06, No Iterations 5
DILUPBiCGStab:  Solving for Uy, Initial residual = 0.00409987, Final residual = 1.97696e-05, No Iterations 5
DILUPBiCGStab:  Solving for Uz, Initial residual = 0.0141856, Final residual = 0.000221839, No Iterations 5
linear solve U 714249
[OGL LOG] init_preconditioner : 0 ms
[OGL LOG] solve : 617 ms
BJcudaGKOCG:  Solving for p, Initial residual = 0.192567, Final residual = 9.77469e-07, No Iterations 592
linear solve p 640769
time step continuity errors : sum local = 5.56516e-08, global = -3.54932e-21, cumulative = -5.52531e-20
[OGL LOG] init_preconditioner : 0 ms
[OGL LOG] solve : 615 ms
BJcudaGKOCG:  Solving for p, Initial residual = 0.156034, Final residual = 9.52225e-07, No Iterations 591
linear solve p 638359
time step continuity errors : sum local = 5.55035e-08, global = 2.75355e-21, cumulative = -5.24995e-20
ExecutionTime = 31.76 s  ClockTime = 32 s

Time = 0.01

Courant Number mean: 0.180306 max: 0.963239
DILUPBiCGStab:  Solving for Ux, Initial residual = 0.00134687, Final residual = 8.22677e-06, No Iterations 5
DILUPBiCGStab:  Solving for Uy, Initial residual = 0.00364342, Final residual = 1.63472e-05, No Iterations 5
DILUPBiCGStab:  Solving for Uz, Initial residual = 0.0119457, Final residual = 0.000171555, No Iterations 5
linear solve U 716215
[OGL LOG] init_preconditioner : 0 ms
[OGL LOG] solve : 614 ms
BJcudaGKOCG:  Solving for p, Initial residual = 0.165998, Final residual = 9.84949e-07, No Iterations 592
linear solve p 636789
time step continuity errors : sum local = 5.5672e-08, global = -1.35593e-20, cumulative = -6.60588e-20
[OGL LOG] init_preconditioner : 0 ms
[OGL LOG] solve : 614 ms
BJcudaGKOCG:  Solving for p, Initial residual = 0.134791, Final residual = 9.59662e-07, No Iterations 591
linear solve p 637036
time step continuity errors : sum local = 5.54114e-08, global = -1.12315e-20, cumulative = -7.72903e-20
ExecutionTime = 34.16 s  ClockTime = 35 s

Time = 0.0111111

Courant Number mean: 0.181116 max: 0.963438
DILUPBiCGStab:  Solving for Ux, Initial residual = 0.00120343, Final residual = 7.36985e-06, No Iterations 5
DILUPBiCGStab:  Solving for Uy, Initial residual = 0.00320714, Final residual = 1.5282e-05, No Iterations 5
DILUPBiCGStab:  Solving for Uz, Initial residual = 0.0101872, Final residual = 0.000139968, No Iterations 5
linear solve U 724358
[OGL LOG] init_preconditioner : 0 ms
[OGL LOG] solve : 613 ms
BJcudaGKOCG:  Solving for p, Initial residual = 0.143531, Final residual = 9.77665e-07, No Iterations 588
linear solve p 635934
time step continuity errors : sum local = 5.55914e-08, global = -1.77339e-20, cumulative = -9.50242e-20
[OGL LOG] init_preconditioner : 0 ms
[OGL LOG] solve : 611 ms
BJcudaGKOCG:  Solving for p, Initial residual = 0.116378, Final residual = 9.76231e-07, No Iterations 586
linear solve p 635747
time step continuity errors : sum local = 5.54822e-08, global = 1.53919e-22, cumulative = -9.48703e-20
ExecutionTime = 36.6 s  ClockTime = 37 s

End

