/*---------------------------------------------------------------------------*\
  =========                 |
  \\      /  F ield         | OpenFOAM: The Open Source CFD Toolbox
   \\    /   O peration     | Website:  https://openfoam.org
    \\  /    A nd           | Version:  8
     \\/     M anipulation  |
\*---------------------------------------------------------------------------*/
Build  : 8-ef60d22ea792
Exec   : icoFoam
Date   : Sep 15 2021
Time   : 14:03:07
Host   : "uc2n482.localdomain"
PID    : 3639786
I/O    : uncollated
Case   : /pfs/data5/home/kit/scc/nq7776/data/code/OBR/lidDrivenCavity3D/Variation_init/100/Variation_mesh/30/Variation_matrix_solver/CG_NoPrecond_CUDA/1631707384
nProcs : 1
sigFpe : Enabling floating point exception trapping (FOAM_SIGFPE).
fileModificationChecking : Monitoring run-time modified files using timeStampMaster (fileModificationSkew 10)
allowSystemOperations : Allowing user-supplied system call operations

// * * * * * * * * * * * * * * * * * * * * * * * * * * * * * * * * * * * * * //
Create time

Create mesh for time = 0

Reading transportProperties

Reading field p

Reading field U

Reading/calculating face flux field phi


Starting time loop

Time = 0.00333333

Courant Number mean: 0.169907 max: 0.893517
DILUPBiCGStab:  Solving for Ux, Initial residual = 0.0911511, Final residual = 3.95829e-06, No Iterations 5
DILUPBiCGStab:  Solving for Uy, Initial residual = 0.158672, Final residual = 5.65407e-06, No Iterations 5
DILUPBiCGStab:  Solving for Uz, Initial residual = 0.266117, Final residual = 9.88141e-06, No Iterations 5
linear solve U 19868
[OGL LOG] init_host_sparsity_pattern : 7 ms
[OGL LOG] matrix not stored update host matrix
[OGL LOG] update_host_mtx : 3 ms
[OGL LOG] matrix is not yet sorted, compute sorting idxs
[OGL LOG] compute_sort : 206 ms
[OGL LOG] matrix is not yet sorted, sorting host matrix
[OGL LOG] sort_host_mtx_sparsity_pattern : 5 ms
[OGL LOG] sort_host_mtx : 3 ms
[OGL LOG] init_preconditioner : 0 ms
[OGL LOG] solve : 36 ms
nonecudaGKOCG:  Solving for p, Initial residual = 0.542954, Final residual = 8.76219e-07, No Iterations 250
linear solve p 1025845
time step continuity errors : sum local = 4.09516e-09, global = 1.21351e-19, cumulative = 1.21351e-19
[OGL LOG] init_preconditioner : 0 ms
[OGL LOG] solve : 36 ms
nonecudaGKOCG:  Solving for p, Initial residual = 0.318921, Final residual = 9.22823e-07, No Iterations 249
linear solve p 36854
time step continuity errors : sum local = 2.83339e-09, global = 2.45484e-20, cumulative = 1.45899e-19
ExecutionTime = 1.23 s  ClockTime = 1 s

Time = 0.00666667

Courant Number mean: 0.173776 max: 0.888266
DILUPBiCGStab:  Solving for Ux, Initial residual = 0.0119482, Final residual = 2.97167e-06, No Iterations 5
DILUPBiCGStab:  Solving for Uy, Initial residual = 0.0223252, Final residual = 3.40217e-06, No Iterations 5
DILUPBiCGStab:  Solving for Uz, Initial residual = 0.0596879, Final residual = 5.25438e-06, No Iterations 5
linear solve U 18418
[OGL LOG] init_preconditioner : 0 ms
[OGL LOG] solve : 34 ms
nonecudaGKOCG:  Solving for p, Initial residual = 0.156723, Final residual = 9.24951e-07, No Iterations 243
linear solve p 35626
time step continuity errors : sum local = 9.92863e-07, global = 8.53416e-20, cumulative = 2.31241e-19
[OGL LOG] init_preconditioner : 0 ms
[OGL LOG] solve : 34 ms
nonecudaGKOCG:  Solving for p, Initial residual = 0.0960173, Final residual = 9.48805e-07, No Iterations 240
linear solve p 35571
time step continuity errors : sum local = 8.86776e-07, global = 4.2353e-20, cumulative = 2.73594e-19
ExecutionTime = 1.33 s  ClockTime = 1 s

Time = 0.01

Courant Number mean: 0.176716 max: 0.888542
DILUPBiCGStab:  Solving for Ux, Initial residual = 0.00409283, Final residual = 6.70338e-07, No Iterations 5
DILUPBiCGStab:  Solving for Uy, Initial residual = 0.00964201, Final residual = 1.18556e-06, No Iterations 5
DILUPBiCGStab:  Solving for Uz, Initial residual = 0.0232394, Final residual = 3.07822e-06, No Iterations 5
linear solve U 18896
[OGL LOG] init_preconditioner : 0 ms
[OGL LOG] solve : 33 ms
nonecudaGKOCG:  Solving for p, Initial residual = 0.054266, Final residual = 9.57309e-07, No Iterations 236
linear solve p 34672
time step continuity errors : sum local = 8.68213e-07, global = -2.41902e-20, cumulative = 2.49404e-19
[OGL LOG] init_preconditioner : 0 ms
[OGL LOG] solve : 33 ms
nonecudaGKOCG:  Solving for p, Initial residual = 0.0362375, Final residual = 9.64454e-07, No Iterations 233
linear solve p 34359
time step continuity errors : sum local = 8.81112e-07, global = 4.33212e-20, cumulative = 2.92725e-19
ExecutionTime = 1.44 s  ClockTime = 1 s

Time = 0.0133333

Courant Number mean: 0.179156 max: 0.890256
DILUPBiCGStab:  Solving for Ux, Initial residual = 0.00297516, Final residual = 3.25964e-07, No Iterations 5
DILUPBiCGStab:  Solving for Uy, Initial residual = 0.00703808, Final residual = 6.19423e-07, No Iterations 5
DILUPBiCGStab:  Solving for Uz, Initial residual = 0.0128679, Final residual = 1.19855e-06, No Iterations 5
linear solve U 18680
[OGL LOG] init_preconditioner : 0 ms
[OGL LOG] solve : 32 ms
nonecudaGKOCG:  Solving for p, Initial residual = 0.025346, Final residual = 9.28137e-07, No Iterations 231
linear solve p 33769
time step continuity errors : sum local = 8.83932e-07, global = 8.15352e-20, cumulative = 3.7426e-19
[OGL LOG] init_preconditioner : 0 ms
[OGL LOG] solve : 32 ms
nonecudaGKOCG:  Solving for p, Initial residual = 0.0181714, Final residual = 9.92309e-07, No Iterations 229
linear solve p 33750
time step continuity errors : sum local = 8.81928e-07, global = 5.85285e-20, cumulative = 4.32788e-19
ExecutionTime = 1.54 s  ClockTime = 2 s

Time = 0.0166667

Courant Number mean: 0.181129 max: 0.891457
DILUPBiCGStab:  Solving for Ux, Initial residual = 0.00228115, Final residual = 2.37434e-07, No Iterations 5
DILUPBiCGStab:  Solving for Uy, Initial residual = 0.00534285, Final residual = 4.69087e-07, No Iterations 5
DILUPBiCGStab:  Solving for Uz, Initial residual = 0.0092825, Final residual = 5.64907e-07, No Iterations 5
linear solve U 18743
[OGL LOG] init_preconditioner : 0 ms
[OGL LOG] solve : 32 ms
nonecudaGKOCG:  Solving for p, Initial residual = 0.0142924, Final residual = 8.9548e-07, No Iterations 227
linear solve p 33088
time step continuity errors : sum local = 8.80715e-07, global = -1.39587e-23, cumulative = 4.32774e-19
[OGL LOG] init_preconditioner : 0 ms
[OGL LOG] solve : 31 ms
nonecudaGKOCG:  Solving for p, Initial residual = 0.0104788, Final residual = 9.3398e-07, No Iterations 225
linear solve p 32693
time step continuity errors : sum local = 8.81839e-07, global = -4.17712e-20, cumulative = 3.91003e-19
ExecutionTime = 1.64 s  ClockTime = 2 s

Time = 0.02

Courant Number mean: 0.182723 max: 0.892519
DILUPBiCGStab:  Solving for Ux, Initial residual = 0.0017924, Final residual = 1.43079e-07, No Iterations 5
DILUPBiCGStab:  Solving for Uy, Initial residual = 0.00435025, Final residual = 3.47675e-07, No Iterations 5
DILUPBiCGStab:  Solving for Uz, Initial residual = 0.00736128, Final residual = 4.40026e-07, No Iterations 5
linear solve U 18658
[OGL LOG] init_preconditioner : 0 ms
[OGL LOG] solve : 31 ms
nonecudaGKOCG:  Solving for p, Initial residual = 0.00820915, Final residual = 9.15085e-07, No Iterations 224
linear solve p 32669
time step continuity errors : sum local = 8.81459e-07, global = -1.48768e-20, cumulative = 3.76126e-19
[OGL LOG] init_preconditioner : 0 ms
[OGL LOG] solve : 33 ms
nonecudaGKOCG:  Solving for p, Initial residual = 0.00653726, Final residual = 9.76221e-07, No Iterations 222
linear solve p 34493
time step continuity errors : sum local = 8.81891e-07, global = -5.55066e-20, cumulative = 3.2062e-19
ExecutionTime = 1.74 s  ClockTime = 2 s

Time = 0.0233333

Courant Number mean: 0.184011 max: 0.893289
DILUPBiCGStab:  Solving for Ux, Initial residual = 0.00143714, Final residual = 1.0934e-07, No Iterations 5
DILUPBiCGStab:  Solving for Uy, Initial residual = 0.003479, Final residual = 2.43336e-07, No Iterations 5
DILUPBiCGStab:  Solving for Uz, Initial residual = 0.00575629, Final residual = 2.57447e-07, No Iterations 5
linear solve U 17552
[OGL LOG] init_preconditioner : 0 ms
[OGL LOG] solve : 30 ms
nonecudaGKOCG:  Solving for p, Initial residual = 0.00545548, Final residual = 9.60941e-07, No Iterations 215
linear solve p 31111
time step continuity errors : sum local = 8.81599e-07, global = 1.56702e-19, cumulative = 4.77322e-19
[OGL LOG] init_preconditioner : 0 ms
[OGL LOG] solve : 30 ms
nonecudaGKOCG:  Solving for p, Initial residual = 0.00442759, Final residual = 9.11944e-07, No Iterations 213
linear solve p 31412
time step continuity errors : sum local = 8.81879e-07, global = 7.61403e-20, cumulative = 5.53463e-19
ExecutionTime = 1.82 s  ClockTime = 2 s

Time = 0.0266667

Courant Number mean: 0.185057 max: 0.893926
DILUPBiCGStab:  Solving for Ux, Initial residual = 0.00115894, Final residual = 5.42712e-08, No Iterations 5
DILUPBiCGStab:  Solving for Uy, Initial residual = 0.00285489, Final residual = 1.8766e-07, No Iterations 5
DILUPBiCGStab:  Solving for Uz, Initial residual = 0.00465603, Final residual = 2.31889e-07, No Iterations 5
linear solve U 18883
[OGL LOG] init_preconditioner : 0 ms
[OGL LOG] solve : 29 ms
nonecudaGKOCG:  Solving for p, Initial residual = 0.00385792, Final residual = 9.47773e-07, No Iterations 210
linear solve p 29959
time step continuity errors : sum local = 8.81692e-07, global = -7.59185e-20, cumulative = 4.77544e-19
[OGL LOG] init_preconditioner : 0 ms
[OGL LOG] solve : 28 ms
nonecudaGKOCG:  Solving for p, Initial residual = 0.00327626, Final residual = 9.06081e-07, No Iterations 209
linear solve p 29341
time step continuity errors : sum local = 8.81874e-07, global = -7.36105e-21, cumulative = 4.70183e-19
ExecutionTime = 1.92 s  ClockTime = 2 s

Time = 0.03

Courant Number mean: 0.185908 max: 0.894414
DILUPBiCGStab:  Solving for Ux, Initial residual = 0.000942614, Final residual = 5.13938e-08, No Iterations 5
DILUPBiCGStab:  Solving for Uy, Initial residual = 0.00232451, Final residual = 1.38007e-07, No Iterations 5
DILUPBiCGStab:  Solving for Uz, Initial residual = 0.00370671, Final residual = 1.7077e-07, No Iterations 5
linear solve U 17608
[OGL LOG] init_preconditioner : 0 ms
[OGL LOG] solve : 28 ms
nonecudaGKOCG:  Solving for p, Initial residual = 0.00291722, Final residual = 9.68507e-07, No Iterations 207
linear solve p 29664
time step continuity errors : sum local = 8.81852e-07, global = 5.11189e-20, cumulative = 5.21302e-19
[OGL LOG] init_preconditioner : 0 ms
[OGL LOG] solve : 28 ms
nonecudaGKOCG:  Solving for p, Initial residual = 0.00251598, Final residual = 8.96696e-07, No Iterations 206
linear solve p 29041
time step continuity errors : sum local = 8.81909e-07, global = -1.73396e-19, cumulative = 3.47906e-19
ExecutionTime = 2 s  ClockTime = 2 s

Time = 0.0333333

Courant Number mean: 0.186602 max: 0.894809
DILUPBiCGStab:  Solving for Ux, Initial residual = 0.000767523, Final residual = 2.95456e-08, No Iterations 5
DILUPBiCGStab:  Solving for Uy, Initial residual = 0.001914, Final residual = 1.26331e-07, No Iterations 5
DILUPBiCGStab:  Solving for Uz, Initial residual = 0.00299525, Final residual = 1.45892e-07, No Iterations 5
linear solve U 17746
[OGL LOG] init_preconditioner : 0 ms
[OGL LOG] solve : 28 ms
nonecudaGKOCG:  Solving for p, Initial residual = 0.00225691, Final residual = 9.81661e-07, No Iterations 203
linear solve p 29066
time step continuity errors : sum local = 8.81899e-07, global = -2.70562e-20, cumulative = 3.20849e-19
[OGL LOG] init_preconditioner : 0 ms
[OGL LOG] solve : 27 ms
nonecudaGKOCG:  Solving for p, Initial residual = 0.00198039, Final residual = 9.67604e-07, No Iterations 200
linear solve p 28328
time step continuity errors : sum local = 8.81956e-07, global = 4.34163e-20, cumulative = 3.64266e-19
ExecutionTime = 2.1 s  ClockTime = 2 s

End

