/*---------------------------------------------------------------------------*\
  =========                 |
  \\      /  F ield         | OpenFOAM: The Open Source CFD Toolbox
   \\    /   O peration     | Website:  https://openfoam.org
    \\  /    A nd           | Version:  8
     \\/     M anipulation  |
\*---------------------------------------------------------------------------*/
Build  : 8-ef60d22ea792
Exec   : icoFoam
Date   : Sep 15 2021
Time   : 13:44:25
Host   : "uc2n438.localdomain"
PID    : 3544574
I/O    : uncollated
Case   : /pfs/data5/home/kit/scc/nq7776/data/code/OBR/lidDrivenCavity3D/Variation_init/100/Variation_mesh/95/Variation_matrix_solver/CG_NoPrecond_Serial/1631706216
nProcs : 1
sigFpe : Enabling floating point exception trapping (FOAM_SIGFPE).
fileModificationChecking : Monitoring run-time modified files using timeStampMaster (fileModificationSkew 10)
allowSystemOperations : Allowing user-supplied system call operations

// * * * * * * * * * * * * * * * * * * * * * * * * * * * * * * * * * * * * * //
Create time

Create mesh for time = 0

Reading transportProperties

Reading field p

Reading field U

Reading/calculating face flux field phi


Starting time loop

Time = 0.00105263

Courant Number mean: 0.170953 max: 0.961002
DILUPBiCGStab:  Solving for Ux, Initial residual = 0.0461445, Final residual = 0.000180416, No Iterations 5
DILUPBiCGStab:  Solving for Uy, Initial residual = 0.0921486, Final residual = 0.000510127, No Iterations 5
DILUPBiCGStab:  Solving for Uz, Initial residual = 0.140517, Final residual = 0.000914824, No Iterations 5
linear solve U 905314
nonePCG:  Solving for p, Initial residual = 0.555784, Final residual = 9.67688e-07, No Iterations 799
linear solve p 9190781
time step continuity errors : sum local = 5.80442e-10, global = 5.09725e-22, cumulative = 5.09725e-22
nonePCG:  Solving for p, Initial residual = 0.409115, Final residual = 9.91659e-07, No Iterations 794
linear solve p 9228018
time step continuity errors : sum local = 5.87974e-10, global = -8.89572e-22, cumulative = -3.79847e-22
ExecutionTime = 23.98 s  ClockTime = 24 s

Time = 0.00210526

Courant Number mean: 0.172907 max: 0.963527
DILUPBiCGStab:  Solving for Ux, Initial residual = 0.00579889, Final residual = 0.00010225, No Iterations 5
DILUPBiCGStab:  Solving for Uy, Initial residual = 0.0179524, Final residual = 0.000259398, No Iterations 5
DILUPBiCGStab:  Solving for Uz, Initial residual = 0.048725, Final residual = 0.000750971, No Iterations 5
linear solve U 836333
nonePCG:  Solving for p, Initial residual = 0.503489, Final residual = 9.96447e-07, No Iterations 804
linear solve p 9354560
time step continuity errors : sum local = 5.74003e-10, global = -4.32488e-22, cumulative = -8.12335e-22
nonePCG:  Solving for p, Initial residual = 0.458977, Final residual = 9.78362e-07, No Iterations 801
linear solve p 9313371
time step continuity errors : sum local = 5.47765e-10, global = -8.85929e-21, cumulative = -9.67162e-21
ExecutionTime = 43.91 s  ClockTime = 44 s

Time = 0.00315789

Courant Number mean: 0.174172 max: 0.964644
DILUPBiCGStab:  Solving for Ux, Initial residual = 0.00445243, Final residual = 6.52278e-05, No Iterations 5
DILUPBiCGStab:  Solving for Uy, Initial residual = 0.012065, Final residual = 0.000168357, No Iterations 5
DILUPBiCGStab:  Solving for Uz, Initial residual = 0.040114, Final residual = 0.000539539, No Iterations 5
linear solve U 833332
nonePCG:  Solving for p, Initial residual = 0.416684, Final residual = 9.8957e-07, No Iterations 803
linear solve p 9342251
time step continuity errors : sum local = 4.99155e-10, global = 4.63409e-21, cumulative = -5.03754e-21
nonePCG:  Solving for p, Initial residual = 0.362939, Final residual = 9.92065e-07, No Iterations 800
linear solve p 9246876
time step continuity errors : sum local = 5.01972e-10, global = 9.41425e-21, cumulative = 4.37671e-21
ExecutionTime = 63.76 s  ClockTime = 64 s

Time = 0.00421053

Courant Number mean: 0.175231 max: 0.964262
DILUPBiCGStab:  Solving for Ux, Initial residual = 0.00304047, Final residual = 4.39368e-05, No Iterations 5
DILUPBiCGStab:  Solving for Uy, Initial residual = 0.0100843, Final residual = 0.000118359, No Iterations 5
DILUPBiCGStab:  Solving for Uz, Initial residual = 0.0379148, Final residual = 0.00058359, No Iterations 5
linear solve U 841681
nonePCG:  Solving for p, Initial residual = 0.363936, Final residual = 9.67879e-07, No Iterations 802
linear solve p 9315702
time step continuity errors : sum local = 4.42157e-10, global = 1.44308e-21, cumulative = 5.8198e-21
nonePCG:  Solving for p, Initial residual = 0.315847, Final residual = 9.63722e-07, No Iterations 800
linear solve p 9254984
time step continuity errors : sum local = 4.35954e-10, global = 2.86897e-20, cumulative = 3.45095e-20
ExecutionTime = 83.6 s  ClockTime = 84 s

Time = 0.00526316

Courant Number mean: 0.176336 max: 0.964276
DILUPBiCGStab:  Solving for Ux, Initial residual = 0.00258779, Final residual = 2.67229e-05, No Iterations 5
DILUPBiCGStab:  Solving for Uy, Initial residual = 0.00746159, Final residual = 8.17579e-05, No Iterations 5
DILUPBiCGStab:  Solving for Uz, Initial residual = 0.0329221, Final residual = 0.000512676, No Iterations 5
linear solve U 838192
nonePCG:  Solving for p, Initial residual = 0.312123, Final residual = 9.81268e-07, No Iterations 796
linear solve p 9256895
time step continuity errors : sum local = 4.28022e-10, global = -8.68441e-21, cumulative = 2.58251e-20
nonePCG:  Solving for p, Initial residual = 0.265294, Final residual = 9.36879e-07, No Iterations 795
linear solve p 9235205
time step continuity errors : sum local = 4.09052e-10, global = 7.6316e-21, cumulative = 3.34567e-20
ExecutionTime = 103.35 s  ClockTime = 104 s

Time = 0.00631579

Courant Number mean: 0.177349 max: 0.964727
DILUPBiCGStab:  Solving for Ux, Initial residual = 0.00207794, Final residual = 1.83522e-05, No Iterations 5
DILUPBiCGStab:  Solving for Uy, Initial residual = 0.00661447, Final residual = 5.4791e-05, No Iterations 5
DILUPBiCGStab:  Solving for Uz, Initial residual = 0.0282986, Final residual = 0.000462574, No Iterations 5
linear solve U 842224
nonePCG:  Solving for p, Initial residual = 0.277552, Final residual = 9.81614e-07, No Iterations 794
linear solve p 9181161
time step continuity errors : sum local = 3.99969e-10, global = -1.18691e-20, cumulative = 2.15876e-20
nonePCG:  Solving for p, Initial residual = 0.236139, Final residual = 9.75321e-07, No Iterations 792
linear solve p 9090209
time step continuity errors : sum local = 3.94889e-10, global = -9.85661e-21, cumulative = 1.1731e-20
ExecutionTime = 122.89 s  ClockTime = 124 s

Time = 0.00736842

Courant Number mean: 0.178317 max: 0.96464
DILUPBiCGStab:  Solving for Ux, Initial residual = 0.00183607, Final residual = 1.33698e-05, No Iterations 5
DILUPBiCGStab:  Solving for Uy, Initial residual = 0.00549406, Final residual = 3.92365e-05, No Iterations 5
DILUPBiCGStab:  Solving for Uz, Initial residual = 0.0240641, Final residual = 0.000400179, No Iterations 5
linear solve U 840703
nonePCG:  Solving for p, Initial residual = 0.238914, Final residual = 9.7305e-07, No Iterations 788
linear solve p 9154059
time step continuity errors : sum local = 3.87611e-10, global = 5.71498e-24, cumulative = 1.17367e-20
nonePCG:  Solving for p, Initial residual = 0.200883, Final residual = 9.78965e-07, No Iterations 786
linear solve p 9093683
time step continuity errors : sum local = 3.90208e-10, global = 1.72046e-20, cumulative = 2.89413e-20
ExecutionTime = 142.41 s  ClockTime = 143 s

Time = 0.00842105

Courant Number mean: 0.179217 max: 0.96507
DILUPBiCGStab:  Solving for Ux, Initial residual = 0.00158213, Final residual = 1.00625e-05, No Iterations 5
DILUPBiCGStab:  Solving for Uy, Initial residual = 0.0049113, Final residual = 2.89931e-05, No Iterations 5
DILUPBiCGStab:  Solving for Uz, Initial residual = 0.0201112, Final residual = 0.000347229, No Iterations 5
linear solve U 838279
nonePCG:  Solving for p, Initial residual = 0.213075, Final residual = 9.73502e-07, No Iterations 776
linear solve p 9109795
time step continuity errors : sum local = 3.67673e-10, global = 1.06469e-20, cumulative = 3.95882e-20
nonePCG:  Solving for p, Initial residual = 0.179435, Final residual = 9.9178e-07, No Iterations 773
linear solve p 8992400
time step continuity errors : sum local = 3.72897e-10, global = -9.4506e-21, cumulative = 3.01376e-20
ExecutionTime = 161.77 s  ClockTime = 163 s

Time = 0.00947368

Courant Number mean: 0.180056 max: 0.965049
DILUPBiCGStab:  Solving for Ux, Initial residual = 0.00140549, Final residual = 8.06037e-06, No Iterations 5
DILUPBiCGStab:  Solving for Uy, Initial residual = 0.00428031, Final residual = 2.17302e-05, No Iterations 5
DILUPBiCGStab:  Solving for Uz, Initial residual = 0.0170679, Final residual = 0.000288328, No Iterations 5
linear solve U 836828
nonePCG:  Solving for p, Initial residual = 0.183715, Final residual = 9.80697e-07, No Iterations 772
linear solve p 8938445
time step continuity errors : sum local = 3.66504e-10, global = 2.12354e-20, cumulative = 5.1373e-20
nonePCG:  Solving for p, Initial residual = 0.153465, Final residual = 9.94096e-07, No Iterations 769
linear solve p 8931349
time step continuity errors : sum local = 3.71662e-10, global = 2.1505e-21, cumulative = 5.35235e-20
ExecutionTime = 180.9 s  ClockTime = 182 s

Time = 0.0105263

Courant Number mean: 0.180839 max: 0.965378
DILUPBiCGStab:  Solving for Ux, Initial residual = 0.00124838, Final residual = 6.53114e-06, No Iterations 5
DILUPBiCGStab:  Solving for Uy, Initial residual = 0.00384665, Final residual = 1.73204e-05, No Iterations 5
DILUPBiCGStab:  Solving for Uz, Initial residual = 0.0143253, Final residual = 0.000249231, No Iterations 5
linear solve U 840311
nonePCG:  Solving for p, Initial residual = 0.163285, Final residual = 9.32531e-07, No Iterations 767
linear solve p 8849965
time step continuity errors : sum local = 3.34646e-10, global = -5.20848e-21, cumulative = 4.8315e-20
nonePCG:  Solving for p, Initial residual = 0.136567, Final residual = 9.79344e-07, No Iterations 765
linear solve p 8892855
time step continuity errors : sum local = 3.50323e-10, global = 1.16318e-20, cumulative = 5.99468e-20
ExecutionTime = 199.91 s  ClockTime = 201 s

End

