/*---------------------------------------------------------------------------*\
  =========                 |
  \\      /  F ield         | OpenFOAM: The Open Source CFD Toolbox
   \\    /   O peration     | Website:  https://openfoam.org
    \\  /    A nd           | Version:  8
     \\/     M anipulation  |
\*---------------------------------------------------------------------------*/
Build  : 8-13d66902f78c
Exec   : icoFoam
Date   : Jul 05 2021
Time   : 20:07:53
Host   : "uc2n513.localdomain"
PID    : 511473
I/O    : uncollated
Case   : /pfs/data5/home/kit/scc/nq7776/code/OGL_DATA/lidDrivenCavity3D/v0.1-136-g40fef35/f584ccac99/TeslaV100-SXM2-32GB/Test_2021-07-05-20:02:52/100/p-U-CG-GKO-BJ-cuda/lidDrivenCavity3D
nProcs : 1
sigFpe : Enabling floating point exception trapping (FOAM_SIGFPE).
fileModificationChecking : Monitoring run-time modified files using timeStampMaster (fileModificationSkew 10)
allowSystemOperations : Allowing user-supplied system call operations

// * * * * * * * * * * * * * * * * * * * * * * * * * * * * * * * * * * * * * //
Create time

Create mesh for time = 0

Reading transportProperties

Reading field p

Reading field U

Reading/calculating face flux field phi


Starting time loop

Time = 0.001

Courant Number mean: 0 max: 0
[OGL LOG] init_host_sparsity_pattern : 300 ms
[OGL LOG] matrix not stored update host matrix
[OGL LOG] update_host_mtx : 154 ms
[OGL LOG] matrix is not yet sorted, compute sorting idxs
[OGL LOG] compute_sort : 9790 ms
[OGL LOG] matrix is not yet sorted, sorting host matrix
[OGL LOG] sort_host_mtx_sparsity_pattern : 205 ms
[OGL LOG] sort_host_mtx : 126 ms
[OGL LOG] init_preconditioner : 132 ms
[OGL LOG] solve : 161 ms
BJcudaGKOBiCGStab:  Solving for Ux, Initial residual = 1, Final residual = 8.74236e-07, No Iterations 48
[OGL LOG] init_host_sparsity_pattern : 288 ms
[OGL LOG] matrix not stored update host matrix
[OGL LOG] update_host_mtx : 158 ms
[OGL LOG] matrix is not yet sorted, sorting host matrix
[OGL LOG] sort_host_mtx_sparsity_pattern : 207 ms
[OGL LOG] sort_host_mtx : 164 ms
[OGL LOG] init_preconditioner : 109 ms
[OGL LOG] solve : 28 ms
BJcudaGKOBiCGStab:  Solving for Uy, Initial residual = 0, Final residual = 0, No Iterations 0
[OGL LOG] init_host_sparsity_pattern : 293 ms
[OGL LOG] matrix not stored update host matrix
[OGL LOG] update_host_mtx : 156 ms
[OGL LOG] matrix is not yet sorted, sorting host matrix
[OGL LOG] sort_host_mtx_sparsity_pattern : 188 ms
[OGL LOG] sort_host_mtx : 135 ms
[OGL LOG] init_preconditioner : 109 ms
[OGL LOG] solve : 28 ms
BJcudaGKOBiCGStab:  Solving for Uz, Initial residual = 0, Final residual = 0, No Iterations 0
[OGL LOG] init_host_sparsity_pattern : 286 ms
[OGL LOG] matrix not stored update host matrix
[OGL LOG] update_host_mtx : 158 ms
[OGL LOG] matrix is not yet sorted, sorting host matrix
[OGL LOG] sort_host_mtx_sparsity_pattern : 195 ms
[OGL LOG] sort_host_mtx : 133 ms
[OGL LOG] init_preconditioner : 109 ms
 CG create  precond 
[OGL LOG] solve : 1192 ms
BJcudaGKOCG:  Solving for p, Initial residual = 1, Final residual = 9.47176e-07, No Iterations 829
time step continuity errors : sum local = 5.67912e-10, global = -3.18282e-21, cumulative = -3.18282e-21
[OGL LOG] init_preconditioner : 0 ms
 CG create  precond 
[OGL LOG] solve : 1169 ms
BJcudaGKOCG:  Solving for p, Initial residual = 0.783583, Final residual = 9.67165e-07, No Iterations 823
time step continuity errors : sum local = 7.2496e-10, global = 5.62323e-21, cumulative = 2.44041e-21
ExecutionTime = 21.67 s  ClockTime = 22 s

Time = 0.002

Courant Number mean: 0.0571436 max: 0.804774
[OGL LOG] init_host_sparsity_pattern : 276 ms
[OGL LOG] matrix not stored update host matrix
[OGL LOG] update_host_mtx : 150 ms
[OGL LOG] matrix is not yet sorted, sorting host matrix
[OGL LOG] sort_host_mtx_sparsity_pattern : 201 ms
[OGL LOG] sort_host_mtx : 106 ms
[OGL LOG] init_preconditioner : 0 ms
[OGL LOG] solve : 135 ms
BJcudaGKOBiCGStab:  Solving for Ux, Initial residual = 0.169075, Final residual = 8.26048e-07, No Iterations 45
[OGL LOG] init_host_sparsity_pattern : 282 ms
[OGL LOG] matrix not stored update host matrix
[OGL LOG] update_host_mtx : 147 ms
[OGL LOG] matrix is not yet sorted, sorting host matrix
[OGL LOG] sort_host_mtx_sparsity_pattern : 194 ms
[OGL LOG] sort_host_mtx : 107 ms
[OGL LOG] init_preconditioner : 0 ms
[OGL LOG] solve : 122 ms
BJcudaGKOBiCGStab:  Solving for Uy, Initial residual = 0.620181, Final residual = 6.98767e-07, No Iterations 41
[OGL LOG] init_host_sparsity_pattern : 282 ms
[OGL LOG] matrix not stored update host matrix
[OGL LOG] update_host_mtx : 156 ms
[OGL LOG] matrix is not yet sorted, sorting host matrix
[OGL LOG] sort_host_mtx_sparsity_pattern : 194 ms
[OGL LOG] sort_host_mtx : 106 ms
[OGL LOG] init_preconditioner : 0 ms
[OGL LOG] solve : 139 ms
BJcudaGKOBiCGStab:  Solving for Uz, Initial residual = 0.646971, Final residual = 8.38023e-07, No Iterations 47
[OGL LOG] init_preconditioner : 0 ms
 CG create  precond 
[OGL LOG] solve : 1165 ms
BJcudaGKOCG:  Solving for p, Initial residual = 0.798452, Final residual = 9.38694e-07, No Iterations 822
time step continuity errors : sum local = 9.5458e-10, global = 4.78027e-21, cumulative = 7.22068e-21
[OGL LOG] init_preconditioner : 0 ms
 CG create  precond 
[OGL LOG] solve : 1167 ms
BJcudaGKOCG:  Solving for p, Initial residual = 0.738606, Final residual = 9.76955e-07, No Iterations 820
time step continuity errors : sum local = 1.01486e-09, global = 7.08714e-21, cumulative = 1.43078e-20
ExecutionTime = 27.55 s  ClockTime = 28 s

Time = 0.003

Courant Number mean: 0.086739 max: 0.944826
[OGL LOG] init_host_sparsity_pattern : 300 ms
[OGL LOG] matrix not stored update host matrix
[OGL LOG] update_host_mtx : 159 ms
[OGL LOG] matrix is not yet sorted, sorting host matrix
[OGL LOG] sort_host_mtx_sparsity_pattern : 224 ms
[OGL LOG] sort_host_mtx : 121 ms
[OGL LOG] init_preconditioner : 0 ms
[OGL LOG] solve : 128 ms
BJcudaGKOBiCGStab:  Solving for Ux, Initial residual = 0.102637, Final residual = 9.53508e-07, No Iterations 42
[OGL LOG] init_host_sparsity_pattern : 296 ms
[OGL LOG] matrix not stored update host matrix
[OGL LOG] update_host_mtx : 150 ms
[OGL LOG] matrix is not yet sorted, sorting host matrix
[OGL LOG] sort_host_mtx_sparsity_pattern : 205 ms
[OGL LOG] sort_host_mtx : 114 ms
[OGL LOG] init_preconditioner : 0 ms
[OGL LOG] solve : 129 ms
BJcudaGKOBiCGStab:  Solving for Uy, Initial residual = 0.396947, Final residual = 7.54917e-07, No Iterations 43
[OGL LOG] init_host_sparsity_pattern : 294 ms
[OGL LOG] matrix not stored update host matrix
[OGL LOG] update_host_mtx : 157 ms
[OGL LOG] matrix is not yet sorted, sorting host matrix
[OGL LOG] sort_host_mtx_sparsity_pattern : 206 ms
[OGL LOG] sort_host_mtx : 113 ms
[OGL LOG] init_preconditioner : 0 ms
[OGL LOG] solve : 141 ms
BJcudaGKOBiCGStab:  Solving for Uz, Initial residual = 1.00089, Final residual = 8.14453e-07, No Iterations 47
[OGL LOG] init_preconditioner : 0 ms
 CG create  precond 
[OGL LOG] solve : 1174 ms
BJcudaGKOCG:  Solving for p, Initial residual = 0.832647, Final residual = 9.74126e-07, No Iterations 824
time step continuity errors : sum local = 9.38403e-10, global = 1.41122e-20, cumulative = 2.84201e-20
[OGL LOG] init_preconditioner : 0 ms
 CG create  precond 
[OGL LOG] solve : 1171 ms
BJcudaGKOCG:  Solving for p, Initial residual = 0.802906, Final residual = 9.81284e-07, No Iterations 823
time step continuity errors : sum local = 9.2166e-10, global = 1.18888e-21, cumulative = 2.96089e-20
ExecutionTime = 33.56 s  ClockTime = 34 s

Time = 0.004

Courant Number mean: 0.0995267 max: 0.926351
[OGL LOG] init_host_sparsity_pattern : 296 ms
[OGL LOG] matrix not stored update host matrix
[OGL LOG] update_host_mtx : 157 ms
[OGL LOG] matrix is not yet sorted, sorting host matrix
[OGL LOG] sort_host_mtx_sparsity_pattern : 206 ms
[OGL LOG] sort_host_mtx : 114 ms
[OGL LOG] init_preconditioner : 0 ms
[OGL LOG] solve : 122 ms
BJcudaGKOBiCGStab:  Solving for Ux, Initial residual = 0.0541605, Final residual = 9.33106e-07, No Iterations 40
[OGL LOG] init_host_sparsity_pattern : 301 ms
[OGL LOG] matrix not stored update host matrix
[OGL LOG] update_host_mtx : 155 ms
[OGL LOG] matrix is not yet sorted, sorting host matrix
[OGL LOG] sort_host_mtx_sparsity_pattern : 201 ms
[OGL LOG] sort_host_mtx : 109 ms
[OGL LOG] init_preconditioner : 0 ms
[OGL LOG] solve : 117 ms
BJcudaGKOBiCGStab:  Solving for Uy, Initial residual = 0.255022, Final residual = 7.75898e-07, No Iterations 38
[OGL LOG] init_host_sparsity_pattern : 290 ms
[OGL LOG] matrix not stored update host matrix
[OGL LOG] update_host_mtx : 156 ms
[OGL LOG] matrix is not yet sorted, sorting host matrix
[OGL LOG] sort_host_mtx_sparsity_pattern : 206 ms
[OGL LOG] sort_host_mtx : 114 ms
[OGL LOG] init_preconditioner : 0 ms
[OGL LOG] solve : 137 ms
BJcudaGKOBiCGStab:  Solving for Uz, Initial residual = 0.873032, Final residual = 5.47822e-07, No Iterations 46
[OGL LOG] init_preconditioner : 0 ms
 CG create  precond 
[OGL LOG] solve : 1153 ms
BJcudaGKOCG:  Solving for p, Initial residual = 0.75017, Final residual = 9.81058e-07, No Iterations 802
time step continuity errors : sum local = 8.7302e-10, global = 2.10136e-21, cumulative = 3.17103e-20
[OGL LOG] init_preconditioner : 0 ms
 CG create  precond 
[OGL LOG] solve : 1134 ms
BJcudaGKOCG:  Solving for p, Initial residual = 0.685317, Final residual = 9.85819e-07, No Iterations 800
time step continuity errors : sum local = 8.93845e-10, global = -9.73518e-21, cumulative = 2.19751e-20
ExecutionTime = 39.48 s  ClockTime = 40 s

Time = 0.005

Courant Number mean: 0.112163 max: 0.946348
[OGL LOG] init_host_sparsity_pattern : 299 ms
[OGL LOG] matrix not stored update host matrix
[OGL LOG] update_host_mtx : 156 ms
[OGL LOG] matrix is not yet sorted, sorting host matrix
[OGL LOG] sort_host_mtx_sparsity_pattern : 204 ms
[OGL LOG] sort_host_mtx : 111 ms
[OGL LOG] init_preconditioner : 0 ms
[OGL LOG] solve : 121 ms
BJcudaGKOBiCGStab:  Solving for Ux, Initial residual = 0.0411814, Final residual = 8.44802e-07, No Iterations 39
[OGL LOG] init_host_sparsity_pattern : 297 ms
[OGL LOG] matrix not stored update host matrix
[OGL LOG] update_host_mtx : 157 ms
[OGL LOG] matrix is not yet sorted, sorting host matrix
[OGL LOG] sort_host_mtx_sparsity_pattern : 206 ms
[OGL LOG] sort_host_mtx : 110 ms
[OGL LOG] init_preconditioner : 0 ms
[OGL LOG] solve : 113 ms
BJcudaGKOBiCGStab:  Solving for Uy, Initial residual = 0.131859, Final residual = 2.06013e-07, No Iterations 37
[OGL LOG] init_host_sparsity_pattern : 287 ms
[OGL LOG] matrix not stored update host matrix
[OGL LOG] update_host_mtx : 154 ms
[OGL LOG] matrix is not yet sorted, sorting host matrix
[OGL LOG] sort_host_mtx_sparsity_pattern : 206 ms
[OGL LOG] sort_host_mtx : 114 ms
[OGL LOG] init_preconditioner : 0 ms
[OGL LOG] solve : 139 ms
BJcudaGKOBiCGStab:  Solving for Uz, Initial residual = 0.871816, Final residual = 9.89707e-07, No Iterations 47
[OGL LOG] init_preconditioner : 0 ms
 CG create  precond 
[OGL LOG] solve : 1153 ms
BJcudaGKOCG:  Solving for p, Initial residual = 0.760002, Final residual = 9.70833e-07, No Iterations 807
time step continuity errors : sum local = 7.3405e-10, global = 1.98871e-21, cumulative = 2.39638e-20
[OGL LOG] init_preconditioner : 0 ms
 CG create  precond 
[OGL LOG] solve : 1151 ms
BJcudaGKOCG:  Solving for p, Initial residual = 0.713346, Final residual = 9.76003e-07, No Iterations 806
time step continuity errors : sum local = 7.26177e-10, global = 3.97084e-21, cumulative = 2.79347e-20
ExecutionTime = 45.35 s  ClockTime = 46 s

End

