/*---------------------------------------------------------------------------*\
  =========                 |
  \\      /  F ield         | OpenFOAM: The Open Source CFD Toolbox
   \\    /   O peration     | Website:  https://openfoam.org
    \\  /    A nd           | Version:  8
     \\/     M anipulation  |
\*---------------------------------------------------------------------------*/
Build  : 8-13d66902f78c
Exec   : icoFoam
Date   : Jul 05 2021
Time   : 01:03:11
Host   : "uc2n489.localdomain"
PID    : 902679
I/O    : uncollated
Case   : /pfs/data5/home/kit/scc/nq7776/code/OGL_DATA/lidDrivenCavity3D/v0.1-136-g40fef35/f584ccac99/TeslaV100-SXM2-32GB/Test_2021-07-05-01:03:06/25/p-IR-GKO-BJ-cuda/lidDrivenCavity3D
nProcs : 1
sigFpe : Enabling floating point exception trapping (FOAM_SIGFPE).
fileModificationChecking : Monitoring run-time modified files using timeStampMaster (fileModificationSkew 10)
allowSystemOperations : Allowing user-supplied system call operations

// * * * * * * * * * * * * * * * * * * * * * * * * * * * * * * * * * * * * * //
Create time

Create mesh for time = 0

Reading transportProperties

Reading field p

Reading field U

Reading/calculating face flux field phi


Starting time loop

Time = 0.004

Courant Number mean: 0 max: 0
nonePBiCGStab:  Solving for Ux, Initial residual = 1, Final residual = 0.0337517, No Iterations 5
nonePBiCGStab:  Solving for Uy, Initial residual = 0, Final residual = 0, No Iterations 0
nonePBiCGStab:  Solving for Uz, Initial residual = 0, Final residual = 0, No Iterations 0
[OGL LOG] init_host_sparsity_pattern : 4 ms
[OGL LOG] matrix not stored update host matrix
[OGL LOG] update_host_mtx : 2 ms
[OGL LOG] matrix is not yet sorted, compute sorting idxs
[OGL LOG] compute_sort : 106 ms
[OGL LOG] matrix is not yet sorted, sorting host matrix
[OGL LOG] sort_host_mtx_sparsity_pattern : 2 ms
[OGL LOG] sort_host_mtx : 1 ms
[OGL LOG] init_preconditioner : 2 ms
[OGL LOG] solve : 47 ms
BJcudaGKOIR:  Solving for p, Initial residual = 1, Final residual = 4.39504e-08, No Iterations 4
time step continuity errors : sum local = 1.7454e-10, global = -7.07991e-20, cumulative = -7.07991e-20
[OGL LOG] init_preconditioner : 0 ms
[OGL LOG] solve : 46 ms
BJcudaGKOIR:  Solving for p, Initial residual = 0.622285, Final residual = 1.77186e-08, No Iterations 4
time step continuity errors : sum local = 1.02916e-10, global = 9.61237e-20, cumulative = 2.53246e-20
ExecutionTime = 1.07 s  ClockTime = 1 s

Time = 0.008

Courant Number mean: 0.084228 max: 0.621061
nonePBiCGStab:  Solving for Ux, Initial residual = 0.149589, Final residual = 0.00942683, No Iterations 5
nonePBiCGStab:  Solving for Uy, Initial residual = 0.281195, Final residual = 0.0142199, No Iterations 5
nonePBiCGStab:  Solving for Uz, Initial residual = 0.933287, Final residual = 0.0511081, No Iterations 5
[OGL LOG] init_preconditioner : 0 ms
[OGL LOG] solve : 38 ms
BJcudaGKOIR:  Solving for p, Initial residual = 0.518045, Final residual = 9.63701e-09, No Iterations 4
time step continuity errors : sum local = 7.14513e-11, global = -6.87927e-20, cumulative = -4.34681e-20
[OGL LOG] init_preconditioner : 0 ms
[OGL LOG] solve : 31 ms
BJcudaGKOIR:  Solving for p, Initial residual = 0.415898, Final residual = 7.7144e-07, No Iterations 3
time step continuity errors : sum local = 4.7179e-09, global = -5.98178e-20, cumulative = -1.03286e-19
ExecutionTime = 1.15 s  ClockTime = 1 s

Time = 0.012

Courant Number mean: 0.124051 max: 0.792234
nonePBiCGStab:  Solving for Ux, Initial residual = 0.0425002, Final residual = 0.00204637, No Iterations 5
nonePBiCGStab:  Solving for Uy, Initial residual = 0.0761453, Final residual = 0.00263682, No Iterations 5
nonePBiCGStab:  Solving for Uz, Initial residual = 0.14271, Final residual = 0.00668455, No Iterations 5
[OGL LOG] init_preconditioner : 0 ms
[OGL LOG] solve : 30 ms
BJcudaGKOIR:  Solving for p, Initial residual = 0.279188, Final residual = 4.23742e-07, No Iterations 3
time step continuity errors : sum local = 1.85296e-09, global = 2.35858e-20, cumulative = -7.97e-20
[OGL LOG] init_preconditioner : 0 ms
[OGL LOG] solve : 32 ms
BJcudaGKOIR:  Solving for p, Initial residual = 0.224051, Final residual = 3.89703e-07, No Iterations 3
time step continuity errors : sum local = 1.6722e-09, global = 5.8507e-20, cumulative = -2.1193e-20
ExecutionTime = 1.23 s  ClockTime = 1 s

Time = 0.016

Courant Number mean: 0.142529 max: 0.824384
nonePBiCGStab:  Solving for Ux, Initial residual = 0.0219032, Final residual = 0.00075246, No Iterations 5
nonePBiCGStab:  Solving for Uy, Initial residual = 0.0474704, Final residual = 0.000975034, No Iterations 5
nonePBiCGStab:  Solving for Uz, Initial residual = 0.0926543, Final residual = 0.00322908, No Iterations 5
[OGL LOG] init_preconditioner : 0 ms
[OGL LOG] solve : 29 ms
BJcudaGKOIR:  Solving for p, Initial residual = 0.13855, Final residual = 2.16862e-07, No Iterations 3
time step continuity errors : sum local = 9.24776e-10, global = -1.59431e-20, cumulative = -3.71361e-20
[OGL LOG] init_preconditioner : 0 ms
[OGL LOG] solve : 30 ms
BJcudaGKOIR:  Solving for p, Initial residual = 0.106559, Final residual = 1.69044e-07, No Iterations 3
time step continuity errors : sum local = 7.29149e-10, global = -1.84938e-19, cumulative = -2.22074e-19
ExecutionTime = 1.3 s  ClockTime = 1 s

Time = 0.02

Courant Number mean: 0.154857 max: 0.843613
nonePBiCGStab:  Solving for Ux, Initial residual = 0.0136635, Final residual = 0.000405684, No Iterations 5
nonePBiCGStab:  Solving for Uy, Initial residual = 0.0288036, Final residual = 0.000728011, No Iterations 5
nonePBiCGStab:  Solving for Uz, Initial residual = 0.0551893, Final residual = 0.00171376, No Iterations 5
[OGL LOG] init_preconditioner : 0 ms
[OGL LOG] solve : 28 ms
BJcudaGKOIR:  Solving for p, Initial residual = 0.0654138, Final residual = 8.30101e-08, No Iterations 3
time step continuity errors : sum local = 3.42967e-10, global = -1.01632e-19, cumulative = -3.23706e-19
[OGL LOG] init_preconditioner : 0 ms
[OGL LOG] solve : 30 ms
BJcudaGKOIR:  Solving for p, Initial residual = 0.0510736, Final residual = 7.048e-08, No Iterations 3
time step continuity errors : sum local = 2.89188e-10, global = 5.06965e-20, cumulative = -2.73009e-19
ExecutionTime = 1.37 s  ClockTime = 1 s

End

