/*---------------------------------------------------------------------------*\
  =========                 |
  \\      /  F ield         | OpenFOAM: The Open Source CFD Toolbox
   \\    /   O peration     | Website:  https://openfoam.org
    \\  /    A nd           | Version:  8
     \\/     M anipulation  |
\*---------------------------------------------------------------------------*/
Build  : 8-13d66902f78c
Exec   : icoFoam
Date   : Jul 12 2021
Time   : 17:27:27
Host   : "uc2n489.localdomain"
PID    : 4112491
I/O    : uncollated
Case   : /pfs/data5/home/kit/scc/nq7776/code/OGL_DATA/lidDrivenCavity3D/v0.1-136-g40fef35/f584ccac99/TeslaV100-SXM2-32GB/Test_2021-07-12-17:22:32/100/p-BiCGStab-GKO-none-cuda/lidDrivenCavity3D
nProcs : 1
sigFpe : Enabling floating point exception trapping (FOAM_SIGFPE).
fileModificationChecking : Monitoring run-time modified files using timeStampMaster (fileModificationSkew 10)
allowSystemOperations : Allowing user-supplied system call operations

// * * * * * * * * * * * * * * * * * * * * * * * * * * * * * * * * * * * * * //
Create time

Create mesh for time = 0

Reading transportProperties

Reading field p

Reading field U

Reading/calculating face flux field phi


Starting time loop

Time = 0.001

Courant Number mean: 0 max: 0
nonePBiCGStab:  Solving for Ux, Initial residual = 1, Final residual = 0.0818707, No Iterations 5
nonePBiCGStab:  Solving for Uy, Initial residual = 0, Final residual = 0, No Iterations 0
nonePBiCGStab:  Solving for Uz, Initial residual = 0, Final residual = 0, No Iterations 0
[OGL LOG] init_host_sparsity_pattern : 312 ms
[OGL LOG] matrix not stored update host matrix
[OGL LOG] update_host_mtx : 164 ms
[OGL LOG] matrix is not yet sorted, compute sorting idxs
[OGL LOG] compute_sort : 9814 ms
[OGL LOG] matrix is not yet sorted, sorting host matrix
[OGL LOG] sort_host_mtx_sparsity_pattern : 203 ms
[OGL LOG] sort_host_mtx : 127 ms
[OGL LOG] init_preconditioner : 0 ms
[OGL LOG] solve : 1927 ms
nonecudaGKOBiCGStab:  Solving for p, Initial residual = 1, Final residual = 7.07986e-07, No Iterations 789
time step continuity errors : sum local = 2.61079e-05, global = -1.04162e-19, cumulative = -1.04162e-19
[OGL LOG] init_preconditioner : 0 ms
[OGL LOG] solve : 1928 ms
nonecudaGKOBiCGStab:  Solving for p, Initial residual = 0.725887, Final residual = 3.58388e-07, No Iterations 775
time step continuity errors : sum local = 1.9204e-05, global = -5.78062e-21, cumulative = -1.09943e-19
ExecutionTime = 20.33 s  ClockTime = 20 s

Time = 0.002

Courant Number mean: 0.0422238 max: 0.792112
nonePBiCGStab:  Solving for Ux, Initial residual = 0.137868, Final residual = 0.0400083, No Iterations 5
nonePBiCGStab:  Solving for Uy, Initial residual = 0.451728, Final residual = 0.130136, No Iterations 5
nonePBiCGStab:  Solving for Uz, Initial residual = 0.812425, Final residual = 0.269554, No Iterations 5
[OGL LOG] init_preconditioner : 0 ms
[OGL LOG] solve : 1824 ms
nonecudaGKOBiCGStab:  Solving for p, Initial residual = 0.791991, Final residual = 9.89617e-07, No Iterations 745
time step continuity errors : sum local = 6.98567e-07, global = 4.69283e-21, cumulative = -1.0525e-19
[OGL LOG] init_preconditioner : 0 ms
[OGL LOG] solve : 1981 ms
nonecudaGKOBiCGStab:  Solving for p, Initial residual = 0.712001, Final residual = 3.21642e-07, No Iterations 807
time step continuity errors : sum local = 6.84696e-05, global = 6.36476e-20, cumulative = -4.16023e-20
ExecutionTime = 25.44 s  ClockTime = 25 s

Time = 0.003

Courant Number mean: 0.067499 max: 0.900499
nonePBiCGStab:  Solving for Ux, Initial residual = 0.0610539, Final residual = 0.0152968, No Iterations 5
nonePBiCGStab:  Solving for Uy, Initial residual = 0.208919, Final residual = 0.0594118, No Iterations 5
nonePBiCGStab:  Solving for Uz, Initial residual = 0.701525, Final residual = 0.252146, No Iterations 5
[OGL LOG] init_preconditioner : 0 ms
[OGL LOG] solve : 1757 ms
nonecudaGKOBiCGStab:  Solving for p, Initial residual = 0.871021, Final residual = 8.11441e-07, No Iterations 722
time step continuity errors : sum local = 0.00065799, global = -9.85155e-19, cumulative = -1.02676e-18
[OGL LOG] init_preconditioner : 0 ms
[OGL LOG] solve : 1730 ms
nonecudaGKOBiCGStab:  Solving for p, Initial residual = 0.901494, Final residual = 9.16969e-07, No Iterations 704
time step continuity errors : sum local = 1.29549e-05, global = -2.3974e-20, cumulative = -1.05073e-18
ExecutionTime = 30.26 s  ClockTime = 30 s

Time = 0.004

Courant Number mean: 0.0815133 max: 0.916232
nonePBiCGStab:  Solving for Ux, Initial residual = 0.039069, Final residual = 0.0107927, No Iterations 5
nonePBiCGStab:  Solving for Uy, Initial residual = 0.152939, Final residual = 0.0524413, No Iterations 5
nonePBiCGStab:  Solving for Uz, Initial residual = 0.860085, Final residual = 0.318679, No Iterations 5
[OGL LOG] init_preconditioner : 0 ms
[OGL LOG] solve : 1446 ms
nonecudaGKOBiCGStab:  Solving for p, Initial residual = 0.950718, Final residual = 9.24276e-07, No Iterations 599
time step continuity errors : sum local = 2.20967e-08, global = -1.89805e-21, cumulative = -1.05263e-18
[OGL LOG] init_preconditioner : 0 ms
[OGL LOG] solve : 1508 ms
nonecudaGKOBiCGStab:  Solving for p, Initial residual = 0.845025, Final residual = 1.47268e-07, No Iterations 622
time step continuity errors : sum local = 0.000780017, global = -7.24543e-19, cumulative = -1.77717e-18
ExecutionTime = 34.49 s  ClockTime = 34 s

Time = 0.005

Courant Number mean: 0.0935025 max: 0.966693
nonePBiCGStab:  Solving for Ux, Initial residual = 0.032761, Final residual = 0.00956421, No Iterations 5
nonePBiCGStab:  Solving for Uy, Initial residual = 0.118784, Final residual = 0.0405562, No Iterations 5
nonePBiCGStab:  Solving for Uz, Initial residual = 0.571027, Final residual = 0.174687, No Iterations 5
[OGL LOG] init_preconditioner : 0 ms
[OGL LOG] solve : 1581 ms
nonecudaGKOBiCGStab:  Solving for p, Initial residual = 0.905316, Final residual = 8.33786e-07, No Iterations 654
time step continuity errors : sum local = 0.000696441, global = -2.02476e-18, cumulative = -3.80193e-18
[OGL LOG] init_preconditioner : 0 ms
[OGL LOG] solve : 1550 ms
nonecudaGKOBiCGStab:  Solving for p, Initial residual = 0.804065, Final residual = 9.09932e-07, No Iterations 639
time step continuity errors : sum local = 9.17441e-05, global = 1.98586e-20, cumulative = -3.78208e-18
ExecutionTime = 38.91 s  ClockTime = 39 s

End

