/*---------------------------------------------------------------------------*\
  =========                 |
  \\      /  F ield         | OpenFOAM: The Open Source CFD Toolbox
   \\    /   O peration     | Website:  https://openfoam.org
    \\  /    A nd           | Version:  8
     \\/     M anipulation  |
\*---------------------------------------------------------------------------*/
Build  : 8-13d66902f78c
Exec   : icoFoam
Date   : Jul 05 2021
Time   : 01:04:19
Host   : "uc2n489.localdomain"
PID    : 903034
I/O    : uncollated
Case   : /pfs/data5/home/kit/scc/nq7776/code/OGL_DATA/lidDrivenCavity3D/v0.1-136-g40fef35/f584ccac99/TeslaV100-SXM2-32GB/Test_2021-07-05-01:03:06/50/p-IR-GKO-BJ-cuda/lidDrivenCavity3D
nProcs : 1
sigFpe : Enabling floating point exception trapping (FOAM_SIGFPE).
fileModificationChecking : Monitoring run-time modified files using timeStampMaster (fileModificationSkew 10)
allowSystemOperations : Allowing user-supplied system call operations

// * * * * * * * * * * * * * * * * * * * * * * * * * * * * * * * * * * * * * //
Create time

Create mesh for time = 0

Reading transportProperties

Reading field p

Reading field U

Reading/calculating face flux field phi


Starting time loop

Time = 0.002

Courant Number mean: 0 max: 0
nonePBiCGStab:  Solving for Ux, Initial residual = 1, Final residual = 0.0592055, No Iterations 5
nonePBiCGStab:  Solving for Uy, Initial residual = 0, Final residual = 0, No Iterations 0
nonePBiCGStab:  Solving for Uz, Initial residual = 0, Final residual = 0, No Iterations 0
[OGL LOG] init_host_sparsity_pattern : 34 ms
[OGL LOG] matrix not stored update host matrix
[OGL LOG] update_host_mtx : 19 ms
[OGL LOG] matrix is not yet sorted, compute sorting idxs
[OGL LOG] compute_sort : 1032 ms
[OGL LOG] matrix is not yet sorted, sorting host matrix
[OGL LOG] sort_host_mtx_sparsity_pattern : 24 ms
[OGL LOG] sort_host_mtx : 14 ms
[OGL LOG] init_preconditioner : 13 ms
[OGL LOG] solve : 107 ms
BJcudaGKOIR:  Solving for p, Initial residual = 1, Final residual = 9.52295e-08, No Iterations 4
time step continuity errors : sum local = 1.22162e-10, global = -1.63642e-20, cumulative = -1.63642e-20
[OGL LOG] init_preconditioner : 0 ms
[OGL LOG] solve : 105 ms
BJcudaGKOIR:  Solving for p, Initial residual = 0.67673, Final residual = 4.82884e-08, No Iterations 4
time step continuity errors : sum local = 8.75971e-11, global = 2.08405e-20, cumulative = 4.47635e-21
ExecutionTime = 2.72 s  ClockTime = 2 s

Time = 0.004

Courant Number mean: 0.0636233 max: 0.723792
nonePBiCGStab:  Solving for Ux, Initial residual = 0.144136, Final residual = 0.0219208, No Iterations 5
nonePBiCGStab:  Solving for Uy, Initial residual = 0.363931, Final residual = 0.0522819, No Iterations 5
nonePBiCGStab:  Solving for Uz, Initial residual = 0.973677, Final residual = 0.158944, No Iterations 5
[OGL LOG] init_preconditioner : 0 ms
[OGL LOG] solve : 105 ms
BJcudaGKOIR:  Solving for p, Initial residual = 0.668507, Final residual = 2.35111e-08, No Iterations 4
time step continuity errors : sum local = 5.38346e-11, global = -3.8e-21, cumulative = 6.76347e-22
[OGL LOG] init_preconditioner : 0 ms
[OGL LOG] solve : 106 ms
BJcudaGKOIR:  Solving for p, Initial residual = 0.584655, Final residual = 1.96227e-08, No Iterations 4
time step continuity errors : sum local = 4.60746e-11, global = -3.29729e-21, cumulative = -2.62095e-21
ExecutionTime = 3.08 s  ClockTime = 3 s

Time = 0.006

Courant Number mean: 0.0972275 max: 0.862515
nonePBiCGStab:  Solving for Ux, Initial residual = 0.0524189, Final residual = 0.00685534, No Iterations 5
nonePBiCGStab:  Solving for Uy, Initial residual = 0.127046, Final residual = 0.0201182, No Iterations 5
nonePBiCGStab:  Solving for Uz, Initial residual = 0.366752, Final residual = 0.0530698, No Iterations 5
[OGL LOG] init_preconditioner : 0 ms
[OGL LOG] solve : 105 ms
BJcudaGKOIR:  Solving for p, Initial residual = 0.594544, Final residual = 1.87111e-08, No Iterations 4
time step continuity errors : sum local = 2.98111e-11, global = 1.31732e-20, cumulative = 1.05523e-20
[OGL LOG] init_preconditioner : 0 ms
[OGL LOG] solve : 104 ms
BJcudaGKOIR:  Solving for p, Initial residual = 0.528702, Final residual = 1.37346e-08, No Iterations 4
time step continuity errors : sum local = 2.11675e-11, global = -3.56241e-20, cumulative = -2.50719e-20
ExecutionTime = 3.43 s  ClockTime = 3 s

Time = 0.008

Courant Number mean: 0.113794 max: 0.88248
nonePBiCGStab:  Solving for Ux, Initial residual = 0.0289573, Final residual = 0.00344465, No Iterations 5
nonePBiCGStab:  Solving for Uy, Initial residual = 0.0844254, Final residual = 0.0109195, No Iterations 5
nonePBiCGStab:  Solving for Uz, Initial residual = 0.229193, Final residual = 0.0297664, No Iterations 5
[OGL LOG] init_preconditioner : 0 ms
[OGL LOG] solve : 85 ms
BJcudaGKOIR:  Solving for p, Initial residual = 0.411432, Final residual = 1.02189e-08, No Iterations 4
time step continuity errors : sum local = 1.55758e-11, global = 2.21629e-20, cumulative = -2.90898e-21
[OGL LOG] init_preconditioner : 0 ms
[OGL LOG] solve : 69 ms
BJcudaGKOIR:  Solving for p, Initial residual = 0.342686, Final residual = 9.27189e-07, No Iterations 3
time step continuity errors : sum local = 1.43982e-09, global = 2.93255e-21, cumulative = 2.35696e-23
ExecutionTime = 3.72 s  ClockTime = 3 s

Time = 0.01

Courant Number mean: 0.127339 max: 0.898877
nonePBiCGStab:  Solving for Ux, Initial residual = 0.020277, Final residual = 0.00208485, No Iterations 5
nonePBiCGStab:  Solving for Uy, Initial residual = 0.0505563, Final residual = 0.00623586, No Iterations 5
nonePBiCGStab:  Solving for Uz, Initial residual = 0.112947, Final residual = 0.0180731, No Iterations 5
[OGL LOG] init_preconditioner : 0 ms
[OGL LOG] solve : 65 ms
BJcudaGKOIR:  Solving for p, Initial residual = 0.354043, Final residual = 8.59982e-07, No Iterations 3
time step continuity errors : sum local = 1.09018e-09, global = -2.08567e-20, cumulative = -2.08331e-20
[OGL LOG] init_preconditioner : 0 ms
[OGL LOG] solve : 66 ms
BJcudaGKOIR:  Solving for p, Initial residual = 0.302211, Final residual = 7.05108e-07, No Iterations 3
time step continuity errors : sum local = 8.82418e-10, global = 2.5505e-20, cumulative = 4.67182e-21
ExecutionTime = 4 s  ClockTime = 4 s

End

