/*---------------------------------------------------------------------------*\
  =========                 |
  \\      /  F ield         | OpenFOAM: The Open Source CFD Toolbox
   \\    /   O peration     | Website:  https://openfoam.org
    \\  /    A nd           | Version:  8
     \\/     M anipulation  |
\*---------------------------------------------------------------------------*/
Build  : 8-13d66902f78c
Exec   : icoFoam
Date   : Jul 05 2021
Time   : 00:56:05
Host   : "uc2n489.localdomain"
PID    : 895623
I/O    : uncollated
Case   : /pfs/data5/home/kit/scc/nq7776/code/OGL_DATA/lidDrivenCavity3D/v0.1-136-g40fef35/f584ccac99/TeslaV100-SXM2-32GB/Test_2021-07-05-00:54:20/50/p-BiCGStab-GKO-BJ-cuda/lidDrivenCavity3D
nProcs : 1
sigFpe : Enabling floating point exception trapping (FOAM_SIGFPE).
fileModificationChecking : Monitoring run-time modified files using timeStampMaster (fileModificationSkew 10)
allowSystemOperations : Allowing user-supplied system call operations

// * * * * * * * * * * * * * * * * * * * * * * * * * * * * * * * * * * * * * //
Create time

Create mesh for time = 0

Reading transportProperties

Reading field p

Reading field U

Reading/calculating face flux field phi


Starting time loop

Time = 0.002

Courant Number mean: 0 max: 0
nonePBiCGStab:  Solving for Ux, Initial residual = 1, Final residual = 0.0592055, No Iterations 5
nonePBiCGStab:  Solving for Uy, Initial residual = 0, Final residual = 0, No Iterations 0
nonePBiCGStab:  Solving for Uz, Initial residual = 0, Final residual = 0, No Iterations 0
[OGL LOG] init_host_sparsity_pattern : 36 ms
[OGL LOG] matrix not stored update host matrix
[OGL LOG] update_host_mtx : 19 ms
[OGL LOG] matrix is not yet sorted, compute sorting idxs
[OGL LOG] compute_sort : 1039 ms
[OGL LOG] matrix is not yet sorted, sorting host matrix
[OGL LOG] sort_host_mtx_sparsity_pattern : 24 ms
[OGL LOG] sort_host_mtx : 13 ms
[OGL LOG] init_preconditioner : 13 ms
[OGL LOG] solve : 111 ms
BJcudaGKOBiCGStab:  Solving for p, Initial residual = 1, Final residual = 4.76575e-07, No Iterations 287
time step continuity errors : sum local = 1.22232e-09, global = -1.76546e-20, cumulative = -1.76546e-20
[OGL LOG] init_preconditioner : 0 ms
[OGL LOG] solve : 95 ms
BJcudaGKOBiCGStab:  Solving for p, Initial residual = 0.676729, Final residual = 8.82079e-07, No Iterations 257
time step continuity errors : sum local = 3.19007e-09, global = 3.48447e-20, cumulative = 1.719e-20
ExecutionTime = 2.75 s  ClockTime = 3 s

Time = 0.004

Courant Number mean: 0.0636233 max: 0.723792
nonePBiCGStab:  Solving for Ux, Initial residual = 0.144135, Final residual = 0.0219203, No Iterations 5
nonePBiCGStab:  Solving for Uy, Initial residual = 0.363931, Final residual = 0.0522817, No Iterations 5
nonePBiCGStab:  Solving for Uz, Initial residual = 0.973636, Final residual = 0.15893, No Iterations 5
[OGL LOG] init_preconditioner : 0 ms
[OGL LOG] solve : 99 ms
BJcudaGKOBiCGStab:  Solving for p, Initial residual = 0.668512, Final residual = 7.78479e-07, No Iterations 267
time step continuity errors : sum local = 3.17269e-09, global = -2.6328e-21, cumulative = 1.45572e-20
[OGL LOG] init_preconditioner : 0 ms
[OGL LOG] solve : 96 ms
BJcudaGKOBiCGStab:  Solving for p, Initial residual = 0.584663, Final residual = 9.78339e-07, No Iterations 258
time step continuity errors : sum local = 3.64755e-09, global = -1.63589e-20, cumulative = -1.80169e-21
ExecutionTime = 3.08 s  ClockTime = 3 s

Time = 0.006

Courant Number mean: 0.0972275 max: 0.862515
nonePBiCGStab:  Solving for Ux, Initial residual = 0.0524168, Final residual = 0.00685503, No Iterations 5
nonePBiCGStab:  Solving for Uy, Initial residual = 0.127052, Final residual = 0.020119, No Iterations 5
nonePBiCGStab:  Solving for Uz, Initial residual = 0.366619, Final residual = 0.0530507, No Iterations 5
[OGL LOG] init_preconditioner : 0 ms
[OGL LOG] solve : 104 ms
BJcudaGKOBiCGStab:  Solving for p, Initial residual = 0.594545, Final residual = 9.86959e-07, No Iterations 280
time step continuity errors : sum local = 1.90211e-09, global = 8.71771e-22, cumulative = -9.29922e-22
[OGL LOG] init_preconditioner : 0 ms
[OGL LOG] solve : 99 ms
BJcudaGKOBiCGStab:  Solving for p, Initial residual = 0.528704, Final residual = 7.76578e-07, No Iterations 264
time step continuity errors : sum local = 1.82817e-09, global = -2.25317e-20, cumulative = -2.34616e-20
ExecutionTime = 3.44 s  ClockTime = 4 s

Time = 0.008

Courant Number mean: 0.113794 max: 0.88248
nonePBiCGStab:  Solving for Ux, Initial residual = 0.0289577, Final residual = 0.00344484, No Iterations 5
nonePBiCGStab:  Solving for Uy, Initial residual = 0.0844242, Final residual = 0.0109194, No Iterations 5
nonePBiCGStab:  Solving for Uz, Initial residual = 0.229157, Final residual = 0.0297621, No Iterations 5
[OGL LOG] init_preconditioner : 0 ms
[OGL LOG] solve : 104 ms
BJcudaGKOBiCGStab:  Solving for p, Initial residual = 0.41143, Final residual = 9.50306e-07, No Iterations 281
time step continuity errors : sum local = 1.47829e-09, global = 5.49205e-21, cumulative = -1.79695e-20
[OGL LOG] init_preconditioner : 0 ms
[OGL LOG] solve : 96 ms
BJcudaGKOBiCGStab:  Solving for p, Initial residual = 0.342687, Final residual = 7.5635e-07, No Iterations 253
time step continuity errors : sum local = 1.3877e-09, global = -1.29738e-20, cumulative = -3.09434e-20
ExecutionTime = 3.78 s  ClockTime = 4 s

Time = 0.01

Courant Number mean: 0.127339 max: 0.898877
nonePBiCGStab:  Solving for Ux, Initial residual = 0.0202775, Final residual = 0.00208487, No Iterations 5
nonePBiCGStab:  Solving for Uy, Initial residual = 0.0505571, Final residual = 0.00623588, No Iterations 5
nonePBiCGStab:  Solving for Uz, Initial residual = 0.1129, Final residual = 0.0180687, No Iterations 5
[OGL LOG] init_preconditioner : 0 ms
[OGL LOG] solve : 92 ms
BJcudaGKOBiCGStab:  Solving for p, Initial residual = 0.354044, Final residual = 5.88484e-07, No Iterations 251
time step continuity errors : sum local = 8.52551e-10, global = 2.26328e-20, cumulative = -8.31054e-21
[OGL LOG] init_preconditioner : 0 ms
[OGL LOG] solve : 94 ms
BJcudaGKOBiCGStab:  Solving for p, Initial residual = 0.302213, Final residual = 8.89403e-08, No Iterations 255
time step continuity errors : sum local = 1.92576e-10, global = -4.73751e-20, cumulative = -5.56856e-20
ExecutionTime = 4.11 s  ClockTime = 4 s

End

