/*---------------------------------------------------------------------------*\
  =========                 |
  \\      /  F ield         | OpenFOAM: The Open Source CFD Toolbox
   \\    /   O peration     | Website:  https://openfoam.org
    \\  /    A nd           | Version:  8
     \\/     M anipulation  |
\*---------------------------------------------------------------------------*/
Build  : 8-13d66902f78c
Exec   : icoFoam
Date   : Jul 12 2021
Time   : 18:15:20
Host   : "uc2n489.localdomain"
PID    : 4166228
I/O    : uncollated
Case   : /pfs/data5/home/kit/scc/nq7776/code/OGL_DATA/lidDrivenCavity3D/v0.1-136-g40fef35/f584ccac99/TeslaV100-SXM2-32GB/Test_2021-07-12-18:12:29/75/p-U-BiCGStab-GKO-none-cuda/lidDrivenCavity3D
nProcs : 1
sigFpe : Enabling floating point exception trapping (FOAM_SIGFPE).
fileModificationChecking : Monitoring run-time modified files using timeStampMaster (fileModificationSkew 10)
allowSystemOperations : Allowing user-supplied system call operations

// * * * * * * * * * * * * * * * * * * * * * * * * * * * * * * * * * * * * * //
Create time

Create mesh for time = 0

Reading transportProperties

Reading field p

Reading field U

Reading/calculating face flux field phi


Starting time loop

Time = 0.00133333

Courant Number mean: 0 max: 0
[OGL LOG] init_host_sparsity_pattern : 134 ms
[OGL LOG] matrix not stored update host matrix
[OGL LOG] update_host_mtx : 69 ms
[OGL LOG] matrix is not yet sorted, compute sorting idxs
[OGL LOG] compute_sort : 4185 ms
[OGL LOG] matrix is not yet sorted, sorting host matrix
[OGL LOG] sort_host_mtx_sparsity_pattern : 92 ms
[OGL LOG] sort_host_mtx : 58 ms
[OGL LOG] init_preconditioner : 0 ms
[OGL LOG] solve : 77 ms
nonecudaGKOBiCGStab:  Solving for Ux, Initial residual = 1, Final residual = 6.29276e-07, No Iterations 51
[OGL LOG] init_host_sparsity_pattern : 129 ms
[OGL LOG] matrix not stored update host matrix
[OGL LOG] update_host_mtx : 59 ms
[OGL LOG] matrix is not yet sorted, sorting host matrix
[OGL LOG] sort_host_mtx_sparsity_pattern : 94 ms
[OGL LOG] sort_host_mtx : 52 ms
[OGL LOG] init_preconditioner : 0 ms
[OGL LOG] solve : 6 ms
nonecudaGKOBiCGStab:  Solving for Uy, Initial residual = 0, Final residual = 0, No Iterations 0
[OGL LOG] init_host_sparsity_pattern : 134 ms
[OGL LOG] matrix not stored update host matrix
[OGL LOG] update_host_mtx : 65 ms
[OGL LOG] matrix is not yet sorted, sorting host matrix
[OGL LOG] sort_host_mtx_sparsity_pattern : 89 ms
[OGL LOG] sort_host_mtx : 52 ms
[OGL LOG] init_preconditioner : 0 ms
[OGL LOG] solve : 6 ms
nonecudaGKOBiCGStab:  Solving for Uz, Initial residual = 0, Final residual = 0, No Iterations 0
[OGL LOG] init_host_sparsity_pattern : 134 ms
[OGL LOG] matrix not stored update host matrix
[OGL LOG] update_host_mtx : 62 ms
[OGL LOG] matrix is not yet sorted, sorting host matrix
[OGL LOG] sort_host_mtx_sparsity_pattern : 92 ms
[OGL LOG] sort_host_mtx : 51 ms
[OGL LOG] init_preconditioner : 0 ms
[OGL LOG] solve : 771 ms
nonecudaGKOBiCGStab:  Solving for p, Initial residual = 1, Final residual = 9.50375e-07, No Iterations 536
time step continuity errors : sum local = 1.62736e-06, global = -4.95293e-21, cumulative = -4.95293e-21
[OGL LOG] init_preconditioner : 0 ms
[OGL LOG] solve : 737 ms
nonecudaGKOBiCGStab:  Solving for p, Initial residual = 0.759669, Final residual = 9.38926e-07, No Iterations 523
time step continuity errors : sum local = 1.56741e-06, global = 7.6633e-21, cumulative = 2.71037e-21
ExecutionTime = 10.18 s  ClockTime = 11 s

Time = 0.00266667

Courant Number mean: 0.0631771 max: 0.775367
[OGL LOG] init_host_sparsity_pattern : 129 ms
[OGL LOG] matrix not stored update host matrix
[OGL LOG] update_host_mtx : 57 ms
[OGL LOG] matrix is not yet sorted, sorting host matrix
[OGL LOG] sort_host_mtx_sparsity_pattern : 84 ms
[OGL LOG] sort_host_mtx : 49 ms
[OGL LOG] init_preconditioner : 0 ms
[OGL LOG] solve : 76 ms
nonecudaGKOBiCGStab:  Solving for Ux, Initial residual = 0.183038, Final residual = 2.90647e-07, No Iterations 50
[OGL LOG] init_host_sparsity_pattern : 128 ms
[OGL LOG] matrix not stored update host matrix
[OGL LOG] update_host_mtx : 59 ms
[OGL LOG] matrix is not yet sorted, sorting host matrix
[OGL LOG] sort_host_mtx_sparsity_pattern : 81 ms
[OGL LOG] sort_host_mtx : 49 ms
[OGL LOG] init_preconditioner : 0 ms
[OGL LOG] solve : 77 ms
nonecudaGKOBiCGStab:  Solving for Uy, Initial residual = 0.619624, Final residual = 8.31883e-07, No Iterations 48
[OGL LOG] init_host_sparsity_pattern : 127 ms
[OGL LOG] matrix not stored update host matrix
[OGL LOG] update_host_mtx : 61 ms
[OGL LOG] matrix is not yet sorted, sorting host matrix
[OGL LOG] sort_host_mtx_sparsity_pattern : 80 ms
[OGL LOG] sort_host_mtx : 50 ms
[OGL LOG] init_preconditioner : 0 ms
[OGL LOG] solve : 74 ms
nonecudaGKOBiCGStab:  Solving for Uz, Initial residual = 0.608932, Final residual = 7.98787e-07, No Iterations 50
[OGL LOG] init_preconditioner : 0 ms
[OGL LOG] solve : 763 ms
nonecudaGKOBiCGStab:  Solving for p, Initial residual = 0.750572, Final residual = 1.10725e-07, No Iterations 499
time step continuity errors : sum local = 0.000162106, global = 1.0838e-19, cumulative = 1.11091e-19
[OGL LOG] init_preconditioner : 0 ms
[OGL LOG] solve : 797 ms
nonecudaGKOBiCGStab:  Solving for p, Initial residual = 0.715246, Final residual = 9.18548e-07, No Iterations 583
time step continuity errors : sum local = 0.000240926, global = 7.66058e-20, cumulative = 1.87696e-19
ExecutionTime = 13.33 s  ClockTime = 14 s

Time = 0.004

Courant Number mean: 0.0952635 max: 0.921221
[OGL LOG] init_host_sparsity_pattern : 131 ms
[OGL LOG] matrix not stored update host matrix
[OGL LOG] update_host_mtx : 66 ms
[OGL LOG] matrix is not yet sorted, sorting host matrix
[OGL LOG] sort_host_mtx_sparsity_pattern : 91 ms
[OGL LOG] sort_host_mtx : 50 ms
[OGL LOG] init_preconditioner : 0 ms
[OGL LOG] solve : 67 ms
nonecudaGKOBiCGStab:  Solving for Ux, Initial residual = 0.101968, Final residual = 9.10127e-07, No Iterations 45
[OGL LOG] init_host_sparsity_pattern : 136 ms
[OGL LOG] matrix not stored update host matrix
[OGL LOG] update_host_mtx : 61 ms
[OGL LOG] matrix is not yet sorted, sorting host matrix
[OGL LOG] sort_host_mtx_sparsity_pattern : 82 ms
[OGL LOG] sort_host_mtx : 50 ms
[OGL LOG] init_preconditioner : 0 ms
[OGL LOG] solve : 71 ms
nonecudaGKOBiCGStab:  Solving for Uy, Initial residual = 0.336029, Final residual = 6.0123e-07, No Iterations 48
[OGL LOG] init_host_sparsity_pattern : 130 ms
[OGL LOG] matrix not stored update host matrix
[OGL LOG] update_host_mtx : 58 ms
[OGL LOG] matrix is not yet sorted, sorting host matrix
[OGL LOG] sort_host_mtx_sparsity_pattern : 80 ms
[OGL LOG] sort_host_mtx : 48 ms
[OGL LOG] init_preconditioner : 0 ms
[OGL LOG] solve : 66 ms
nonecudaGKOBiCGStab:  Solving for Uz, Initial residual = 0.854976, Final residual = 7.85157e-07, No Iterations 46
[OGL LOG] init_preconditioner : 0 ms
[OGL LOG] solve : 700 ms
nonecudaGKOBiCGStab:  Solving for p, Initial residual = 0.919668, Final residual = 5.46825e-07, No Iterations 528
time step continuity errors : sum local = 6.75311e-05, global = 1.2997e-19, cumulative = 3.17667e-19
[OGL LOG] init_preconditioner : 0 ms
[OGL LOG] solve : 659 ms
nonecudaGKOBiCGStab:  Solving for p, Initial residual = 0.841093, Final residual = 9.26897e-07, No Iterations 496
time step continuity errors : sum local = 0.000285113, global = -7.29732e-20, cumulative = 2.44694e-19
ExecutionTime = 16.41 s  ClockTime = 17 s

Time = 0.00533333

Courant Number mean: 0.110506 max: 0.941513
[OGL LOG] init_host_sparsity_pattern : 126 ms
[OGL LOG] matrix not stored update host matrix
[OGL LOG] update_host_mtx : 65 ms
[OGL LOG] matrix is not yet sorted, sorting host matrix
[OGL LOG] sort_host_mtx_sparsity_pattern : 89 ms
[OGL LOG] sort_host_mtx : 47 ms
[OGL LOG] init_preconditioner : 0 ms
[OGL LOG] solve : 64 ms
nonecudaGKOBiCGStab:  Solving for Ux, Initial residual = 0.0449032, Final residual = 9.71861e-07, No Iterations 41
[OGL LOG] init_host_sparsity_pattern : 129 ms
[OGL LOG] matrix not stored update host matrix
[OGL LOG] update_host_mtx : 63 ms
[OGL LOG] matrix is not yet sorted, sorting host matrix
[OGL LOG] sort_host_mtx_sparsity_pattern : 86 ms
[OGL LOG] sort_host_mtx : 47 ms
[OGL LOG] init_preconditioner : 0 ms
[OGL LOG] solve : 62 ms
nonecudaGKOBiCGStab:  Solving for Uy, Initial residual = 0.201034, Final residual = 9.91575e-07, No Iterations 42
[OGL LOG] init_host_sparsity_pattern : 125 ms
[OGL LOG] matrix not stored update host matrix
[OGL LOG] update_host_mtx : 59 ms
[OGL LOG] matrix is not yet sorted, sorting host matrix
[OGL LOG] sort_host_mtx_sparsity_pattern : 78 ms
[OGL LOG] sort_host_mtx : 46 ms
[OGL LOG] init_preconditioner : 0 ms
[OGL LOG] solve : 74 ms
nonecudaGKOBiCGStab:  Solving for Uz, Initial residual = 1.07201, Final residual = 7.47738e-07, No Iterations 51
[OGL LOG] init_preconditioner : 0 ms
[OGL LOG] solve : 651 ms
nonecudaGKOBiCGStab:  Solving for p, Initial residual = 0.890282, Final residual = 4.95481e-07, No Iterations 481
time step continuity errors : sum local = 0.000178047, global = 1.17799e-19, cumulative = 3.62493e-19
[OGL LOG] init_preconditioner : 0 ms
[OGL LOG] solve : 725 ms
nonecudaGKOBiCGStab:  Solving for p, Initial residual = 0.731647, Final residual = 8.19248e-07, No Iterations 535
time step continuity errors : sum local = 4.97269e-05, global = 1.24611e-19, cumulative = 4.87104e-19
ExecutionTime = 19.48 s  ClockTime = 20 s

Time = 0.00666667

Courant Number mean: 0.122808 max: 0.95491
[OGL LOG] init_host_sparsity_pattern : 125 ms
[OGL LOG] matrix not stored update host matrix
[OGL LOG] update_host_mtx : 61 ms
[OGL LOG] matrix is not yet sorted, sorting host matrix
[OGL LOG] sort_host_mtx_sparsity_pattern : 85 ms
[OGL LOG] sort_host_mtx : 47 ms
[OGL LOG] init_preconditioner : 0 ms
[OGL LOG] solve : 58 ms
nonecudaGKOBiCGStab:  Solving for Ux, Initial residual = 0.0335235, Final residual = 9.65473e-07, No Iterations 39
[OGL LOG] init_host_sparsity_pattern : 120 ms
[OGL LOG] matrix not stored update host matrix
[OGL LOG] update_host_mtx : 57 ms
[OGL LOG] matrix is not yet sorted, sorting host matrix
[OGL LOG] sort_host_mtx_sparsity_pattern : 80 ms
[OGL LOG] sort_host_mtx : 47 ms
[OGL LOG] init_preconditioner : 0 ms
[OGL LOG] solve : 64 ms
nonecudaGKOBiCGStab:  Solving for Uy, Initial residual = 0.094579, Final residual = 8.59387e-07, No Iterations 43
[OGL LOG] init_host_sparsity_pattern : 121 ms
[OGL LOG] matrix not stored update host matrix
[OGL LOG] update_host_mtx : 56 ms
[OGL LOG] matrix is not yet sorted, sorting host matrix
[OGL LOG] sort_host_mtx_sparsity_pattern : 78 ms
[OGL LOG] sort_host_mtx : 46 ms
[OGL LOG] init_preconditioner : 0 ms
[OGL LOG] solve : 75 ms
nonecudaGKOBiCGStab:  Solving for Uz, Initial residual = 1.32191, Final residual = 8.80702e-07, No Iterations 51
[OGL LOG] init_preconditioner : 0 ms
[OGL LOG] solve : 663 ms
nonecudaGKOBiCGStab:  Solving for p, Initial residual = 0.898547, Final residual = 3.40014e-07, No Iterations 490
time step continuity errors : sum local = 4.92829e-08, global = -6.90587e-21, cumulative = 4.80199e-19
[OGL LOG] init_preconditioner : 0 ms
[OGL LOG] solve : 655 ms
nonecudaGKOBiCGStab:  Solving for p, Initial residual = 0.794721, Final residual = 6.40556e-07, No Iterations 479
time step continuity errors : sum local = 4.057e-05, global = -1.26384e-20, cumulative = 4.6756e-19
ExecutionTime = 22.32 s  ClockTime = 23 s

End

