/*---------------------------------------------------------------------------*\
  =========                 |
  \\      /  F ield         | OpenFOAM: The Open Source CFD Toolbox
   \\    /   O peration     | Website:  https://openfoam.org
    \\  /    A nd           | Version:  8
     \\/     M anipulation  |
\*---------------------------------------------------------------------------*/
Build  : 8-13d66902f78c
Exec   : icoFoam
Date   : Jul 05 2021
Time   : 20:05:28
Host   : "uc2n513.localdomain"
PID    : 511200
I/O    : uncollated
Case   : /pfs/data5/home/kit/scc/nq7776/code/OGL_DATA/lidDrivenCavity3D/v0.1-136-g40fef35/f584ccac99/TeslaV100-SXM2-32GB/Test_2021-07-05-20:02:52/75/p-U-CG-GKO-BJ-cuda/lidDrivenCavity3D
nProcs : 1
sigFpe : Enabling floating point exception trapping (FOAM_SIGFPE).
fileModificationChecking : Monitoring run-time modified files using timeStampMaster (fileModificationSkew 10)
allowSystemOperations : Allowing user-supplied system call operations

// * * * * * * * * * * * * * * * * * * * * * * * * * * * * * * * * * * * * * //
Create time

Create mesh for time = 0

Reading transportProperties

Reading field p

Reading field U

Reading/calculating face flux field phi


Starting time loop

Time = 0.00133333

Courant Number mean: 0 max: 0
[OGL LOG] init_host_sparsity_pattern : 125 ms
[OGL LOG] matrix not stored update host matrix
[OGL LOG] update_host_mtx : 65 ms
[OGL LOG] matrix is not yet sorted, compute sorting idxs
[OGL LOG] compute_sort : 3911 ms
[OGL LOG] matrix is not yet sorted, sorting host matrix
[OGL LOG] sort_host_mtx_sparsity_pattern : 86 ms
[OGL LOG] sort_host_mtx : 65 ms
[OGL LOG] init_preconditioner : 54 ms
[OGL LOG] solve : 75 ms
BJcudaGKOBiCGStab:  Solving for Ux, Initial residual = 1, Final residual = 8.57452e-07, No Iterations 40
[OGL LOG] init_host_sparsity_pattern : 117 ms
[OGL LOG] matrix not stored update host matrix
[OGL LOG] update_host_mtx : 56 ms
[OGL LOG] matrix is not yet sorted, sorting host matrix
[OGL LOG] sort_host_mtx_sparsity_pattern : 82 ms
[OGL LOG] sort_host_mtx : 46 ms
[OGL LOG] init_preconditioner : 51 ms
[OGL LOG] solve : 13 ms
BJcudaGKOBiCGStab:  Solving for Uy, Initial residual = 0, Final residual = 0, No Iterations 0
[OGL LOG] init_host_sparsity_pattern : 118 ms
[OGL LOG] matrix not stored update host matrix
[OGL LOG] update_host_mtx : 56 ms
[OGL LOG] matrix is not yet sorted, sorting host matrix
[OGL LOG] sort_host_mtx_sparsity_pattern : 78 ms
[OGL LOG] sort_host_mtx : 47 ms
[OGL LOG] init_preconditioner : 46 ms
[OGL LOG] solve : 13 ms
BJcudaGKOBiCGStab:  Solving for Uz, Initial residual = 0, Final residual = 0, No Iterations 0
[OGL LOG] init_host_sparsity_pattern : 118 ms
[OGL LOG] matrix not stored update host matrix
[OGL LOG] update_host_mtx : 57 ms
[OGL LOG] matrix is not yet sorted, sorting host matrix
[OGL LOG] sort_host_mtx_sparsity_pattern : 81 ms
[OGL LOG] sort_host_mtx : 50 ms
[OGL LOG] init_preconditioner : 46 ms
 CG create  precond 
[OGL LOG] solve : 448 ms
BJcudaGKOCG:  Solving for p, Initial residual = 1, Final residual = 9.42282e-07, No Iterations 578
time step continuity errors : sum local = 8.60697e-10, global = 6.02062e-22, cumulative = 6.02062e-22
[OGL LOG] init_preconditioner : 0 ms
 CG create  precond 
[OGL LOG] solve : 432 ms
BJcudaGKOCG:  Solving for p, Initial residual = 0.759328, Final residual = 9.81624e-07, No Iterations 571
time step continuity errors : sum local = 1.1478e-09, global = 7.94474e-21, cumulative = 8.5468e-21
ExecutionTime = 9.38 s  ClockTime = 10 s

Time = 0.00266667

Courant Number mean: 0.0631768 max: 0.775367
[OGL LOG] init_host_sparsity_pattern : 118 ms
[OGL LOG] matrix not stored update host matrix
[OGL LOG] update_host_mtx : 56 ms
[OGL LOG] matrix is not yet sorted, sorting host matrix
[OGL LOG] sort_host_mtx_sparsity_pattern : 77 ms
[OGL LOG] sort_host_mtx : 47 ms
[OGL LOG] init_preconditioner : 0 ms
[OGL LOG] solve : 52 ms
BJcudaGKOBiCGStab:  Solving for Ux, Initial residual = 0.183034, Final residual = 7.83797e-07, No Iterations 28
[OGL LOG] init_host_sparsity_pattern : 119 ms
[OGL LOG] matrix not stored update host matrix
[OGL LOG] update_host_mtx : 57 ms
[OGL LOG] matrix is not yet sorted, sorting host matrix
[OGL LOG] sort_host_mtx_sparsity_pattern : 79 ms
[OGL LOG] sort_host_mtx : 46 ms
[OGL LOG] init_preconditioner : 0 ms
[OGL LOG] solve : 63 ms
BJcudaGKOBiCGStab:  Solving for Uy, Initial residual = 0.619629, Final residual = 9.41851e-07, No Iterations 39
[OGL LOG] init_host_sparsity_pattern : 118 ms
[OGL LOG] matrix not stored update host matrix
[OGL LOG] update_host_mtx : 56 ms
[OGL LOG] matrix is not yet sorted, sorting host matrix
[OGL LOG] sort_host_mtx_sparsity_pattern : 77 ms
[OGL LOG] sort_host_mtx : 50 ms
[OGL LOG] init_preconditioner : 0 ms
[OGL LOG] solve : 68 ms
BJcudaGKOBiCGStab:  Solving for Uz, Initial residual = 0.604718, Final residual = 5.97939e-07, No Iterations 42
[OGL LOG] init_preconditioner : 0 ms
 CG create  precond 
[OGL LOG] solve : 445 ms
BJcudaGKOCG:  Solving for p, Initial residual = 0.74913, Final residual = 9.60228e-07, No Iterations 573
time step continuity errors : sum local = 1.36719e-09, global = 9.73396e-21, cumulative = 1.82808e-20
[OGL LOG] init_preconditioner : 0 ms
 CG create  precond 
[OGL LOG] solve : 439 ms
BJcudaGKOCG:  Solving for p, Initial residual = 0.683908, Final residual = 9.3856e-07, No Iterations 572
time step continuity errors : sum local = 1.36579e-09, global = -9.19196e-21, cumulative = 9.0888e-21
ExecutionTime = 11.73 s  ClockTime = 12 s

Time = 0.004

Courant Number mean: 0.095146 max: 0.917097
[OGL LOG] init_host_sparsity_pattern : 120 ms
[OGL LOG] matrix not stored update host matrix
[OGL LOG] update_host_mtx : 61 ms
[OGL LOG] matrix is not yet sorted, sorting host matrix
[OGL LOG] sort_host_mtx_sparsity_pattern : 87 ms
[OGL LOG] sort_host_mtx : 47 ms
[OGL LOG] init_preconditioner : 0 ms
[OGL LOG] solve : 43 ms
BJcudaGKOBiCGStab:  Solving for Ux, Initial residual = 0.101944, Final residual = 8.44084e-07, No Iterations 25
[OGL LOG] init_host_sparsity_pattern : 118 ms
[OGL LOG] matrix not stored update host matrix
[OGL LOG] update_host_mtx : 56 ms
[OGL LOG] matrix is not yet sorted, sorting host matrix
[OGL LOG] sort_host_mtx_sparsity_pattern : 77 ms
[OGL LOG] sort_host_mtx : 47 ms
[OGL LOG] init_preconditioner : 0 ms
[OGL LOG] solve : 69 ms
BJcudaGKOBiCGStab:  Solving for Uy, Initial residual = 0.335433, Final residual = 9.29499e-07, No Iterations 39
[OGL LOG] init_host_sparsity_pattern : 120 ms
[OGL LOG] matrix not stored update host matrix
[OGL LOG] update_host_mtx : 57 ms
[OGL LOG] matrix is not yet sorted, sorting host matrix
[OGL LOG] sort_host_mtx_sparsity_pattern : 77 ms
[OGL LOG] sort_host_mtx : 46 ms
[OGL LOG] init_preconditioner : 0 ms
[OGL LOG] solve : 68 ms
BJcudaGKOBiCGStab:  Solving for Uz, Initial residual = 0.920729, Final residual = 7.59314e-07, No Iterations 42
[OGL LOG] init_preconditioner : 0 ms
 CG create  precond 
[OGL LOG] solve : 475 ms
BJcudaGKOCG:  Solving for p, Initial residual = 0.754752, Final residual = 9.84817e-07, No Iterations 617
time step continuity errors : sum local = 1.15769e-09, global = -6.72102e-21, cumulative = 2.36778e-21
[OGL LOG] init_preconditioner : 0 ms
 CG create  precond 
[OGL LOG] solve : 467 ms
BJcudaGKOCG:  Solving for p, Initial residual = 0.717018, Final residual = 9.73771e-07, No Iterations 617
time step continuity errors : sum local = 1.11079e-09, global = 1.32464e-20, cumulative = 1.56141e-20
ExecutionTime = 14.16 s  ClockTime = 15 s

Time = 0.00533333

Courant Number mean: 0.109256 max: 0.913435
[OGL LOG] init_host_sparsity_pattern : 121 ms
[OGL LOG] matrix not stored update host matrix
[OGL LOG] update_host_mtx : 57 ms
[OGL LOG] matrix is not yet sorted, sorting host matrix
[OGL LOG] sort_host_mtx_sparsity_pattern : 77 ms
[OGL LOG] sort_host_mtx : 46 ms
[OGL LOG] init_preconditioner : 0 ms
[OGL LOG] solve : 45 ms
BJcudaGKOBiCGStab:  Solving for Ux, Initial residual = 0.0446965, Final residual = 6.56009e-07, No Iterations 27
[OGL LOG] init_host_sparsity_pattern : 119 ms
[OGL LOG] matrix not stored update host matrix
[OGL LOG] update_host_mtx : 57 ms
[OGL LOG] matrix is not yet sorted, sorting host matrix
[OGL LOG] sort_host_mtx_sparsity_pattern : 76 ms
[OGL LOG] sort_host_mtx : 46 ms
[OGL LOG] init_preconditioner : 0 ms
[OGL LOG] solve : 62 ms
BJcudaGKOBiCGStab:  Solving for Uy, Initial residual = 0.197564, Final residual = 8.54127e-07, No Iterations 38
[OGL LOG] init_host_sparsity_pattern : 119 ms
[OGL LOG] matrix not stored update host matrix
[OGL LOG] update_host_mtx : 56 ms
[OGL LOG] matrix is not yet sorted, sorting host matrix
[OGL LOG] sort_host_mtx_sparsity_pattern : 77 ms
[OGL LOG] sort_host_mtx : 46 ms
[OGL LOG] init_preconditioner : 0 ms
[OGL LOG] solve : 55 ms
BJcudaGKOBiCGStab:  Solving for Uz, Initial residual = 0.732488, Final residual = 8.2851e-07, No Iterations 34
[OGL LOG] init_preconditioner : 0 ms
 CG create  precond 
[OGL LOG] solve : 470 ms
BJcudaGKOCG:  Solving for p, Initial residual = 0.617354, Final residual = 9.60683e-07, No Iterations 622
time step continuity errors : sum local = 1.00089e-09, global = -3.13768e-20, cumulative = -1.57627e-20
[OGL LOG] init_preconditioner : 0 ms
 CG create  precond 
[OGL LOG] solve : 470 ms
BJcudaGKOCG:  Solving for p, Initial residual = 0.554749, Final residual = 9.75424e-07, No Iterations 618
time step continuity errors : sum local = 1.03079e-09, global = 1.21452e-20, cumulative = -3.61754e-21
ExecutionTime = 16.53 s  ClockTime = 17 s

Time = 0.00666667

Courant Number mean: 0.122084 max: 0.929082
[OGL LOG] init_host_sparsity_pattern : 121 ms
[OGL LOG] matrix not stored update host matrix
[OGL LOG] update_host_mtx : 56 ms
[OGL LOG] matrix is not yet sorted, sorting host matrix
[OGL LOG] sort_host_mtx_sparsity_pattern : 76 ms
[OGL LOG] sort_host_mtx : 46 ms
[OGL LOG] init_preconditioner : 0 ms
[OGL LOG] solve : 43 ms
BJcudaGKOBiCGStab:  Solving for Ux, Initial residual = 0.0319073, Final residual = 7.8486e-07, No Iterations 26
[OGL LOG] init_host_sparsity_pattern : 119 ms
[OGL LOG] matrix not stored update host matrix
[OGL LOG] update_host_mtx : 56 ms
[OGL LOG] matrix is not yet sorted, sorting host matrix
[OGL LOG] sort_host_mtx_sparsity_pattern : 76 ms
[OGL LOG] sort_host_mtx : 46 ms
[OGL LOG] init_preconditioner : 0 ms
[OGL LOG] solve : 58 ms
BJcudaGKOBiCGStab:  Solving for Uy, Initial residual = 0.0804623, Final residual = 8.77187e-07, No Iterations 35
[OGL LOG] init_host_sparsity_pattern : 119 ms
[OGL LOG] matrix not stored update host matrix
[OGL LOG] update_host_mtx : 58 ms
[OGL LOG] matrix is not yet sorted, sorting host matrix
[OGL LOG] sort_host_mtx_sparsity_pattern : 78 ms
[OGL LOG] sort_host_mtx : 47 ms
[OGL LOG] init_preconditioner : 0 ms
[OGL LOG] solve : 62 ms
BJcudaGKOBiCGStab:  Solving for Uz, Initial residual = 0.513468, Final residual = 9.13598e-07, No Iterations 38
[OGL LOG] init_preconditioner : 0 ms
 CG create  precond 
[OGL LOG] solve : 460 ms
BJcudaGKOCG:  Solving for p, Initial residual = 0.591991, Final residual = 9.72023e-07, No Iterations 601
time step continuity errors : sum local = 8.13532e-10, global = 7.33368e-21, cumulative = 3.71614e-21
[OGL LOG] init_preconditioner : 0 ms
 CG create  precond 
[OGL LOG] solve : 454 ms
BJcudaGKOCG:  Solving for p, Initial residual = 0.543118, Final residual = 9.51574e-07, No Iterations 600
time step continuity errors : sum local = 7.8655e-10, global = -1.76698e-20, cumulative = -1.39536e-20
ExecutionTime = 18.88 s  ClockTime = 19 s

End

