/*---------------------------------------------------------------------------*\
  =========                 |
  \\      /  F ield         | OpenFOAM: The Open Source CFD Toolbox
   \\    /   O peration     | Website:  https://openfoam.org
    \\  /    A nd           | Version:  8
     \\/     M anipulation  |
\*---------------------------------------------------------------------------*/
Build  : 8-13d66902f78c
Exec   : icoFoam
Date   : Jul 05 2021
Time   : 01:43:01
Host   : "uc2n489.localdomain"
PID    : 955805
I/O    : uncollated
Case   : /pfs/data5/home/kit/scc/nq7776/code/OGL_DATA/lidDrivenCavity3D/v0.1-136-g40fef35/f584ccac99/TeslaV100-SXM2-32GB/Test_2021-07-05-01:40:25/75/p-U-BiCGStab-GKO-BJ-cuda/lidDrivenCavity3D
nProcs : 1
sigFpe : Enabling floating point exception trapping (FOAM_SIGFPE).
fileModificationChecking : Monitoring run-time modified files using timeStampMaster (fileModificationSkew 10)
allowSystemOperations : Allowing user-supplied system call operations

// * * * * * * * * * * * * * * * * * * * * * * * * * * * * * * * * * * * * * //
Create time

Create mesh for time = 0

Reading transportProperties

Reading field p

Reading field U

Reading/calculating face flux field phi


Starting time loop

Time = 0.00133333

Courant Number mean: 0 max: 0
[OGL LOG] init_host_sparsity_pattern : 115 ms
[OGL LOG] matrix not stored update host matrix
[OGL LOG] update_host_mtx : 61 ms
[OGL LOG] matrix is not yet sorted, compute sorting idxs
[OGL LOG] compute_sort : 3660 ms
[OGL LOG] matrix is not yet sorted, sorting host matrix
[OGL LOG] sort_host_mtx_sparsity_pattern : 78 ms
[OGL LOG] sort_host_mtx : 49 ms
[OGL LOG] init_preconditioner : 53 ms
[OGL LOG] solve : 72 ms
BJcudaGKOBiCGStab:  Solving for Ux, Initial residual = 1, Final residual = 8.57452e-07, No Iterations 40
[OGL LOG] init_host_sparsity_pattern : 112 ms
[OGL LOG] matrix not stored update host matrix
[OGL LOG] update_host_mtx : 53 ms
[OGL LOG] matrix is not yet sorted, sorting host matrix
[OGL LOG] sort_host_mtx_sparsity_pattern : 78 ms
[OGL LOG] sort_host_mtx : 43 ms
[OGL LOG] init_preconditioner : 48 ms
[OGL LOG] solve : 13 ms
BJcudaGKOBiCGStab:  Solving for Uy, Initial residual = 0, Final residual = 0, No Iterations 0
[OGL LOG] init_host_sparsity_pattern : 111 ms
[OGL LOG] matrix not stored update host matrix
[OGL LOG] update_host_mtx : 53 ms
[OGL LOG] matrix is not yet sorted, sorting host matrix
[OGL LOG] sort_host_mtx_sparsity_pattern : 72 ms
[OGL LOG] sort_host_mtx : 43 ms
[OGL LOG] init_preconditioner : 48 ms
[OGL LOG] solve : 13 ms
BJcudaGKOBiCGStab:  Solving for Uz, Initial residual = 0, Final residual = 0, No Iterations 0
[OGL LOG] init_host_sparsity_pattern : 112 ms
[OGL LOG] matrix not stored update host matrix
[OGL LOG] update_host_mtx : 54 ms
[OGL LOG] matrix is not yet sorted, sorting host matrix
[OGL LOG] sort_host_mtx_sparsity_pattern : 81 ms
[OGL LOG] sort_host_mtx : 48 ms
[OGL LOG] init_preconditioner : 48 ms
[OGL LOG] solve : 638 ms
BJcudaGKOBiCGStab:  Solving for p, Initial residual = 1, Final residual = 9.95356e-07, No Iterations 430
time step continuity errors : sum local = 7.91341e-07, global = -1.34453e-21, cumulative = -1.34453e-21
[OGL LOG] init_preconditioner : 0 ms
[OGL LOG] solve : 608 ms
BJcudaGKOBiCGStab:  Solving for p, Initial residual = 0.759478, Final residual = 9.69562e-07, No Iterations 412
time step continuity errors : sum local = 1.05951e-06, global = -8.74035e-21, cumulative = -1.00849e-20
ExecutionTime = 9.16 s  ClockTime = 9 s

Time = 0.00266667

Courant Number mean: 0.063177 max: 0.775367
[OGL LOG] init_host_sparsity_pattern : 112 ms
[OGL LOG] matrix not stored update host matrix
[OGL LOG] update_host_mtx : 53 ms
[OGL LOG] matrix is not yet sorted, sorting host matrix
[OGL LOG] sort_host_mtx_sparsity_pattern : 73 ms
[OGL LOG] sort_host_mtx : 44 ms
[OGL LOG] init_preconditioner : 0 ms
[OGL LOG] solve : 47 ms
BJcudaGKOBiCGStab:  Solving for Ux, Initial residual = 0.183038, Final residual = 7.84585e-07, No Iterations 28
[OGL LOG] init_host_sparsity_pattern : 112 ms
[OGL LOG] matrix not stored update host matrix
[OGL LOG] update_host_mtx : 53 ms
[OGL LOG] matrix is not yet sorted, sorting host matrix
[OGL LOG] sort_host_mtx_sparsity_pattern : 73 ms
[OGL LOG] sort_host_mtx : 43 ms
[OGL LOG] init_preconditioner : 0 ms
[OGL LOG] solve : 63 ms
BJcudaGKOBiCGStab:  Solving for Uy, Initial residual = 0.619624, Final residual = 9.41865e-07, No Iterations 39
[OGL LOG] init_host_sparsity_pattern : 112 ms
[OGL LOG] matrix not stored update host matrix
[OGL LOG] update_host_mtx : 53 ms
[OGL LOG] matrix is not yet sorted, sorting host matrix
[OGL LOG] sort_host_mtx_sparsity_pattern : 73 ms
[OGL LOG] sort_host_mtx : 44 ms
[OGL LOG] init_preconditioner : 0 ms
[OGL LOG] solve : 69 ms
BJcudaGKOBiCGStab:  Solving for Uz, Initial residual = 0.606811, Final residual = 8.98777e-07, No Iterations 42
[OGL LOG] init_preconditioner : 0 ms
[OGL LOG] solve : 596 ms
BJcudaGKOBiCGStab:  Solving for p, Initial residual = 0.749773, Final residual = 5.99205e-07, No Iterations 408
time step continuity errors : sum local = 9.4563e-06, global = -5.50038e-21, cumulative = -1.55853e-20
[OGL LOG] init_preconditioner : 0 ms
[OGL LOG] solve : 551 ms
BJcudaGKOBiCGStab:  Solving for p, Initial residual = 0.686557, Final residual = 8.36544e-07, No Iterations 375
time step continuity errors : sum local = 2.42443e-09, global = 1.66395e-20, cumulative = 1.05423e-21
ExecutionTime = 11.7 s  ClockTime = 12 s

Time = 0.004

Courant Number mean: 0.0951474 max: 0.917099
[OGL LOG] init_host_sparsity_pattern : 114 ms
[OGL LOG] matrix not stored update host matrix
[OGL LOG] update_host_mtx : 57 ms
[OGL LOG] matrix is not yet sorted, sorting host matrix
[OGL LOG] sort_host_mtx_sparsity_pattern : 81 ms
[OGL LOG] sort_host_mtx : 44 ms
[OGL LOG] init_preconditioner : 0 ms
[OGL LOG] solve : 43 ms
BJcudaGKOBiCGStab:  Solving for Ux, Initial residual = 0.101947, Final residual = 8.44481e-07, No Iterations 25
[OGL LOG] init_host_sparsity_pattern : 112 ms
[OGL LOG] matrix not stored update host matrix
[OGL LOG] update_host_mtx : 53 ms
[OGL LOG] matrix is not yet sorted, sorting host matrix
[OGL LOG] sort_host_mtx_sparsity_pattern : 73 ms
[OGL LOG] sort_host_mtx : 43 ms
[OGL LOG] init_preconditioner : 0 ms
[OGL LOG] solve : 64 ms
BJcudaGKOBiCGStab:  Solving for Uy, Initial residual = 0.33544, Final residual = 4.15211e-07, No Iterations 40
[OGL LOG] init_host_sparsity_pattern : 112 ms
[OGL LOG] matrix not stored update host matrix
[OGL LOG] update_host_mtx : 53 ms
[OGL LOG] matrix is not yet sorted, sorting host matrix
[OGL LOG] sort_host_mtx_sparsity_pattern : 73 ms
[OGL LOG] sort_host_mtx : 44 ms
[OGL LOG] init_preconditioner : 0 ms
[OGL LOG] solve : 72 ms
BJcudaGKOBiCGStab:  Solving for Uz, Initial residual = 0.898362, Final residual = 4.19833e-07, No Iterations 45
[OGL LOG] init_preconditioner : 0 ms
[OGL LOG] solve : 604 ms
BJcudaGKOBiCGStab:  Solving for p, Initial residual = 0.760019, Final residual = 7.84032e-07, No Iterations 408
time step continuity errors : sum local = 1.18291e-05, global = 3.18983e-20, cumulative = 3.29525e-20
[OGL LOG] init_preconditioner : 0 ms
[OGL LOG] solve : 414 ms
BJcudaGKOBiCGStab:  Solving for p, Initial residual = 0.725352, Final residual = 6.40703e-07, No Iterations 281
time step continuity errors : sum local = 1.5071e-09, global = -4.53693e-21, cumulative = 2.84156e-20
ExecutionTime = 14.14 s  ClockTime = 14 s

Time = 0.00533333

Courant Number mean: 0.109262 max: 0.913647
[OGL LOG] init_host_sparsity_pattern : 112 ms
[OGL LOG] matrix not stored update host matrix
[OGL LOG] update_host_mtx : 53 ms
[OGL LOG] matrix is not yet sorted, sorting host matrix
[OGL LOG] sort_host_mtx_sparsity_pattern : 73 ms
[OGL LOG] sort_host_mtx : 44 ms
[OGL LOG] init_preconditioner : 0 ms
[OGL LOG] solve : 44 ms
BJcudaGKOBiCGStab:  Solving for Ux, Initial residual = 0.0446956, Final residual = 6.55628e-07, No Iterations 27
[OGL LOG] init_host_sparsity_pattern : 112 ms
[OGL LOG] matrix not stored update host matrix
[OGL LOG] update_host_mtx : 53 ms
[OGL LOG] matrix is not yet sorted, sorting host matrix
[OGL LOG] sort_host_mtx_sparsity_pattern : 72 ms
[OGL LOG] sort_host_mtx : 44 ms
[OGL LOG] init_preconditioner : 0 ms
[OGL LOG] solve : 61 ms
BJcudaGKOBiCGStab:  Solving for Uy, Initial residual = 0.197565, Final residual = 8.47205e-07, No Iterations 38
[OGL LOG] init_host_sparsity_pattern : 112 ms
[OGL LOG] matrix not stored update host matrix
[OGL LOG] update_host_mtx : 53 ms
[OGL LOG] matrix is not yet sorted, sorting host matrix
[OGL LOG] sort_host_mtx_sparsity_pattern : 73 ms
[OGL LOG] sort_host_mtx : 45 ms
[OGL LOG] init_preconditioner : 0 ms
[OGL LOG] solve : 55 ms
BJcudaGKOBiCGStab:  Solving for Uz, Initial residual = 0.712742, Final residual = 8.28874e-07, No Iterations 34
[OGL LOG] init_preconditioner : 0 ms
[OGL LOG] solve : 612 ms
BJcudaGKOBiCGStab:  Solving for p, Initial residual = 0.625075, Final residual = 4.46852e-07, No Iterations 417
time step continuity errors : sum local = 1.07735e-06, global = -3.22758e-21, cumulative = 2.5188e-20
[OGL LOG] init_preconditioner : 0 ms
[OGL LOG] solve : 553 ms
BJcudaGKOBiCGStab:  Solving for p, Initial residual = 0.562076, Final residual = 8.90522e-07, No Iterations 377
time step continuity errors : sum local = 4.6787e-05, global = -7.05084e-21, cumulative = 1.81372e-20
ExecutionTime = 16.66 s  ClockTime = 17 s

Time = 0.00666667

Courant Number mean: 0.122109 max: 0.929527
[OGL LOG] init_host_sparsity_pattern : 117 ms
[OGL LOG] matrix not stored update host matrix
[OGL LOG] update_host_mtx : 53 ms
[OGL LOG] matrix is not yet sorted, sorting host matrix
[OGL LOG] sort_host_mtx_sparsity_pattern : 80 ms
[OGL LOG] sort_host_mtx : 43 ms
[OGL LOG] init_preconditioner : 0 ms
[OGL LOG] solve : 46 ms
BJcudaGKOBiCGStab:  Solving for Ux, Initial residual = 0.031911, Final residual = 5.22336e-07, No Iterations 28
[OGL LOG] init_host_sparsity_pattern : 112 ms
[OGL LOG] matrix not stored update host matrix
[OGL LOG] update_host_mtx : 53 ms
[OGL LOG] matrix is not yet sorted, sorting host matrix
[OGL LOG] sort_host_mtx_sparsity_pattern : 72 ms
[OGL LOG] sort_host_mtx : 43 ms
[OGL LOG] init_preconditioner : 0 ms
[OGL LOG] solve : 56 ms
BJcudaGKOBiCGStab:  Solving for Uy, Initial residual = 0.0805533, Final residual = 7.76994e-07, No Iterations 34
[OGL LOG] init_host_sparsity_pattern : 112 ms
[OGL LOG] matrix not stored update host matrix
[OGL LOG] update_host_mtx : 53 ms
[OGL LOG] matrix is not yet sorted, sorting host matrix
[OGL LOG] sort_host_mtx_sparsity_pattern : 72 ms
[OGL LOG] sort_host_mtx : 43 ms
[OGL LOG] init_preconditioner : 0 ms
[OGL LOG] solve : 63 ms
BJcudaGKOBiCGStab:  Solving for Uz, Initial residual = 0.558275, Final residual = 8.83494e-07, No Iterations 39
[OGL LOG] init_preconditioner : 0 ms
[OGL LOG] solve : 600 ms
BJcudaGKOBiCGStab:  Solving for p, Initial residual = 0.685811, Final residual = 7.01471e-07, No Iterations 410
time step continuity errors : sum local = 5.19462e-09, global = -1.53283e-20, cumulative = 2.80886e-21
[OGL LOG] init_preconditioner : 0 ms
[OGL LOG] solve : 613 ms
BJcudaGKOBiCGStab:  Solving for p, Initial residual = 0.61195, Final residual = 9.7582e-07, No Iterations 416
time step continuity errors : sum local = 1.77169e-07, global = -1.57349e-20, cumulative = -1.29261e-20
ExecutionTime = 19.26 s  ClockTime = 19 s

End

