/*---------------------------------------------------------------------------*\
  =========                 |
  \\      /  F ield         | OpenFOAM: The Open Source CFD Toolbox
   \\    /   O peration     | Website:  https://openfoam.org
    \\  /    A nd           | Version:  8
     \\/     M anipulation  |
\*---------------------------------------------------------------------------*/
Build  : 8-13d66902f78c
Exec   : icoFoam
Date   : Jul 04 2021
Time   : 13:43:58
Host   : "uc2n488.localdomain"
PID    : 2090827
I/O    : uncollated
Case   : /pfs/data5/home/kit/scc/nq7776/code/OGL_DATA/lidDrivenCavity3D/v0.1-136-g40fef35/f584ccac99/TeslaV100-SXM2-32GB/Test_2021-07-04-13:41:24/75/p-CG-GKO-BJ-cuda/lidDrivenCavity3D
nProcs : 1
sigFpe : Enabling floating point exception trapping (FOAM_SIGFPE).
fileModificationChecking : Monitoring run-time modified files using timeStampMaster (fileModificationSkew 10)
allowSystemOperations : Allowing user-supplied system call operations

// * * * * * * * * * * * * * * * * * * * * * * * * * * * * * * * * * * * * * //
Create time

Create mesh for time = 0

Reading transportProperties

Reading field p

Reading field U

Reading/calculating face flux field phi


Starting time loop

Time = 0.00133333

Courant Number mean: 0 max: 0
nonePBiCGStab:  Solving for Ux, Initial residual = 1, Final residual = 0.0730231, No Iterations 5
nonePBiCGStab:  Solving for Uy, Initial residual = 0, Final residual = 0, No Iterations 0
nonePBiCGStab:  Solving for Uz, Initial residual = 0, Final residual = 0, No Iterations 0
[OGL LOG] init_host_sparsity_pattern : 123 ms
[OGL LOG] matrix not stored update host matrix
[OGL LOG] update_host_mtx : 66 ms
[OGL LOG] matrix is not yet sorted, compute sorting idxs
[OGL LOG] compute_sort : 3663 ms
[OGL LOG] matrix is not yet sorted, sorting host matrix
[OGL LOG] sort_host_mtx_sparsity_pattern : 79 ms
[OGL LOG] sort_host_mtx : 49 ms
[OGL LOG] init_preconditioner : 45 ms
 CG create  precond 
[OGL LOG] solve : 434 ms
BJcudaGKOCG:  Solving for p, Initial residual = 1, Final residual = 9.37755e-07, No Iterations 579
time step continuity errors : sum local = 5.95792e-10, global = -2.18376e-21, cumulative = -2.18376e-21
[OGL LOG] init_preconditioner : 0 ms
 CG create  precond 
[OGL LOG] solve : 420 ms
BJcudaGKOCG:  Solving for p, Initial residual = 0.697106, Final residual = 9.99736e-07, No Iterations 567
time step continuity errors : sum local = 8.85911e-10, global = 5.07824e-21, cumulative = 2.89448e-21
ExecutionTime = 7.79 s  ClockTime = 8 s

Time = 0.00266667

Courant Number mean: 0.0508075 max: 0.767232
nonePBiCGStab:  Solving for Ux, Initial residual = 0.140592, Final residual = 0.0324525, No Iterations 5
nonePBiCGStab:  Solving for Uy, Initial residual = 0.413642, Final residual = 0.0923278, No Iterations 5
nonePBiCGStab:  Solving for Uz, Initial residual = 0.983213, Final residual = 0.249883, No Iterations 5
[OGL LOG] init_preconditioner : 0 ms
 CG create  precond 
[OGL LOG] solve : 418 ms
BJcudaGKOCG:  Solving for p, Initial residual = 0.746898, Final residual = 9.98101e-07, No Iterations 565
time step continuity errors : sum local = 1.34384e-09, global = 1.5789e-21, cumulative = 4.47338e-21
[OGL LOG] init_preconditioner : 0 ms
 CG create  precond 
[OGL LOG] solve : 414 ms
BJcudaGKOCG:  Solving for p, Initial residual = 0.668136, Final residual = 9.95166e-07, No Iterations 561
time step continuity errors : sum local = 1.36666e-09, global = 9.71682e-22, cumulative = 5.44506e-21
ExecutionTime = 9.14 s  ClockTime = 9 s

Time = 0.004

Courant Number mean: 0.0796134 max: 0.886021
nonePBiCGStab:  Solving for Ux, Initial residual = 0.0584505, Final residual = 0.011149, No Iterations 5
nonePBiCGStab:  Solving for Uy, Initial residual = 0.171953, Final residual = 0.0398782, No Iterations 5
nonePBiCGStab:  Solving for Uz, Initial residual = 0.61094, Final residual = 0.142315, No Iterations 5
[OGL LOG] init_preconditioner : 0 ms
 CG create  precond 
[OGL LOG] solve : 419 ms
BJcudaGKOCG:  Solving for p, Initial residual = 0.730362, Final residual = 9.61605e-07, No Iterations 564
time step continuity errors : sum local = 9.62105e-10, global = 1.24333e-20, cumulative = 1.78783e-20
[OGL LOG] init_preconditioner : 0 ms
 CG create  precond 
[OGL LOG] solve : 425 ms
BJcudaGKOCG:  Solving for p, Initial residual = 0.660896, Final residual = 9.89807e-07, No Iterations 561
time step continuity errors : sum local = 9.62643e-10, global = -7.97262e-22, cumulative = 1.70811e-20
ExecutionTime = 10.48 s  ClockTime = 11 s

Time = 0.00533333

Courant Number mean: 0.0948105 max: 0.902547
nonePBiCGStab:  Solving for Ux, Initial residual = 0.0345946, Final residual = 0.00682907, No Iterations 5
nonePBiCGStab:  Solving for Uy, Initial residual = 0.11955, Final residual = 0.0298199, No Iterations 5
nonePBiCGStab:  Solving for Uz, Initial residual = 0.386284, Final residual = 0.0806799, No Iterations 5
[OGL LOG] init_preconditioner : 0 ms
 CG create  precond 
[OGL LOG] solve : 418 ms
BJcudaGKOCG:  Solving for p, Initial residual = 0.609798, Final residual = 9.70716e-07, No Iterations 552
time step continuity errors : sum local = 9.57354e-10, global = 6.41452e-21, cumulative = 2.34956e-20
[OGL LOG] init_preconditioner : 0 ms
 CG create  precond 
[OGL LOG] solve : 416 ms
BJcudaGKOCG:  Solving for p, Initial residual = 0.521107, Final residual = 9.53788e-07, No Iterations 550
time step continuity errors : sum local = 9.60779e-10, global = 3.36933e-22, cumulative = 2.38325e-20
ExecutionTime = 11.82 s  ClockTime = 12 s

Time = 0.00666667

Courant Number mean: 0.107177 max: 0.916755
nonePBiCGStab:  Solving for Ux, Initial residual = 0.0257329, Final residual = 0.0050315, No Iterations 5
nonePBiCGStab:  Solving for Uy, Initial residual = 0.0750464, Final residual = 0.020821, No Iterations 5
nonePBiCGStab:  Solving for Uz, Initial residual = 0.212734, Final residual = 0.0495468, No Iterations 5
[OGL LOG] init_preconditioner : 0 ms
 CG create  precond 
[OGL LOG] solve : 417 ms
BJcudaGKOCG:  Solving for p, Initial residual = 0.629325, Final residual = 8.95213e-07, No Iterations 549
time step continuity errors : sum local = 7.57696e-10, global = 1.24779e-20, cumulative = 3.63104e-20
[OGL LOG] init_preconditioner : 0 ms
 CG create  precond 
[OGL LOG] solve : 415 ms
BJcudaGKOCG:  Solving for p, Initial residual = 0.55216, Final residual = 9.23944e-07, No Iterations 548
time step continuity errors : sum local = 7.70921e-10, global = 1.76686e-20, cumulative = 5.3979e-20
ExecutionTime = 13.16 s  ClockTime = 13 s

End

