/*---------------------------------------------------------------------------*\
  =========                 |
  \\      /  F ield         | OpenFOAM: The Open Source CFD Toolbox
   \\    /   O peration     | Website:  https://openfoam.org
    \\  /    A nd           | Version:  8
     \\/     M anipulation  |
\*---------------------------------------------------------------------------*/
Build  : 8-13d66902f78c
Exec   : icoFoam
Date   : Jul 12 2021
Time   : 17:42:18
Host   : "uc2n489.localdomain"
PID    : 4132920
I/O    : uncollated
Case   : /pfs/data5/home/kit/scc/nq7776/code/OGL_DATA/lidDrivenCavity3D/v0.1-136-g40fef35/f584ccac99/TeslaV100-SXM2-32GB/Test_2021-07-12-17:42:12/25/p-CG-GKO-BJ-cuda/lidDrivenCavity3D
nProcs : 1
sigFpe : Enabling floating point exception trapping (FOAM_SIGFPE).
fileModificationChecking : Monitoring run-time modified files using timeStampMaster (fileModificationSkew 10)
allowSystemOperations : Allowing user-supplied system call operations

// * * * * * * * * * * * * * * * * * * * * * * * * * * * * * * * * * * * * * //
Create time

Create mesh for time = 0

Reading transportProperties

Reading field p

Reading field U

Reading/calculating face flux field phi


Starting time loop

Time = 0.004

Courant Number mean: 0 max: 0
nonePBiCGStab:  Solving for Ux, Initial residual = 1, Final residual = 0.0337517, No Iterations 5
nonePBiCGStab:  Solving for Uy, Initial residual = 0, Final residual = 0, No Iterations 0
nonePBiCGStab:  Solving for Uz, Initial residual = 0, Final residual = 0, No Iterations 0
[OGL LOG] init_host_sparsity_pattern : 4 ms
[OGL LOG] matrix not stored update host matrix
[OGL LOG] update_host_mtx : 2 ms
[OGL LOG] matrix is not yet sorted, compute sorting idxs
[OGL LOG] compute_sort : 112 ms
[OGL LOG] matrix is not yet sorted, sorting host matrix
[OGL LOG] sort_host_mtx_sparsity_pattern : 2 ms
[OGL LOG] sort_host_mtx : 1 ms
[OGL LOG] init_preconditioner : 2 ms
 CG create  precond 
[OGL LOG] solve : 32 ms
BJcudaGKOCG:  Solving for p, Initial residual = 1, Final residual = 8.87614e-07, No Iterations 186
time step continuity errors : sum local = 3.52406e-09, global = -1.22314e-19, cumulative = -1.22314e-19
[OGL LOG] init_preconditioner : 0 ms
 CG create  precond 
[OGL LOG] solve : 30 ms
BJcudaGKOCG:  Solving for p, Initial residual = 0.622285, Final residual = 8.77476e-07, No Iterations 182
time step continuity errors : sum local = 5.09453e-09, global = -5.9665e-20, cumulative = -1.81979e-19
ExecutionTime = 1.12 s  ClockTime = 1 s

Time = 0.008

Courant Number mean: 0.084228 max: 0.621061
nonePBiCGStab:  Solving for Ux, Initial residual = 0.149589, Final residual = 0.00942683, No Iterations 5
nonePBiCGStab:  Solving for Uy, Initial residual = 0.281195, Final residual = 0.0142199, No Iterations 5
nonePBiCGStab:  Solving for Uz, Initial residual = 0.933285, Final residual = 0.0511081, No Iterations 5
[OGL LOG] init_preconditioner : 0 ms
 CG create  precond 
[OGL LOG] solve : 32 ms
BJcudaGKOCG:  Solving for p, Initial residual = 0.518045, Final residual = 9.0083e-07, No Iterations 195
time step continuity errors : sum local = 5.27994e-09, global = -6.68533e-20, cumulative = -2.48833e-19
[OGL LOG] init_preconditioner : 0 ms
 CG create  precond 
[OGL LOG] solve : 32 ms
BJcudaGKOCG:  Solving for p, Initial residual = 0.415898, Final residual = 8.39901e-07, No Iterations 194
time step continuity errors : sum local = 5.1283e-09, global = 3.5541e-20, cumulative = -2.13292e-19
ExecutionTime = 1.21 s  ClockTime = 2 s

Time = 0.012

Courant Number mean: 0.124051 max: 0.792234
nonePBiCGStab:  Solving for Ux, Initial residual = 0.0425001, Final residual = 0.00204637, No Iterations 5
nonePBiCGStab:  Solving for Uy, Initial residual = 0.0761453, Final residual = 0.00263683, No Iterations 5
nonePBiCGStab:  Solving for Uz, Initial residual = 0.142709, Final residual = 0.0066845, No Iterations 5
[OGL LOG] init_preconditioner : 0 ms
 CG create  precond 
[OGL LOG] solve : 30 ms
BJcudaGKOCG:  Solving for p, Initial residual = 0.279188, Final residual = 8.32332e-07, No Iterations 183
time step continuity errors : sum local = 3.5688e-09, global = -7.57546e-20, cumulative = -2.89046e-19
[OGL LOG] init_preconditioner : 0 ms
 CG create  precond 
[OGL LOG] solve : 34 ms
BJcudaGKOCG:  Solving for p, Initial residual = 0.224051, Final residual = 9.47487e-07, No Iterations 181
time step continuity errors : sum local = 3.98114e-09, global = -1.42626e-19, cumulative = -4.31672e-19
ExecutionTime = 1.29 s  ClockTime = 2 s

Time = 0.016

Courant Number mean: 0.142529 max: 0.824384
nonePBiCGStab:  Solving for Ux, Initial residual = 0.0219032, Final residual = 0.000752461, No Iterations 5
nonePBiCGStab:  Solving for Uy, Initial residual = 0.0474704, Final residual = 0.000975035, No Iterations 5
nonePBiCGStab:  Solving for Uz, Initial residual = 0.0926553, Final residual = 0.00322907, No Iterations 5
[OGL LOG] init_preconditioner : 0 ms
 CG create  precond 
[OGL LOG] solve : 30 ms
BJcudaGKOCG:  Solving for p, Initial residual = 0.138551, Final residual = 9.9526e-07, No Iterations 181
time step continuity errors : sum local = 4.22823e-09, global = -1.61893e-19, cumulative = -5.93565e-19
[OGL LOG] init_preconditioner : 0 ms
 CG create  precond 
[OGL LOG] solve : 29 ms
BJcudaGKOCG:  Solving for p, Initial residual = 0.10656, Final residual = 9.29136e-07, No Iterations 180
time step continuity errors : sum local = 4.00088e-09, global = -8.96126e-20, cumulative = -6.83178e-19
ExecutionTime = 1.36 s  ClockTime = 2 s

Time = 0.02

Courant Number mean: 0.154857 max: 0.843613
nonePBiCGStab:  Solving for Ux, Initial residual = 0.0136635, Final residual = 0.000405686, No Iterations 5
nonePBiCGStab:  Solving for Uy, Initial residual = 0.0288036, Final residual = 0.000728008, No Iterations 5
nonePBiCGStab:  Solving for Uz, Initial residual = 0.0551907, Final residual = 0.00171381, No Iterations 5
[OGL LOG] init_preconditioner : 0 ms
 CG create  precond 
[OGL LOG] solve : 29 ms
BJcudaGKOCG:  Solving for p, Initial residual = 0.0654124, Final residual = 9.15066e-07, No Iterations 176
time step continuity errors : sum local = 3.74068e-09, global = 1.13024e-19, cumulative = -5.70154e-19
[OGL LOG] init_preconditioner : 0 ms
 CG create  precond 
[OGL LOG] solve : 29 ms
BJcudaGKOCG:  Solving for p, Initial residual = 0.0510723, Final residual = 9.80369e-07, No Iterations 174
time step continuity errors : sum local = 4.00792e-09, global = -1.76699e-19, cumulative = -7.46853e-19
ExecutionTime = 1.44 s  ClockTime = 2 s

End

