/*---------------------------------------------------------------------------*\
  =========                 |
  \\      /  F ield         | OpenFOAM: The Open Source CFD Toolbox
   \\    /   O peration     | Website:  https://openfoam.org
    \\  /    A nd           | Version:  8
     \\/     M anipulation  |
\*---------------------------------------------------------------------------*/
Build  : 8-13d66902f78c
Exec   : icoFoam
Date   : Jul 12 2021
Time   : 17:37:11
Host   : "uc2n489.localdomain"
PID    : 4126142
I/O    : uncollated
Case   : /pfs/data5/home/kit/scc/nq7776/code/OGL_DATA/lidDrivenCavity3D/v0.1-136-g40fef35/f584ccac99/TeslaV100-SXM2-32GB/Test_2021-07-12-17:34:35/75/p-IR-GKO-none-cuda/lidDrivenCavity3D
nProcs : 1
sigFpe : Enabling floating point exception trapping (FOAM_SIGFPE).
fileModificationChecking : Monitoring run-time modified files using timeStampMaster (fileModificationSkew 10)
allowSystemOperations : Allowing user-supplied system call operations

// * * * * * * * * * * * * * * * * * * * * * * * * * * * * * * * * * * * * * //
Create time

Create mesh for time = 0

Reading transportProperties

Reading field p

Reading field U

Reading/calculating face flux field phi


Starting time loop

Time = 0.00133333

Courant Number mean: 0 max: 0
nonePBiCGStab:  Solving for Ux, Initial residual = 1, Final residual = 0.0730231, No Iterations 5
nonePBiCGStab:  Solving for Uy, Initial residual = 0, Final residual = 0, No Iterations 0
nonePBiCGStab:  Solving for Uz, Initial residual = 0, Final residual = 0, No Iterations 0
[OGL LOG] init_host_sparsity_pattern : 131 ms
[OGL LOG] matrix not stored update host matrix
[OGL LOG] update_host_mtx : 68 ms
[OGL LOG] matrix is not yet sorted, compute sorting idxs
[OGL LOG] compute_sort : 3934 ms
[OGL LOG] matrix is not yet sorted, sorting host matrix
[OGL LOG] sort_host_mtx_sparsity_pattern : 85 ms
[OGL LOG] sort_host_mtx : 48 ms
[OGL LOG] init_preconditioner : 0 ms
[OGL LOG] solve : 311 ms
nonecudaGKOIR:  Solving for p, Initial residual = 1, Final residual = 1.46706e-07, No Iterations 4
time step continuity errors : sum local = 9.32322e-11, global = 4.04885e-21, cumulative = 4.04885e-21
[OGL LOG] init_preconditioner : 0 ms
[OGL LOG] solve : 296 ms
nonecudaGKOIR:  Solving for p, Initial residual = 0.697106, Final residual = 6.97486e-08, No Iterations 4
time step continuity errors : sum local = 6.18273e-11, global = -8.46438e-21, cumulative = -4.41553e-21
ExecutionTime = 7.89 s  ClockTime = 8 s

Time = 0.00266667

Courant Number mean: 0.0508075 max: 0.767232
nonePBiCGStab:  Solving for Ux, Initial residual = 0.140592, Final residual = 0.0324525, No Iterations 5
nonePBiCGStab:  Solving for Uy, Initial residual = 0.413642, Final residual = 0.0923278, No Iterations 5
nonePBiCGStab:  Solving for Uz, Initial residual = 0.983213, Final residual = 0.249884, No Iterations 5
[OGL LOG] init_preconditioner : 0 ms
[OGL LOG] solve : 244 ms
nonecudaGKOIR:  Solving for p, Initial residual = 0.746898, Final residual = 3.62302e-08, No Iterations 4
time step continuity errors : sum local = 4.87848e-11, global = 1.04489e-20, cumulative = 6.03339e-21
[OGL LOG] init_preconditioner : 0 ms
[OGL LOG] solve : 246 ms
nonecudaGKOIR:  Solving for p, Initial residual = 0.668136, Final residual = 2.98488e-08, No Iterations 4
time step continuity errors : sum local = 4.09992e-11, global = 1.15747e-20, cumulative = 1.76081e-20
ExecutionTime = 8.91 s  ClockTime = 9 s

Time = 0.004

Courant Number mean: 0.0796134 max: 0.886021
nonePBiCGStab:  Solving for Ux, Initial residual = 0.0584505, Final residual = 0.011149, No Iterations 5
nonePBiCGStab:  Solving for Uy, Initial residual = 0.171953, Final residual = 0.0398782, No Iterations 5
nonePBiCGStab:  Solving for Uz, Initial residual = 0.610941, Final residual = 0.142315, No Iterations 5
[OGL LOG] init_preconditioner : 0 ms
[OGL LOG] solve : 252 ms
nonecudaGKOIR:  Solving for p, Initial residual = 0.730362, Final residual = 2.8617e-08, No Iterations 4
time step continuity errors : sum local = 2.8636e-11, global = 1.9789e-21, cumulative = 1.9587e-20
[OGL LOG] init_preconditioner : 0 ms
[OGL LOG] solve : 256 ms
nonecudaGKOIR:  Solving for p, Initial residual = 0.660896, Final residual = 2.41098e-08, No Iterations 4
time step continuity errors : sum local = 2.34507e-11, global = 3.54527e-21, cumulative = 2.31323e-20
ExecutionTime = 10.08 s  ClockTime = 10 s

Time = 0.00533333

Courant Number mean: 0.0948105 max: 0.902547
nonePBiCGStab:  Solving for Ux, Initial residual = 0.0345946, Final residual = 0.00682907, No Iterations 5
nonePBiCGStab:  Solving for Uy, Initial residual = 0.11955, Final residual = 0.0298199, No Iterations 5
nonePBiCGStab:  Solving for Uz, Initial residual = 0.386282, Final residual = 0.0806798, No Iterations 5
[OGL LOG] init_preconditioner : 0 ms
[OGL LOG] solve : 258 ms
nonecudaGKOIR:  Solving for p, Initial residual = 0.609798, Final residual = 2.15578e-08, No Iterations 4
time step continuity errors : sum local = 2.13061e-11, global = 1.387e-20, cumulative = 3.70022e-20
[OGL LOG] init_preconditioner : 0 ms
[OGL LOG] solve : 256 ms
nonecudaGKOIR:  Solving for p, Initial residual = 0.521107, Final residual = 1.9745e-08, No Iterations 4
time step continuity errors : sum local = 1.99155e-11, global = -9.74033e-21, cumulative = 2.72619e-20
ExecutionTime = 11.19 s  ClockTime = 11 s

Time = 0.00666667

Courant Number mean: 0.107177 max: 0.916755
nonePBiCGStab:  Solving for Ux, Initial residual = 0.0257329, Final residual = 0.00503149, No Iterations 5
nonePBiCGStab:  Solving for Uy, Initial residual = 0.0750464, Final residual = 0.0208209, No Iterations 5
nonePBiCGStab:  Solving for Uz, Initial residual = 0.21273, Final residual = 0.049546, No Iterations 5
[OGL LOG] init_preconditioner : 0 ms
[OGL LOG] solve : 237 ms
nonecudaGKOIR:  Solving for p, Initial residual = 0.629326, Final residual = 2.12818e-08, No Iterations 4
time step continuity errors : sum local = 1.80155e-11, global = 2.06754e-20, cumulative = 4.79373e-20
[OGL LOG] init_preconditioner : 0 ms
[OGL LOG] solve : 233 ms
nonecudaGKOIR:  Solving for p, Initial residual = 0.55216, Final residual = 1.72542e-08, No Iterations 4
time step continuity errors : sum local = 1.43993e-11, global = -2.19324e-20, cumulative = 2.60049e-20
ExecutionTime = 12.24 s  ClockTime = 12 s

End

