/*---------------------------------------------------------------------------*\
  =========                 |
  \\      /  F ield         | OpenFOAM: The Open Source CFD Toolbox
   \\    /   O peration     | Website:  https://openfoam.org
    \\  /    A nd           | Version:  8
     \\/     M anipulation  |
\*---------------------------------------------------------------------------*/
Build  : 8-13d66902f78c
Exec   : simpleFoam
Date   : Jul 02 2021
Time   : 01:43:15
Host   : "uc2n465.localdomain"
PID    : 3659867
I/O    : uncollated
Case   : /pfs/data5/home/kit/scc/nq7776/code/OGL_DATA/airFoil2D/v0.1-133-g6261adb/f584ccac99/IntelXeonGold6230CPU@2.10GHz/Test_2021-07-02-01:30:53/1/p-CG-GKO-BJ-omp/airFoil2D
nProcs : 1
sigFpe : Enabling floating point exception trapping (FOAM_SIGFPE).
fileModificationChecking : Monitoring run-time modified files using timeStampMaster (fileModificationSkew 10)
allowSystemOperations : Allowing user-supplied system call operations

// * * * * * * * * * * * * * * * * * * * * * * * * * * * * * * * * * * * * * //
Create time

Create mesh for time = 0


SIMPLE: Convergence criteria found
        p: tolerance 1e-05
        U: tolerance 1e-05
        nuTilda: tolerance 1e-05

Reading field p

Reading field U

Reading/calculating face flux field phi

Selecting incompressible transport model Newtonian
Selecting turbulence model type RAS
Selecting RAS turbulence model SpalartAllmaras
Selecting patchDistMethod meshWave
RAS
{
    model           SpalartAllmaras;
    turbulence      on;
    printCoeffs     on;
    sigmaNut        0.66666;
    kappa           0.41;
    Cb1             0.1355;
    Cb2             0.622;
    Cw2             0.3;
    Cw3             2;
    Cv1             7.1;
    Cs              0.3;
}

No MRF models present

No finite volume options present

Starting time loop

Time = 1

smoothSolver:  Solving for Ux, Initial residual = 1, Final residual = 0.000531638, No Iterations 14
smoothSolver:  Solving for Uy, Initial residual = 1, Final residual = 0.000467931, No Iterations 14
[OGL LOG] init_host_sparsity_pattern : 8 ms
[OGL LOG] matrix not stored update host matrix
[OGL LOG] update_host_mtx : 4 ms
[OGL LOG] matrix is not yet sorted, compute sorting idxs
[OGL LOG] compute_sort : 224 ms
[OGL LOG] matrix is not yet sorted, sorting host matrix
[OGL LOG] sort_host_mtx_sparsity_pattern : 6 ms
[OGL LOG] sort_host_mtx : 3 ms
[OGL LOG] init_preconditioner : 2 ms
 CG create  precond 
[OGL LOG] solve : 798 ms
BJompGKOCG:  Solving for p, Initial residual = 1, Final residual = 0.000992176, No Iterations 984
time step continuity errors : sum local = 2.27463e-06, global = -7.58243e-08, cumulative = -7.58243e-08
smoothSolver:  Solving for nuTilda, Initial residual = 1, Final residual = 0.0317384, No Iterations 2
ExecutionTime = 26.63 s  ClockTime = 2 s

Time = 2

smoothSolver:  Solving for Ux, Initial residual = 0.555841, Final residual = 0.000506285, No Iterations 10
smoothSolver:  Solving for Uy, Initial residual = 0.585603, Final residual = 0.000525907, No Iterations 10
[OGL LOG] init_host_sparsity_pattern : 8 ms
[OGL LOG] matrix not stored update host matrix
[OGL LOG] update_host_mtx : 4 ms
[OGL LOG] matrix is not yet sorted, sorting host matrix
[OGL LOG] sort_host_mtx_sparsity_pattern : 5 ms
[OGL LOG] sort_host_mtx : 3 ms
[OGL LOG] init_preconditioner : 0 ms
 CG create  precond 
[OGL LOG] solve : 831 ms
BJompGKOCG:  Solving for p, Initial residual = 0.11621, Final residual = 0.00217555, No Iterations 1000
time step continuity errors : sum local = 0.000173966, global = -1.64787e-05, cumulative = -1.65545e-05
smoothSolver:  Solving for nuTilda, Initial residual = 0.0522241, Final residual = 0.0015409, No Iterations 4
ExecutionTime = 53.43 s  ClockTime = 3 s

Time = 3

smoothSolver:  Solving for Ux, Initial residual = 0.167567, Final residual = 0.000155053, No Iterations 10
smoothSolver:  Solving for Uy, Initial residual = 0.136626, Final residual = 0.000123003, No Iterations 10
[OGL LOG] init_host_sparsity_pattern : 8 ms
[OGL LOG] matrix not stored update host matrix
[OGL LOG] update_host_mtx : 4 ms
[OGL LOG] matrix is not yet sorted, sorting host matrix
[OGL LOG] sort_host_mtx_sparsity_pattern : 6 ms
[OGL LOG] sort_host_mtx : 3 ms
[OGL LOG] init_preconditioner : 0 ms
 CG create  precond 
[OGL LOG] solve : 760 ms
BJompGKOCG:  Solving for p, Initial residual = 0.0555434, Final residual = 0.00384064, No Iterations 1000
time step continuity errors : sum local = 0.000193424, global = -1.72184e-05, cumulative = -3.37729e-05
smoothSolver:  Solving for nuTilda, Initial residual = 0.0316072, Final residual = 0.00133107, No Iterations 4
ExecutionTime = 77.96 s  ClockTime = 3 s

Time = 4

smoothSolver:  Solving for Ux, Initial residual = 0.0502549, Final residual = 4.2946e-05, No Iterations 10
smoothSolver:  Solving for Uy, Initial residual = 0.0494837, Final residual = 4.25483e-05, No Iterations 10
[OGL LOG] init_host_sparsity_pattern : 8 ms
[OGL LOG] matrix not stored update host matrix
[OGL LOG] update_host_mtx : 4 ms
[OGL LOG] matrix is not yet sorted, sorting host matrix
[OGL LOG] sort_host_mtx_sparsity_pattern : 5 ms
[OGL LOG] sort_host_mtx : 3 ms
[OGL LOG] init_preconditioner : 0 ms
 CG create  precond 
[OGL LOG] solve : 735 ms
BJompGKOCG:  Solving for p, Initial residual = 0.17396, Final residual = 0.00266726, No Iterations 1000
time step continuity errors : sum local = 7.67622e-05, global = -6.058e-06, cumulative = -3.98309e-05
smoothSolver:  Solving for nuTilda, Initial residual = 0.0258703, Final residual = 0.00107661, No Iterations 4
ExecutionTime = 101.66 s  ClockTime = 4 s

Time = 5

smoothSolver:  Solving for Ux, Initial residual = 0.189639, Final residual = 0.000172985, No Iterations 10
smoothSolver:  Solving for Uy, Initial residual = 0.173351, Final residual = 0.000154978, No Iterations 10
[OGL LOG] init_host_sparsity_pattern : 8 ms
[OGL LOG] matrix not stored update host matrix
[OGL LOG] update_host_mtx : 4 ms
[OGL LOG] matrix is not yet sorted, sorting host matrix
[OGL LOG] sort_host_mtx_sparsity_pattern : 5 ms
[OGL LOG] sort_host_mtx : 3 ms
[OGL LOG] init_preconditioner : 0 ms
 CG create  precond 
[OGL LOG] solve : 705 ms
BJompGKOCG:  Solving for p, Initial residual = 0.0822433, Final residual = 0.00215615, No Iterations 1000
time step continuity errors : sum local = 0.000115945, global = 1.39386e-05, cumulative = -2.58923e-05
smoothSolver:  Solving for nuTilda, Initial residual = 0.0212964, Final residual = 0.000884458, No Iterations 4
ExecutionTime = 124.41 s  ClockTime = 5 s

End

