/*---------------------------------------------------------------------------*\
  =========                 |
  \\      /  F ield         | OpenFOAM: The Open Source CFD Toolbox
   \\    /   O peration     | Website:  https://openfoam.org
    \\  /    A nd           | Version:  8
     \\/     M anipulation  |
\*---------------------------------------------------------------------------*/
Build  : 8-13d66902f78c
Exec   : simpleFoam
Date   : Jul 02 2021
Time   : 01:53:32
Host   : "uc2n552.localdomain"
PID    : 26364
I/O    : uncollated
Case   : /pfs/data5/home/kit/scc/nq7776/code/OGL_DATA/airFoil2D/v0.1-133-g6261adb/f584ccac99/IntelXeonGold6230CPU@2.10GHz/Test_2021-07-02-01:43:45/1/p-U-BiCGStab-GKO-BJ-omp/airFoil2D
nProcs : 1
sigFpe : Enabling floating point exception trapping (FOAM_SIGFPE).
fileModificationChecking : Monitoring run-time modified files using timeStampMaster (fileModificationSkew 10)
allowSystemOperations : Allowing user-supplied system call operations

// * * * * * * * * * * * * * * * * * * * * * * * * * * * * * * * * * * * * * //
Create time

Create mesh for time = 0


SIMPLE: Convergence criteria found
        p: tolerance 1e-05
        U: tolerance 1e-05
        nuTilda: tolerance 1e-05

Reading field p

Reading field U

Reading/calculating face flux field phi

Selecting incompressible transport model Newtonian
Selecting turbulence model type RAS
Selecting RAS turbulence model SpalartAllmaras
Selecting patchDistMethod meshWave
RAS
{
    model           SpalartAllmaras;
    turbulence      on;
    printCoeffs     on;
    sigmaNut        0.66666;
    kappa           0.41;
    Cb1             0.1355;
    Cb2             0.622;
    Cw2             0.3;
    Cw3             2;
    Cv1             7.1;
    Cs              0.3;
}

No MRF models present

No finite volume options present

Starting time loop

Time = 1

[OGL LOG] init_host_sparsity_pattern : 8 ms
[OGL LOG] matrix not stored update host matrix
[OGL LOG] update_host_mtx : 4 ms
[OGL LOG] matrix is not yet sorted, compute sorting idxs
[OGL LOG] compute_sort : 224 ms
[OGL LOG] matrix is not yet sorted, sorting host matrix
[OGL LOG] sort_host_mtx_sparsity_pattern : 5 ms
[OGL LOG] sort_host_mtx : 3 ms
[OGL LOG] init_preconditioner : 6 ms
[OGL LOG] solve : 47 ms
BJompGKOBiCGStab:  Solving for Ux, Initial residual = 130.982, Final residual = 0.127301, No Iterations 11
[OGL LOG] init_host_sparsity_pattern : 8 ms
[OGL LOG] matrix not stored update host matrix
[OGL LOG] update_host_mtx : 4 ms
[OGL LOG] matrix is not yet sorted, sorting host matrix
[OGL LOG] sort_host_mtx_sparsity_pattern : 5 ms
[OGL LOG] sort_host_mtx : 3 ms
[OGL LOG] init_preconditioner : 6 ms
[OGL LOG] solve : 46 ms
BJompGKOBiCGStab:  Solving for Uy, Initial residual = 133.957, Final residual = 0.130881, No Iterations 11
[OGL LOG] init_host_sparsity_pattern : 8 ms
[OGL LOG] matrix not stored update host matrix
[OGL LOG] update_host_mtx : 4 ms
[OGL LOG] matrix is not yet sorted, sorting host matrix
[OGL LOG] sort_host_mtx_sparsity_pattern : 5 ms
[OGL LOG] sort_host_mtx : 3 ms
[OGL LOG] init_preconditioner : 6 ms
[OGL LOG] solve : 1749 ms
BJompGKOBiCGStab:  Solving for p, Initial residual = 1, Final residual = 0.000997094, No Iterations 449
time step continuity errors : sum local = 6.36489e-05, global = -3.81378e-05, cumulative = -3.81378e-05
smoothSolver:  Solving for nuTilda, Initial residual = 1, Final residual = 0.0697386, No Iterations 2
ExecutionTime = 4.35 s  ClockTime = 3 s

Time = 2

[OGL LOG] init_host_sparsity_pattern : 8 ms
[OGL LOG] matrix not stored update host matrix
[OGL LOG] update_host_mtx : 4 ms
[OGL LOG] matrix is not yet sorted, sorting host matrix
[OGL LOG] sort_host_mtx_sparsity_pattern : 5 ms
[OGL LOG] sort_host_mtx : 3 ms
[OGL LOG] init_preconditioner : 0 ms
[OGL LOG] solve : 57 ms
BJompGKOBiCGStab:  Solving for Ux, Initial residual = 0.548104, Final residual = 0.000485512, No Iterations 13
[OGL LOG] init_host_sparsity_pattern : 8 ms
[OGL LOG] matrix not stored update host matrix
[OGL LOG] update_host_mtx : 4 ms
[OGL LOG] matrix is not yet sorted, sorting host matrix
[OGL LOG] sort_host_mtx_sparsity_pattern : 5 ms
[OGL LOG] sort_host_mtx : 3 ms
[OGL LOG] init_preconditioner : 0 ms
[OGL LOG] solve : 59 ms
BJompGKOBiCGStab:  Solving for Uy, Initial residual = 0.715737, Final residual = 0.000277292, No Iterations 14
[OGL LOG] init_host_sparsity_pattern : 8 ms
[OGL LOG] matrix not stored update host matrix
[OGL LOG] update_host_mtx : 4 ms
[OGL LOG] matrix is not yet sorted, sorting host matrix
[OGL LOG] sort_host_mtx_sparsity_pattern : 5 ms
[OGL LOG] sort_host_mtx : 3 ms
[OGL LOG] init_preconditioner : 0 ms
[OGL LOG] solve : 2701 ms
BJompGKOBiCGStab:  Solving for p, Initial residual = 0.227359, Final residual = 0.000219687, No Iterations 701
time step continuity errors : sum local = 4.35562e-05, global = 4.07595e-05, cumulative = 2.62164e-06
smoothSolver:  Solving for nuTilda, Initial residual = 0.116888, Final residual = 0.00509999, No Iterations 4
ExecutionTime = 10.1 s  ClockTime = 6 s

Time = 3

[OGL LOG] init_host_sparsity_pattern : 8 ms
[OGL LOG] matrix not stored update host matrix
[OGL LOG] update_host_mtx : 3 ms
[OGL LOG] matrix is not yet sorted, sorting host matrix
[OGL LOG] sort_host_mtx_sparsity_pattern : 5 ms
[OGL LOG] sort_host_mtx : 3 ms
[OGL LOG] init_preconditioner : 0 ms
[OGL LOG] solve : 48 ms
BJompGKOBiCGStab:  Solving for Ux, Initial residual = 0.269193, Final residual = 0.000261485, No Iterations 12
[OGL LOG] init_host_sparsity_pattern : 8 ms
[OGL LOG] matrix not stored update host matrix
[OGL LOG] update_host_mtx : 3 ms
[OGL LOG] matrix is not yet sorted, sorting host matrix
[OGL LOG] sort_host_mtx_sparsity_pattern : 5 ms
[OGL LOG] sort_host_mtx : 3 ms
[OGL LOG] init_preconditioner : 0 ms
[OGL LOG] solve : 45 ms
BJompGKOBiCGStab:  Solving for Uy, Initial residual = 0.202906, Final residual = 0.000112494, No Iterations 11
[OGL LOG] init_host_sparsity_pattern : 8 ms
[OGL LOG] matrix not stored update host matrix
[OGL LOG] update_host_mtx : 4 ms
[OGL LOG] matrix is not yet sorted, sorting host matrix
[OGL LOG] sort_host_mtx_sparsity_pattern : 5 ms
[OGL LOG] sort_host_mtx : 3 ms
[OGL LOG] init_preconditioner : 0 ms
[OGL LOG] solve : 3166 ms
BJompGKOBiCGStab:  Solving for p, Initial residual = 0.14801, Final residual = 0.000147709, No Iterations 821
time step continuity errors : sum local = 2.8214e-05, global = 2.20481e-05, cumulative = 2.46698e-05
smoothSolver:  Solving for nuTilda, Initial residual = 0.102687, Final residual = 0.00521215, No Iterations 4
ExecutionTime = 16.73 s  ClockTime = 9 s

Time = 4

[OGL LOG] init_host_sparsity_pattern : 8 ms
[OGL LOG] matrix not stored update host matrix
[OGL LOG] update_host_mtx : 4 ms
[OGL LOG] matrix is not yet sorted, sorting host matrix
[OGL LOG] sort_host_mtx_sparsity_pattern : 5 ms
[OGL LOG] sort_host_mtx : 3 ms
[OGL LOG] init_preconditioner : 0 ms
[OGL LOG] solve : 49 ms
BJompGKOBiCGStab:  Solving for Ux, Initial residual = 0.201266, Final residual = 0.000144755, No Iterations 12
[OGL LOG] init_host_sparsity_pattern : 8 ms
[OGL LOG] matrix not stored update host matrix
[OGL LOG] update_host_mtx : 3 ms
[OGL LOG] matrix is not yet sorted, sorting host matrix
[OGL LOG] sort_host_mtx_sparsity_pattern : 5 ms
[OGL LOG] sort_host_mtx : 3 ms
[OGL LOG] init_preconditioner : 0 ms
[OGL LOG] solve : 47 ms
BJompGKOBiCGStab:  Solving for Uy, Initial residual = 0.144843, Final residual = 0.00014334, No Iterations 12
[OGL LOG] init_host_sparsity_pattern : 8 ms
[OGL LOG] matrix not stored update host matrix
[OGL LOG] update_host_mtx : 4 ms
[OGL LOG] matrix is not yet sorted, sorting host matrix
[OGL LOG] sort_host_mtx_sparsity_pattern : 5 ms
[OGL LOG] sort_host_mtx : 3 ms
[OGL LOG] init_preconditioner : 0 ms
[OGL LOG] solve : 2999 ms
BJompGKOBiCGStab:  Solving for p, Initial residual = 0.269901, Final residual = 0.000266205, No Iterations 780
time step continuity errors : sum local = 2.68347e-05, global = 3.68873e-06, cumulative = 2.83585e-05
smoothSolver:  Solving for nuTilda, Initial residual = 0.102814, Final residual = 0.0051177, No Iterations 4
ExecutionTime = 23.03 s  ClockTime = 12 s

Time = 5

[OGL LOG] init_host_sparsity_pattern : 8 ms
[OGL LOG] matrix not stored update host matrix
[OGL LOG] update_host_mtx : 4 ms
[OGL LOG] matrix is not yet sorted, sorting host matrix
[OGL LOG] sort_host_mtx_sparsity_pattern : 5 ms
[OGL LOG] sort_host_mtx : 3 ms
[OGL LOG] init_preconditioner : 0 ms
[OGL LOG] solve : 47 ms
BJompGKOBiCGStab:  Solving for Ux, Initial residual = 0.210448, Final residual = 0.000199738, No Iterations 12
[OGL LOG] init_host_sparsity_pattern : 8 ms
[OGL LOG] matrix not stored update host matrix
[OGL LOG] update_host_mtx : 3 ms
[OGL LOG] matrix is not yet sorted, sorting host matrix
[OGL LOG] sort_host_mtx_sparsity_pattern : 5 ms
[OGL LOG] sort_host_mtx : 3 ms
[OGL LOG] init_preconditioner : 0 ms
[OGL LOG] solve : 48 ms
BJompGKOBiCGStab:  Solving for Uy, Initial residual = 0.154909, Final residual = 0.000147473, No Iterations 12
[OGL LOG] init_host_sparsity_pattern : 8 ms
[OGL LOG] matrix not stored update host matrix
[OGL LOG] update_host_mtx : 4 ms
[OGL LOG] matrix is not yet sorted, sorting host matrix
[OGL LOG] sort_host_mtx_sparsity_pattern : 5 ms
[OGL LOG] sort_host_mtx : 3 ms
[OGL LOG] init_preconditioner : 0 ms
[OGL LOG] solve : 2621 ms
BJompGKOBiCGStab:  Solving for p, Initial residual = 0.218376, Final residual = 0.000212743, No Iterations 681
time step continuity errors : sum local = 6.92568e-05, global = -6.36405e-05, cumulative = -3.5282e-05
smoothSolver:  Solving for nuTilda, Initial residual = 0.0979606, Final residual = 0.00485715, No Iterations 4
ExecutionTime = 28.57 s  ClockTime = 15 s

End

