/*---------------------------------------------------------------------------*\
  =========                 |
  \\      /  F ield         | OpenFOAM: The Open Source CFD Toolbox
   \\    /   O peration     | Website:  https://openfoam.org
    \\  /    A nd           | Version:  8
     \\/     M anipulation  |
\*---------------------------------------------------------------------------*/
Build  : 8-13d66902f78c
Exec   : simpleFoam
Date   : Jul 02 2021
Time   : 01:49:56
Host   : "uc2n468.localdomain"
PID    : 2228062
I/O    : uncollated
Case   : /pfs/data5/home/kit/scc/nq7776/code/OGL_DATA/airFoil2D/v0.1-133-g6261adb/f584ccac99/IntelXeonGold6230CPU@2.10GHz/Test_2021-07-02-01:35:11/1/p-U-BiCGStab-GKO-none-omp/airFoil2D
nProcs : 1
sigFpe : Enabling floating point exception trapping (FOAM_SIGFPE).
fileModificationChecking : Monitoring run-time modified files using timeStampMaster (fileModificationSkew 10)
allowSystemOperations : Allowing user-supplied system call operations

// * * * * * * * * * * * * * * * * * * * * * * * * * * * * * * * * * * * * * //
Create time

Create mesh for time = 0


SIMPLE: Convergence criteria found
        p: tolerance 1e-05
        U: tolerance 1e-05
        nuTilda: tolerance 1e-05

Reading field p

Reading field U

Reading/calculating face flux field phi

Selecting incompressible transport model Newtonian
Selecting turbulence model type RAS
Selecting RAS turbulence model SpalartAllmaras
Selecting patchDistMethod meshWave
RAS
{
    model           SpalartAllmaras;
    turbulence      on;
    printCoeffs     on;
    sigmaNut        0.66666;
    kappa           0.41;
    Cb1             0.1355;
    Cb2             0.622;
    Cw2             0.3;
    Cw3             2;
    Cv1             7.1;
    Cs              0.3;
}

No MRF models present

No finite volume options present

Starting time loop

Time = 1

[OGL LOG] init_host_sparsity_pattern : 8 ms
[OGL LOG] matrix not stored update host matrix
[OGL LOG] update_host_mtx : 4 ms
[OGL LOG] matrix is not yet sorted, compute sorting idxs
[OGL LOG] compute_sort : 224 ms
[OGL LOG] matrix is not yet sorted, sorting host matrix
[OGL LOG] sort_host_mtx_sparsity_pattern : 5 ms
[OGL LOG] sort_host_mtx : 3 ms
[OGL LOG] init_preconditioner : 0 ms
[OGL LOG] solve : 92 ms
noneompGKOBiCGStab:  Solving for Ux, Initial residual = 130.982, Final residual = 0.126452, No Iterations 65
[OGL LOG] init_host_sparsity_pattern : 9 ms
[OGL LOG] matrix not stored update host matrix
[OGL LOG] update_host_mtx : 3 ms
[OGL LOG] matrix is not yet sorted, sorting host matrix
[OGL LOG] sort_host_mtx_sparsity_pattern : 5 ms
[OGL LOG] sort_host_mtx : 3 ms
[OGL LOG] init_preconditioner : 0 ms
[OGL LOG] solve : 91 ms
noneompGKOBiCGStab:  Solving for Uy, Initial residual = 133.957, Final residual = 0.129958, No Iterations 64
[OGL LOG] init_host_sparsity_pattern : 8 ms
[OGL LOG] matrix not stored update host matrix
[OGL LOG] update_host_mtx : 4 ms
[OGL LOG] matrix is not yet sorted, sorting host matrix
[OGL LOG] sort_host_mtx_sparsity_pattern : 5 ms
[OGL LOG] sort_host_mtx : 3 ms
[OGL LOG] init_preconditioner : 0 ms
[OGL LOG] solve : 1426 ms
noneompGKOBiCGStab:  Solving for p, Initial residual = 1, Final residual = 0.0133223, No Iterations 1000
time step continuity errors : sum local = 0.000821689, global = -0.000629271, cumulative = -0.000629271
smoothSolver:  Solving for nuTilda, Initial residual = 1, Final residual = 0.0686135, No Iterations 2
ExecutionTime = 105.2 s  ClockTime = 2 s

Time = 2

[OGL LOG] init_host_sparsity_pattern : 8 ms
[OGL LOG] matrix not stored update host matrix
[OGL LOG] update_host_mtx : 3 ms
[OGL LOG] matrix is not yet sorted, sorting host matrix
[OGL LOG] sort_host_mtx_sparsity_pattern : 6 ms
[OGL LOG] sort_host_mtx : 3 ms
[OGL LOG] init_preconditioner : 0 ms
[OGL LOG] solve : 180 ms
noneompGKOBiCGStab:  Solving for Ux, Initial residual = 0.53934, Final residual = 0.000532505, No Iterations 129
[OGL LOG] init_host_sparsity_pattern : 9 ms
[OGL LOG] matrix not stored update host matrix
[OGL LOG] update_host_mtx : 3 ms
[OGL LOG] matrix is not yet sorted, sorting host matrix
[OGL LOG] sort_host_mtx_sparsity_pattern : 5 ms
[OGL LOG] sort_host_mtx : 3 ms
[OGL LOG] init_preconditioner : 0 ms
[OGL LOG] solve : 158 ms
noneompGKOBiCGStab:  Solving for Uy, Initial residual = 0.713197, Final residual = 0.00068365, No Iterations 115
[OGL LOG] init_host_sparsity_pattern : 8 ms
[OGL LOG] matrix not stored update host matrix
[OGL LOG] update_host_mtx : 4 ms
[OGL LOG] matrix is not yet sorted, sorting host matrix
[OGL LOG] sort_host_mtx_sparsity_pattern : 5 ms
[OGL LOG] sort_host_mtx : 3 ms
[OGL LOG] init_preconditioner : 0 ms
[OGL LOG] solve : 1595 ms
noneompGKOBiCGStab:  Solving for p, Initial residual = 0.388169, Final residual = 0.0064289, No Iterations 1000
time step continuity errors : sum local = 0.000642371, global = -0.000134321, cumulative = -0.000763591
smoothSolver:  Solving for nuTilda, Initial residual = 0.116191, Final residual = 0.00507536, No Iterations 4
ExecutionTime = 229.99 s  ClockTime = 4 s

Time = 3

[OGL LOG] init_host_sparsity_pattern : 8 ms
[OGL LOG] matrix not stored update host matrix
[OGL LOG] update_host_mtx : 3 ms
[OGL LOG] matrix is not yet sorted, sorting host matrix
[OGL LOG] sort_host_mtx_sparsity_pattern : 5 ms
[OGL LOG] sort_host_mtx : 3 ms
[OGL LOG] init_preconditioner : 0 ms
[OGL LOG] solve : 185 ms
noneompGKOBiCGStab:  Solving for Ux, Initial residual = 0.282664, Final residual = 0.0002449, No Iterations 119
[OGL LOG] init_host_sparsity_pattern : 10 ms
[OGL LOG] matrix not stored update host matrix
[OGL LOG] update_host_mtx : 3 ms
[OGL LOG] matrix is not yet sorted, sorting host matrix
[OGL LOG] sort_host_mtx_sparsity_pattern : 5 ms
[OGL LOG] sort_host_mtx : 3 ms
[OGL LOG] init_preconditioner : 0 ms
[OGL LOG] solve : 158 ms
noneompGKOBiCGStab:  Solving for Uy, Initial residual = 0.248979, Final residual = 0.000245832, No Iterations 102
[OGL LOG] init_host_sparsity_pattern : 8 ms
[OGL LOG] matrix not stored update host matrix
[OGL LOG] update_host_mtx : 4 ms
[OGL LOG] matrix is not yet sorted, sorting host matrix
[OGL LOG] sort_host_mtx_sparsity_pattern : 5 ms
[OGL LOG] sort_host_mtx : 3 ms
[OGL LOG] init_preconditioner : 0 ms
[OGL LOG] solve : 1555 ms
noneompGKOBiCGStab:  Solving for p, Initial residual = 0.13683, Final residual = 0.003096, No Iterations 1000
time step continuity errors : sum local = 0.000642793, global = 0.000557383, cumulative = -0.000206208
smoothSolver:  Solving for nuTilda, Initial residual = 0.102546, Final residual = 0.00520888, No Iterations 4
ExecutionTime = 352.53 s  ClockTime = 6 s

Time = 4

[OGL LOG] init_host_sparsity_pattern : 8 ms
[OGL LOG] matrix not stored update host matrix
[OGL LOG] update_host_mtx : 4 ms
[OGL LOG] matrix is not yet sorted, sorting host matrix
[OGL LOG] sort_host_mtx_sparsity_pattern : 5 ms
[OGL LOG] sort_host_mtx : 3 ms
[OGL LOG] init_preconditioner : 0 ms
[OGL LOG] solve : 196 ms
noneompGKOBiCGStab:  Solving for Ux, Initial residual = 0.21531, Final residual = 0.000210573, No Iterations 127
[OGL LOG] init_host_sparsity_pattern : 10 ms
[OGL LOG] matrix not stored update host matrix
[OGL LOG] update_host_mtx : 4 ms
[OGL LOG] matrix is not yet sorted, sorting host matrix
[OGL LOG] sort_host_mtx_sparsity_pattern : 5 ms
[OGL LOG] sort_host_mtx : 3 ms
[OGL LOG] init_preconditioner : 0 ms
[OGL LOG] solve : 162 ms
noneompGKOBiCGStab:  Solving for Uy, Initial residual = 0.215688, Final residual = 0.000215544, No Iterations 105
[OGL LOG] init_host_sparsity_pattern : 8 ms
[OGL LOG] matrix not stored update host matrix
[OGL LOG] update_host_mtx : 4 ms
[OGL LOG] matrix is not yet sorted, sorting host matrix
[OGL LOG] sort_host_mtx_sparsity_pattern : 5 ms
[OGL LOG] sort_host_mtx : 3 ms
[OGL LOG] init_preconditioner : 0 ms
[OGL LOG] solve : 1561 ms
noneompGKOBiCGStab:  Solving for p, Initial residual = 0.107492, Final residual = 0.00391255, No Iterations 1000
time step continuity errors : sum local = 0.00101502, global = 0.000814584, cumulative = 0.000608376
smoothSolver:  Solving for nuTilda, Initial residual = 0.102656, Final residual = 0.00516411, No Iterations 4
ExecutionTime = 476.42 s  ClockTime = 8 s

Time = 5

[OGL LOG] init_host_sparsity_pattern : 8 ms
[OGL LOG] matrix not stored update host matrix
[OGL LOG] update_host_mtx : 3 ms
[OGL LOG] matrix is not yet sorted, sorting host matrix
[OGL LOG] sort_host_mtx_sparsity_pattern : 5 ms
[OGL LOG] sort_host_mtx : 3 ms
[OGL LOG] init_preconditioner : 0 ms
[OGL LOG] solve : 226 ms
noneompGKOBiCGStab:  Solving for Ux, Initial residual = 0.207388, Final residual = 0.000205297, No Iterations 142
[OGL LOG] init_host_sparsity_pattern : 10 ms
[OGL LOG] matrix not stored update host matrix
[OGL LOG] update_host_mtx : 3 ms
[OGL LOG] matrix is not yet sorted, sorting host matrix
[OGL LOG] sort_host_mtx_sparsity_pattern : 5 ms
[OGL LOG] sort_host_mtx : 3 ms
[OGL LOG] init_preconditioner : 0 ms
[OGL LOG] solve : 187 ms
noneompGKOBiCGStab:  Solving for Uy, Initial residual = 0.180211, Final residual = 0.000178911, No Iterations 120
[OGL LOG] init_host_sparsity_pattern : 8 ms
[OGL LOG] matrix not stored update host matrix
[OGL LOG] update_host_mtx : 4 ms
[OGL LOG] matrix is not yet sorted, sorting host matrix
[OGL LOG] sort_host_mtx_sparsity_pattern : 5 ms
[OGL LOG] sort_host_mtx : 3 ms
[OGL LOG] init_preconditioner : 0 ms
[OGL LOG] solve : 1554 ms
noneompGKOBiCGStab:  Solving for p, Initial residual = 0.16285, Final residual = 0.00717338, No Iterations 1000
time step continuity errors : sum local = 0.00120261, global = 0.000624028, cumulative = 0.0012324
smoothSolver:  Solving for nuTilda, Initial residual = 0.0985273, Final residual = 0.00488602, No Iterations 4
ExecutionTime = 603.34 s  ClockTime = 10 s

End

