/*---------------------------------------------------------------------------*\
  =========                 |
  \\      /  F ield         | OpenFOAM: The Open Source CFD Toolbox
   \\    /   O peration     | Website:  https://openfoam.org
    \\  /    A nd           | Version:  8
     \\/     M anipulation  |
\*---------------------------------------------------------------------------*/
Build  : 8-13d66902f78c
Exec   : icoFoam
Date   : Jun 29 2021
Time   : 05:04:27
Host   : "uc2n377.localdomain"
PID    : 2465848
I/O    : uncollated
Case   : /pfs/data5/home/kit/scc/nq7776/code/OGL_DATA/lidDrivenCavity3D/v0.1-119-gd926e8b/f584ccac99/IntelXeonGold6230CPU@2.10GHz/Test_2021-06-29-04:46:24/50/p-BiCGStab-GKO-BJ-omp/lidDrivenCavity3D
nProcs : 1
sigFpe : Enabling floating point exception trapping (FOAM_SIGFPE).
fileModificationChecking : Monitoring run-time modified files using timeStampMaster (fileModificationSkew 10)
allowSystemOperations : Allowing user-supplied system call operations

// * * * * * * * * * * * * * * * * * * * * * * * * * * * * * * * * * * * * * //
Create time

Create mesh for time = 0

Reading transportProperties

Reading field p

Reading field U

Reading/calculating face flux field phi


Starting time loop

Time = 0.002

Courant Number mean: 0 max: 0
nonePBiCGStab:  Solving for Ux, Initial residual = 1, Final residual = 0.0592055, No Iterations 5
nonePBiCGStab:  Solving for Uy, Initial residual = 0, Final residual = 0, No Iterations 0
nonePBiCGStab:  Solving for Uz, Initial residual = 0, Final residual = 0, No Iterations 0
Gingko init_host_sparsity_pattern : 35 ms
 matrix not stored update host matrix 
Gingko update_host_mtx : 18 ms
matrix is not yet sorted, compute sorting idxs 
 compute sorting idxs 860000
Gingko compute_sort : 997 ms
matrix is not yet sorted,  sorting host matrix 
Gingko sort_host_mtx_sparsity_pattern : 24 ms
Gingko sort_host_mtx : 15 ms
Gingko init_preconditioner : 6 ms
Gingko solve : 1388 ms
 copy back
 get iters 
BJompGKOBiCGStab:  Solving for p, Initial residual = 0, Final residual = 9.53558e-07, No Iterations 281
time step continuity errors : sum local = 2.92948e-09, global = -7.52993e-21, cumulative = -7.52993e-21
 found preconditioner 
Gingko init_preconditioner : 0 ms
Gingko solve : 1311 ms
 copy back
 get iters 
BJompGKOBiCGStab:  Solving for p, Initial residual = 1, Final residual = 9.28234e-07, No Iterations 269
time step continuity errors : sum local = 1.05291e-08, global = 2.10194e-20, cumulative = 1.34895e-20
ExecutionTime = 23.4 s  ClockTime = 5 s

Time = 0.004

Courant Number mean: 0.0636233 max: 0.723792
nonePBiCGStab:  Solving for Ux, Initial residual = 0.144135, Final residual = 0.02192, No Iterations 5
nonePBiCGStab:  Solving for Uy, Initial residual = 0.363931, Final residual = 0.052282, No Iterations 5
nonePBiCGStab:  Solving for Uz, Initial residual = 0.97361, Final residual = 0.15892, No Iterations 5
 found preconditioner 
Gingko init_preconditioner : 0 ms
Gingko solve : 1350 ms
 copy back
 get iters 
BJompGKOBiCGStab:  Solving for p, Initial residual = 0.676727, Final residual = 9.12452e-07, No Iterations 273
time step continuity errors : sum local = 1.04633e-08, global = 3.13891e-20, cumulative = 4.48786e-20
 found preconditioner 
Gingko init_preconditioner : 0 ms
Gingko solve : 1235 ms
 copy back
 get iters 
BJompGKOBiCGStab:  Solving for p, Initial residual = 0.668513, Final residual = 8.75685e-07, No Iterations 254
time step continuity errors : sum local = 2.25368e-08, global = -4.07773e-20, cumulative = 4.10128e-21
ExecutionTime = 44.23 s  ClockTime = 8 s

Time = 0.006

Courant Number mean: 0.0972275 max: 0.862514
nonePBiCGStab:  Solving for Ux, Initial residual = 0.0524151, Final residual = 0.00685475, No Iterations 5
nonePBiCGStab:  Solving for Uy, Initial residual = 0.127058, Final residual = 0.0201199, No Iterations 5
nonePBiCGStab:  Solving for Uz, Initial residual = 0.366503, Final residual = 0.0530294, No Iterations 5
 found preconditioner 
Gingko init_preconditioner : 0 ms
Gingko solve : 1251 ms
 copy back
 get iters 
BJompGKOBiCGStab:  Solving for p, Initial residual = 0.584669, Final residual = 8.87649e-07, No Iterations 257
time step continuity errors : sum local = 1.70184e-08, global = 1.37524e-20, cumulative = 1.78537e-20
 found preconditioner 
Gingko init_preconditioner : 0 ms
Gingko solve : 1287 ms
 copy back
 get iters 
BJompGKOBiCGStab:  Solving for p, Initial residual = 0.594548, Final residual = 2.39999e-07, No Iterations 266
time step continuity errors : sum local = 4.76081e-10, global = 2.15981e-20, cumulative = 3.94518e-20
ExecutionTime = 64.68 s  ClockTime = 10 s

Time = 0.008

Courant Number mean: 0.113794 max: 0.88248
nonePBiCGStab:  Solving for Ux, Initial residual = 0.0289582, Final residual = 0.00344503, No Iterations 5
nonePBiCGStab:  Solving for Uy, Initial residual = 0.0844231, Final residual = 0.0109194, No Iterations 5
nonePBiCGStab:  Solving for Uz, Initial residual = 0.2292, Final residual = 0.0298055, No Iterations 5
 found preconditioner 
Gingko init_preconditioner : 0 ms
Gingko solve : 1254 ms
 copy back
 get iters 
BJompGKOBiCGStab:  Solving for p, Initial residual = 0.528706, Final residual = 9.81188e-07, No Iterations 258
time step continuity errors : sum local = 2.13248e-09, global = 7.97416e-21, cumulative = 4.7426e-20
 found preconditioner 
Gingko init_preconditioner : 0 ms
Gingko solve : 1250 ms
 copy back
 get iters 
BJompGKOBiCGStab:  Solving for p, Initial residual = 0.411432, Final residual = 9.47018e-07, No Iterations 258
time step continuity errors : sum local = 2.27924e-09, global = -2.41319e-20, cumulative = 2.32941e-20
ExecutionTime = 84.85 s  ClockTime = 13 s

Time = 0.01

Courant Number mean: 0.127339 max: 0.898877
nonePBiCGStab:  Solving for Ux, Initial residual = 0.0202776, Final residual = 0.00208486, No Iterations 5
nonePBiCGStab:  Solving for Uy, Initial residual = 0.0505578, Final residual = 0.00623594, No Iterations 5
nonePBiCGStab:  Solving for Uz, Initial residual = 0.11289, Final residual = 0.0180733, No Iterations 5
 found preconditioner 
Gingko init_preconditioner : 0 ms
Gingko solve : 1200 ms
 copy back
 get iters 
BJompGKOBiCGStab:  Solving for p, Initial residual = 0.342691, Final residual = 6.70467e-07, No Iterations 247
time step continuity errors : sum local = 3.56771e-08, global = -1.84807e-20, cumulative = 4.81332e-21
 found preconditioner 
Gingko init_preconditioner : 0 ms
Gingko solve : 1104 ms
 copy back
 get iters 
BJompGKOBiCGStab:  Solving for p, Initial residual = 0.354044, Final residual = 9.92867e-07, No Iterations 228
time step continuity errors : sum local = 1.94269e-09, global = -2.10858e-20, cumulative = -1.62725e-20
ExecutionTime = 103.42 s  ClockTime = 15 s

End

