/*---------------------------------------------------------------------------*\
  =========                 |
  \\      /  F ield         | OpenFOAM: The Open Source CFD Toolbox
   \\    /   O peration     | Website:  https://openfoam.org
    \\  /    A nd           | Version:  8
     \\/     M anipulation  |
\*---------------------------------------------------------------------------*/
Build  : 8-13d66902f78c
Exec   : icoFoam
Date   : Jun 29 2021
Time   : 04:19:57
Host   : "uc2n404.localdomain"
PID    : 3014146
I/O    : uncollated
Case   : /pfs/data5/home/kit/scc/nq7776/code/OGL_DATA/lidDrivenCavity3D/v0.1-119-gd926e8b/f584ccac99/IntelXeonGold6230CPU@2.10GHz/Test_2021-06-29-04:07:28/50/p-BiCGStab-GKO-none-omp/lidDrivenCavity3D
nProcs : 1
sigFpe : Enabling floating point exception trapping (FOAM_SIGFPE).
fileModificationChecking : Monitoring run-time modified files using timeStampMaster (fileModificationSkew 10)
allowSystemOperations : Allowing user-supplied system call operations

// * * * * * * * * * * * * * * * * * * * * * * * * * * * * * * * * * * * * * //
Create time

Create mesh for time = 0

Reading transportProperties

Reading field p

Reading field U

Reading/calculating face flux field phi


Starting time loop

Time = 0.002

Courant Number mean: 0 max: 0
nonePBiCGStab:  Solving for Ux, Initial residual = 1, Final residual = 0.0592055, No Iterations 5
nonePBiCGStab:  Solving for Uy, Initial residual = 0, Final residual = 0, No Iterations 0
nonePBiCGStab:  Solving for Uz, Initial residual = 0, Final residual = 0, No Iterations 0
Gingko init_host_sparsity_pattern : 35 ms
 matrix not stored update host matrix 
Gingko update_host_mtx : 18 ms
matrix is not yet sorted, compute sorting idxs 
 compute sorting idxs 860000
Gingko compute_sort : 993 ms
matrix is not yet sorted,  sorting host matrix 
Gingko sort_host_mtx_sparsity_pattern : 24 ms
Gingko sort_host_mtx : 16 ms
Gingko init_preconditioner : 0 ms
 get_precond == NULL
Gingko solve : 1283 ms
 copy back
 get iters 
noneompGKOBiCGStab:  Solving for p, Initial residual = 0, Final residual = 5.67034e-07, No Iterations 354
time step continuity errors : sum local = 5.27309e-08, global = -1.86554e-20, cumulative = -1.86554e-20
Gingko init_preconditioner : 0 ms
 get_precond == NULL
Gingko solve : 1242 ms
 copy back
 get iters 
noneompGKOBiCGStab:  Solving for p, Initial residual = 1, Final residual = 9.05482e-07, No Iterations 335
time step continuity errors : sum local = 1.32592e-07, global = 2.59942e-21, cumulative = -1.6056e-20
ExecutionTime = 11.84 s  ClockTime = 4 s

Time = 0.004

Courant Number mean: 0.0636234 max: 0.723792
nonePBiCGStab:  Solving for Ux, Initial residual = 0.144136, Final residual = 0.0219212, No Iterations 5
nonePBiCGStab:  Solving for Uy, Initial residual = 0.36393, Final residual = 0.0523077, No Iterations 5
nonePBiCGStab:  Solving for Uz, Initial residual = 0.973119, Final residual = 0.159194, No Iterations 5
Gingko init_preconditioner : 0 ms
 get_precond == NULL
Gingko solve : 1299 ms
 copy back
 get iters 
noneompGKOBiCGStab:  Solving for p, Initial residual = 0.676702, Final residual = 1.71129e-07, No Iterations 350
time step continuity errors : sum local = 6.40021e-08, global = 2.28659e-20, cumulative = 6.80992e-21
Gingko init_preconditioner : 0 ms
 get_precond == NULL
Gingko solve : 1287 ms
 copy back
 get iters 
noneompGKOBiCGStab:  Solving for p, Initial residual = 0.668497, Final residual = 8.69226e-07, No Iterations 352
time step continuity errors : sum local = 3.3773e-08, global = 4.90202e-20, cumulative = 5.58301e-20
ExecutionTime = 22.31 s  ClockTime = 7 s

Time = 0.006

Courant Number mean: 0.0972272 max: 0.862514
nonePBiCGStab:  Solving for Ux, Initial residual = 0.0524132, Final residual = 0.0068545, No Iterations 5
nonePBiCGStab:  Solving for Uy, Initial residual = 0.127072, Final residual = 0.0201349, No Iterations 5
nonePBiCGStab:  Solving for Uz, Initial residual = 0.366337, Final residual = 0.0531787, No Iterations 5
Gingko init_preconditioner : 0 ms
 get_precond == NULL
Gingko solve : 1290 ms
 copy back
 get iters 
noneompGKOBiCGStab:  Solving for p, Initial residual = 0.584649, Final residual = 5.18254e-07, No Iterations 353
time step continuity errors : sum local = 2.11298e-07, global = 2.78653e-20, cumulative = 8.36954e-20
Gingko init_preconditioner : 0 ms
 get_precond == NULL
Gingko solve : 1278 ms
 copy back
 get iters 
noneompGKOBiCGStab:  Solving for p, Initial residual = 0.594547, Final residual = 7.6118e-07, No Iterations 349
time step continuity errors : sum local = 2.31885e-08, global = 5.00445e-20, cumulative = 1.3374e-19
ExecutionTime = 32.7 s  ClockTime = 9 s

Time = 0.008

Courant Number mean: 0.113793 max: 0.88248
nonePBiCGStab:  Solving for Ux, Initial residual = 0.0289528, Final residual = 0.0034447, No Iterations 5
nonePBiCGStab:  Solving for Uy, Initial residual = 0.084438, Final residual = 0.0109336, No Iterations 5
nonePBiCGStab:  Solving for Uz, Initial residual = 0.229661, Final residual = 0.0309044, No Iterations 5
Gingko init_preconditioner : 0 ms
 get_precond == NULL
Gingko solve : 1258 ms
 copy back
 get iters 
noneompGKOBiCGStab:  Solving for p, Initial residual = 0.528782, Final residual = 3.50382e-07, No Iterations 342
time step continuity errors : sum local = 1.39267e-08, global = -3.01545e-21, cumulative = 1.30724e-19
Gingko init_preconditioner : 0 ms
 get_precond == NULL
Gingko solve : 652 ms
 copy back
 get iters 
noneompGKOBiCGStab:  Solving for p, Initial residual = 0.411495, Final residual = 7.42806e-07, No Iterations 188
time step continuity errors : sum local = 1.20045e-09, global = 1.74024e-20, cumulative = 1.48127e-19
ExecutionTime = 40.5 s  ClockTime = 11 s

Time = 0.01

Courant Number mean: 0.127338 max: 0.898877
nonePBiCGStab:  Solving for Ux, Initial residual = 0.0202759, Final residual = 0.00208556, No Iterations 5
nonePBiCGStab:  Solving for Uy, Initial residual = 0.050564, Final residual = 0.00624198, No Iterations 5
nonePBiCGStab:  Solving for Uz, Initial residual = 0.113267, Final residual = 0.018031, No Iterations 5
Gingko init_preconditioner : 0 ms
 get_precond == NULL
Gingko solve : 1146 ms
 copy back
 get iters 
noneompGKOBiCGStab:  Solving for p, Initial residual = 0.342731, Final residual = 5.1e-07, No Iterations 328
time step continuity errors : sum local = 2.42243e-07, global = -2.59772e-20, cumulative = 1.2215e-19
Gingko init_preconditioner : 0 ms
 get_precond == NULL
Gingko solve : 1169 ms
 copy back
 get iters 
noneompGKOBiCGStab:  Solving for p, Initial residual = 0.35408, Final residual = 9.91716e-07, No Iterations 337
time step continuity errors : sum local = 6.40468e-09, global = -2.68965e-20, cumulative = 9.52531e-20
ExecutionTime = 49.88 s  ClockTime = 14 s

End

