/*---------------------------------------------------------------------------*\
  =========                 |
  \\      /  F ield         | OpenFOAM: The Open Source CFD Toolbox
   \\    /   O peration     | Website:  https://openfoam.org
    \\  /    A nd           | Version:  8
     \\/     M anipulation  |
\*---------------------------------------------------------------------------*/
Build  : 8-13d66902f78c
Exec   : icoFoam
Date   : Jun 29 2021
Time   : 04:22:17
Host   : "uc2n404.localdomain"
PID    : 3014392
I/O    : uncollated
Case   : /pfs/data5/home/kit/scc/nq7776/code/OGL_DATA/lidDrivenCavity3D/v0.1-119-gd926e8b/f584ccac99/IntelXeonGold6230CPU@2.10GHz/Test_2021-06-29-04:07:28/50/p-BiCGStab-GKO-none-omp/lidDrivenCavity3D
nProcs : 1
sigFpe : Enabling floating point exception trapping (FOAM_SIGFPE).
fileModificationChecking : Monitoring run-time modified files using timeStampMaster (fileModificationSkew 10)
allowSystemOperations : Allowing user-supplied system call operations

// * * * * * * * * * * * * * * * * * * * * * * * * * * * * * * * * * * * * * //
Create time

Create mesh for time = 0

Reading transportProperties

Reading field p

Reading field U

Reading/calculating face flux field phi


Starting time loop

Time = 0.002

Courant Number mean: 0 max: 0
nonePBiCGStab:  Solving for Ux, Initial residual = 1, Final residual = 0.0592055, No Iterations 5
nonePBiCGStab:  Solving for Uy, Initial residual = 0, Final residual = 0, No Iterations 0
nonePBiCGStab:  Solving for Uz, Initial residual = 0, Final residual = 0, No Iterations 0
Gingko init_host_sparsity_pattern : 35 ms
 matrix not stored update host matrix 
Gingko update_host_mtx : 18 ms
matrix is not yet sorted, compute sorting idxs 
 compute sorting idxs 860000
Gingko compute_sort : 990 ms
matrix is not yet sorted,  sorting host matrix 
Gingko sort_host_mtx_sparsity_pattern : 24 ms
Gingko sort_host_mtx : 15 ms
Gingko init_preconditioner : 0 ms
 get_precond == NULL
Gingko solve : 1068 ms
 copy back
 get iters 
noneompGKOBiCGStab:  Solving for p, Initial residual = 0, Final residual = 5.67034e-07, No Iterations 354
time step continuity errors : sum local = 2.7445e-07, global = -1.86612e-20, cumulative = -1.86612e-20
Gingko init_preconditioner : 0 ms
 get_precond == NULL
Gingko solve : 944 ms
 copy back
 get iters 
noneompGKOBiCGStab:  Solving for p, Initial residual = 1, Final residual = 6.78168e-07, No Iterations 352
time step continuity errors : sum local = 3.15179e-08, global = 3.86269e-21, cumulative = -1.47985e-20
ExecutionTime = 34.03 s  ClockTime = 4 s

Time = 0.004

Courant Number mean: 0.0636233 max: 0.723792
nonePBiCGStab:  Solving for Ux, Initial residual = 0.144131, Final residual = 0.0219187, No Iterations 5
nonePBiCGStab:  Solving for Uy, Initial residual = 0.363932, Final residual = 0.0523369, No Iterations 5
nonePBiCGStab:  Solving for Uz, Initial residual = 0.973417, Final residual = 0.1591, No Iterations 5
Gingko init_preconditioner : 0 ms
 get_precond == NULL
Gingko solve : 909 ms
 copy back
 get iters 
noneompGKOBiCGStab:  Solving for p, Initial residual = 0.676724, Final residual = 8.09942e-07, No Iterations 351
time step continuity errors : sum local = 1.04483e-08, global = -1.90518e-20, cumulative = -3.38503e-20
Gingko init_preconditioner : 0 ms
 get_precond == NULL
Gingko solve : 927 ms
 copy back
 get iters 
noneompGKOBiCGStab:  Solving for p, Initial residual = 0.668452, Final residual = 8.87121e-07, No Iterations 353
time step continuity errors : sum local = 6.21946e-08, global = 1.15635e-21, cumulative = -3.26939e-20
ExecutionTime = 63.59 s  ClockTime = 6 s

Time = 0.006

Courant Number mean: 0.0972238 max: 0.862508
nonePBiCGStab:  Solving for Ux, Initial residual = 0.0524129, Final residual = 0.00685479, No Iterations 5
nonePBiCGStab:  Solving for Uy, Initial residual = 0.127069, Final residual = 0.0201374, No Iterations 5
nonePBiCGStab:  Solving for Uz, Initial residual = 0.366504, Final residual = 0.0532547, No Iterations 5
Gingko init_preconditioner : 0 ms
 get_precond == NULL
Gingko solve : 913 ms
 copy back
 get iters 
noneompGKOBiCGStab:  Solving for p, Initial residual = 0.584575, Final residual = 8.28009e-07, No Iterations 351
time step continuity errors : sum local = 2.67409e-08, global = -1.20076e-21, cumulative = -3.38947e-20
Gingko init_preconditioner : 0 ms
 get_precond == NULL
Gingko solve : 861 ms
 copy back
 get iters 
noneompGKOBiCGStab:  Solving for p, Initial residual = 0.594475, Final residual = 4.95044e-07, No Iterations 333
time step continuity errors : sum local = 1.29048e-09, global = 1.4297e-20, cumulative = -1.95977e-20
ExecutionTime = 92.17 s  ClockTime = 8 s

Time = 0.008

Courant Number mean: 0.11379 max: 0.882477
nonePBiCGStab:  Solving for Ux, Initial residual = 0.0289578, Final residual = 0.00344464, No Iterations 5
nonePBiCGStab:  Solving for Uy, Initial residual = 0.0844292, Final residual = 0.010879, No Iterations 5
nonePBiCGStab:  Solving for Uz, Initial residual = 0.22933, Final residual = 0.0300674, No Iterations 5
Gingko init_preconditioner : 0 ms
 get_precond == NULL
Gingko solve : 905 ms
 copy back
 get iters 
noneompGKOBiCGStab:  Solving for p, Initial residual = 0.528674, Final residual = 6.04886e-07, No Iterations 350
time step continuity errors : sum local = 5.32109e-08, global = 2.68702e-20, cumulative = 7.27251e-21
Gingko init_preconditioner : 0 ms
 get_precond == NULL
Gingko solve : 926 ms
 copy back
 get iters 
noneompGKOBiCGStab:  Solving for p, Initial residual = 0.411305, Final residual = 8.88073e-07, No Iterations 357
time step continuity errors : sum local = 8.53858e-09, global = -5.00692e-20, cumulative = -4.27967e-20
ExecutionTime = 121.66 s  ClockTime = 10 s

Time = 0.01

Courant Number mean: 0.127337 max: 0.898878
nonePBiCGStab:  Solving for Ux, Initial residual = 0.0202767, Final residual = 0.0020849, No Iterations 5
nonePBiCGStab:  Solving for Uy, Initial residual = 0.0505534, Final residual = 0.00622923, No Iterations 5
nonePBiCGStab:  Solving for Uz, Initial residual = 0.112977, Final residual = 0.0182084, No Iterations 5
Gingko init_preconditioner : 0 ms
 get_precond == NULL
Gingko solve : 891 ms
 copy back
 get iters 
noneompGKOBiCGStab:  Solving for p, Initial residual = 0.342574, Final residual = 9.22206e-07, No Iterations 333
time step continuity errors : sum local = 1.63236e-08, global = 3.1829e-21, cumulative = -3.96138e-20
Gingko init_preconditioner : 0 ms
 get_precond == NULL
Gingko solve : 897 ms
 copy back
 get iters 
noneompGKOBiCGStab:  Solving for p, Initial residual = 0.354013, Final residual = 9.98632e-07, No Iterations 348
time step continuity errors : sum local = 2.94026e-09, global = -2.09931e-20, cumulative = -6.06069e-20
ExecutionTime = 150.47 s  ClockTime = 12 s

End

