/*---------------------------------------------------------------------------*\
  =========                 |
  \\      /  F ield         | OpenFOAM: The Open Source CFD Toolbox
   \\    /   O peration     | Website:  https://openfoam.org
    \\  /    A nd           | Version:  8
     \\/     M anipulation  |
\*---------------------------------------------------------------------------*/
Build  : 8-13d66902f78c
Exec   : icoFoam
Date   : Jun 29 2021
Time   : 05:07:54
Host   : "uc2n377.localdomain"
PID    : 2466330
I/O    : uncollated
Case   : /pfs/data5/home/kit/scc/nq7776/code/OGL_DATA/lidDrivenCavity3D/v0.1-119-gd926e8b/f584ccac99/IntelXeonGold6230CPU@2.10GHz/Test_2021-06-29-04:46:24/50/p-BiCGStab-GKO-BJ-omp/lidDrivenCavity3D
nProcs : 1
sigFpe : Enabling floating point exception trapping (FOAM_SIGFPE).
fileModificationChecking : Monitoring run-time modified files using timeStampMaster (fileModificationSkew 10)
allowSystemOperations : Allowing user-supplied system call operations

// * * * * * * * * * * * * * * * * * * * * * * * * * * * * * * * * * * * * * //
Create time

Create mesh for time = 0

Reading transportProperties

Reading field p

Reading field U

Reading/calculating face flux field phi


Starting time loop

Time = 0.002

Courant Number mean: 0 max: 0
nonePBiCGStab:  Solving for Ux, Initial residual = 1, Final residual = 0.0592055, No Iterations 5
nonePBiCGStab:  Solving for Uy, Initial residual = 0, Final residual = 0, No Iterations 0
nonePBiCGStab:  Solving for Uz, Initial residual = 0, Final residual = 0, No Iterations 0
Gingko init_host_sparsity_pattern : 36 ms
 matrix not stored update host matrix 
Gingko update_host_mtx : 18 ms
matrix is not yet sorted, compute sorting idxs 
 compute sorting idxs 860000
Gingko compute_sort : 991 ms
matrix is not yet sorted,  sorting host matrix 
Gingko sort_host_mtx_sparsity_pattern : 23 ms
Gingko sort_host_mtx : 15 ms
Gingko init_preconditioner : 8 ms
Gingko solve : 1225 ms
 copy back
 get iters 
BJompGKOBiCGStab:  Solving for p, Initial residual = 0, Final residual = 9.53558e-07, No Iterations 281
time step continuity errors : sum local = 6.60951e-09, global = -7.52993e-21, cumulative = -7.52993e-21
 found preconditioner 
Gingko init_preconditioner : 0 ms
Gingko solve : 1130 ms
 copy back
 get iters 
BJompGKOBiCGStab:  Solving for p, Initial residual = 1, Final residual = 9.25922e-07, No Iterations 270
time step continuity errors : sum local = 6.08316e-09, global = 8.73106e-21, cumulative = 1.20113e-21
ExecutionTime = 153.58 s  ClockTime = 5 s

Time = 0.004

Courant Number mean: 0.0636233 max: 0.723792
nonePBiCGStab:  Solving for Ux, Initial residual = 0.144135, Final residual = 0.0219201, No Iterations 5
nonePBiCGStab:  Solving for Uy, Initial residual = 0.363931, Final residual = 0.0522817, No Iterations 5
nonePBiCGStab:  Solving for Uz, Initial residual = 0.973617, Final residual = 0.158923, No Iterations 5
 found preconditioner 
Gingko init_preconditioner : 0 ms
Gingko solve : 1115 ms
 copy back
 get iters 
BJompGKOBiCGStab:  Solving for p, Initial residual = 0.676727, Final residual = 7.83743e-07, No Iterations 265
time step continuity errors : sum local = 1.72601e-08, global = 1.14492e-20, cumulative = 1.26503e-20
 found preconditioner 
Gingko init_preconditioner : 0 ms
Gingko solve : 1099 ms
 copy back
 get iters 
BJompGKOBiCGStab:  Solving for p, Initial residual = 0.668513, Final residual = 9.12846e-07, No Iterations 259
time step continuity errors : sum local = 1.52223e-08, global = -2.77216e-20, cumulative = -1.50712e-20
ExecutionTime = 295.59 s  ClockTime = 7 s

Time = 0.006

Courant Number mean: 0.0972275 max: 0.862514
nonePBiCGStab:  Solving for Ux, Initial residual = 0.0524166, Final residual = 0.00685506, No Iterations 5
nonePBiCGStab:  Solving for Uy, Initial residual = 0.127053, Final residual = 0.0201189, No Iterations 5
nonePBiCGStab:  Solving for Uz, Initial residual = 0.366629, Final residual = 0.0530617, No Iterations 5
 found preconditioner 
Gingko init_preconditioner : 0 ms
Gingko solve : 1159 ms
 copy back
 get iters 
BJompGKOBiCGStab:  Solving for p, Initial residual = 0.584666, Final residual = 8.64509e-07, No Iterations 277
time step continuity errors : sum local = 9.28895e-09, global = -2.17821e-21, cumulative = -1.72494e-20
 found preconditioner 
Gingko init_preconditioner : 0 ms
Gingko solve : 1081 ms
 copy back
 get iters 
BJompGKOBiCGStab:  Solving for p, Initial residual = 0.594544, Final residual = 9.43275e-07, No Iterations 257
time step continuity errors : sum local = 9.27507e-09, global = -4.86132e-20, cumulative = -6.58627e-20
ExecutionTime = 439.2 s  ClockTime = 9 s

Time = 0.008

Courant Number mean: 0.113794 max: 0.88248
nonePBiCGStab:  Solving for Ux, Initial residual = 0.0289583, Final residual = 0.00344495, No Iterations 5
nonePBiCGStab:  Solving for Uy, Initial residual = 0.0844229, Final residual = 0.0109194, No Iterations 5
nonePBiCGStab:  Solving for Uz, Initial residual = 0.229146, Final residual = 0.0297729, No Iterations 5
 found preconditioner 
Gingko init_preconditioner : 0 ms
Gingko solve : 1054 ms
 copy back
 get iters 
BJompGKOBiCGStab:  Solving for p, Initial residual = 0.528702, Final residual = 9.95215e-07, No Iterations 251
time step continuity errors : sum local = 3.76292e-09, global = 8.29504e-21, cumulative = -5.75676e-20
 found preconditioner 
Gingko init_preconditioner : 0 ms
Gingko solve : 1104 ms
 copy back
 get iters 
BJompGKOBiCGStab:  Solving for p, Initial residual = 0.411431, Final residual = 8.23332e-07, No Iterations 262
time step continuity errors : sum local = 2.39361e-09, global = 2.28023e-20, cumulative = -3.47653e-20
ExecutionTime = 577.59 s  ClockTime = 12 s

Time = 0.01

Courant Number mean: 0.127339 max: 0.898877
nonePBiCGStab:  Solving for Ux, Initial residual = 0.0202776, Final residual = 0.00208487, No Iterations 5
nonePBiCGStab:  Solving for Uy, Initial residual = 0.0505577, Final residual = 0.00623592, No Iterations 5
nonePBiCGStab:  Solving for Uz, Initial residual = 0.112887, Final residual = 0.0180693, No Iterations 5
 found preconditioner 
Gingko init_preconditioner : 0 ms
Gingko solve : 1090 ms
 copy back
 get iters 
BJompGKOBiCGStab:  Solving for p, Initial residual = 0.342689, Final residual = 9.06508e-07, No Iterations 255
time step continuity errors : sum local = 8.19174e-08, global = -1.35587e-20, cumulative = -4.8324e-20
 found preconditioner 
Gingko init_preconditioner : 0 ms
Gingko solve : 926 ms
 copy back
 get iters 
BJompGKOBiCGStab:  Solving for p, Initial residual = 0.354046, Final residual = 8.8767e-07, No Iterations 221
time step continuity errors : sum local = 5.52526e-07, global = -3.54914e-20, cumulative = -8.38154e-20
ExecutionTime = 706.93 s  ClockTime = 14 s

End

