/*---------------------------------------------------------------------------*\
  =========                 |
  \\      /  F ield         | OpenFOAM: The Open Source CFD Toolbox
   \\    /   O peration     | Website:  https://openfoam.org
    \\  /    A nd           | Version:  8
     \\/     M anipulation  |
\*---------------------------------------------------------------------------*/
Build  : 8-13d66902f78c
Exec   : icoFoam
Date   : Jun 29 2021
Time   : 04:18:14
Host   : "uc2n404.localdomain"
PID    : 3014048
I/O    : uncollated
Case   : /pfs/data5/home/kit/scc/nq7776/code/OGL_DATA/lidDrivenCavity3D/v0.1-119-gd926e8b/f584ccac99/IntelXeonGold6230CPU@2.10GHz/Test_2021-06-29-04:07:28/50/p-BiCGStab-GKO-none-omp/lidDrivenCavity3D
nProcs : 1
sigFpe : Enabling floating point exception trapping (FOAM_SIGFPE).
fileModificationChecking : Monitoring run-time modified files using timeStampMaster (fileModificationSkew 10)
allowSystemOperations : Allowing user-supplied system call operations

// * * * * * * * * * * * * * * * * * * * * * * * * * * * * * * * * * * * * * //
Create time

Create mesh for time = 0

Reading transportProperties

Reading field p

Reading field U

Reading/calculating face flux field phi


Starting time loop

Time = 0.002

Courant Number mean: 0 max: 0
nonePBiCGStab:  Solving for Ux, Initial residual = 1, Final residual = 0.0592055, No Iterations 5
nonePBiCGStab:  Solving for Uy, Initial residual = 0, Final residual = 0, No Iterations 0
nonePBiCGStab:  Solving for Uz, Initial residual = 0, Final residual = 0, No Iterations 0
Gingko init_host_sparsity_pattern : 35 ms
 matrix not stored update host matrix 
Gingko update_host_mtx : 18 ms
matrix is not yet sorted, compute sorting idxs 
 compute sorting idxs 860000
Gingko compute_sort : 993 ms
matrix is not yet sorted,  sorting host matrix 
Gingko sort_host_mtx_sparsity_pattern : 24 ms
Gingko sort_host_mtx : 15 ms
Gingko init_preconditioner : 0 ms
 get_precond == NULL
Gingko solve : 1716 ms
 copy back
 get iters 
noneompGKOBiCGStab:  Solving for p, Initial residual = 0, Final residual = 5.67034e-07, No Iterations 354
time step continuity errors : sum local = 5.27309e-08, global = -1.86554e-20, cumulative = -1.86554e-20
Gingko init_preconditioner : 0 ms
 get_precond == NULL
Gingko solve : 1573 ms
 copy back
 get iters 
noneompGKOBiCGStab:  Solving for p, Initial residual = 1, Final residual = 9.05482e-07, No Iterations 335
time step continuity errors : sum local = 1.32592e-07, global = 2.59942e-21, cumulative = -1.6056e-20
ExecutionTime = 8.33 s  ClockTime = 6 s

Time = 0.004

Courant Number mean: 0.0636234 max: 0.723792
nonePBiCGStab:  Solving for Ux, Initial residual = 0.144136, Final residual = 0.0219212, No Iterations 5
nonePBiCGStab:  Solving for Uy, Initial residual = 0.36393, Final residual = 0.0523077, No Iterations 5
nonePBiCGStab:  Solving for Uz, Initial residual = 0.973119, Final residual = 0.159194, No Iterations 5
Gingko init_preconditioner : 0 ms
 get_precond == NULL
Gingko solve : 1626 ms
 copy back
 get iters 
noneompGKOBiCGStab:  Solving for p, Initial residual = 0.676702, Final residual = 1.71129e-07, No Iterations 350
time step continuity errors : sum local = 4.81531e-08, global = 2.28717e-20, cumulative = 6.81571e-21
Gingko init_preconditioner : 0 ms
 get_precond == NULL
Gingko solve : 1627 ms
 copy back
 get iters 
noneompGKOBiCGStab:  Solving for p, Initial residual = 0.668497, Final residual = 9.48855e-07, No Iterations 349
time step continuity errors : sum local = 8.68341e-09, global = 4.11447e-20, cumulative = 4.79604e-20
ExecutionTime = 14.96 s  ClockTime = 9 s

Time = 0.006

Courant Number mean: 0.0972272 max: 0.862514
nonePBiCGStab:  Solving for Ux, Initial residual = 0.0524138, Final residual = 0.00685424, No Iterations 5
nonePBiCGStab:  Solving for Uy, Initial residual = 0.127072, Final residual = 0.0201319, No Iterations 5
nonePBiCGStab:  Solving for Uz, Initial residual = 0.36636, Final residual = 0.0531297, No Iterations 5
Gingko init_preconditioner : 0 ms
 get_precond == NULL
Gingko solve : 1628 ms
 copy back
 get iters 
noneompGKOBiCGStab:  Solving for p, Initial residual = 0.584658, Final residual = 9.31978e-07, No Iterations 350
time step continuity errors : sum local = 7.0606e-09, global = -4.4801e-21, cumulative = 4.34803e-20
Gingko init_preconditioner : 0 ms
 get_precond == NULL
Gingko solve : 1605 ms
 copy back
 get iters 
noneompGKOBiCGStab:  Solving for p, Initial residual = 0.594554, Final residual = 7.90363e-07, No Iterations 343
time step continuity errors : sum local = 7.63005e-08, global = 5.61942e-21, cumulative = 4.90997e-20
ExecutionTime = 21.56 s  ClockTime = 12 s

Time = 0.008

Courant Number mean: 0.113793 max: 0.88248
nonePBiCGStab:  Solving for Ux, Initial residual = 0.0289515, Final residual = 0.00344424, No Iterations 5
nonePBiCGStab:  Solving for Uy, Initial residual = 0.0844391, Final residual = 0.0109227, No Iterations 5
nonePBiCGStab:  Solving for Uz, Initial residual = 0.229688, Final residual = 0.030114, No Iterations 5
Gingko init_preconditioner : 0 ms
 get_precond == NULL
Gingko solve : 1717 ms
 copy back
 get iters 
noneompGKOBiCGStab:  Solving for p, Initial residual = 0.528727, Final residual = 9.59477e-07, No Iterations 363
time step continuity errors : sum local = 2.10849e-08, global = 2.15728e-20, cumulative = 7.06725e-20
Gingko init_preconditioner : 0 ms
 get_precond == NULL
Gingko solve : 1633 ms
 copy back
 get iters 
noneompGKOBiCGStab:  Solving for p, Initial residual = 0.411486, Final residual = 7.06904e-07, No Iterations 349
time step continuity errors : sum local = 2.45032e-08, global = 2.77119e-21, cumulative = 7.34437e-20
ExecutionTime = 28.38 s  ClockTime = 16 s

Time = 0.01

Courant Number mean: 0.127339 max: 0.898877
nonePBiCGStab:  Solving for Ux, Initial residual = 0.0202777, Final residual = 0.00208527, No Iterations 5
nonePBiCGStab:  Solving for Uy, Initial residual = 0.0505563, Final residual = 0.00623895, No Iterations 5
nonePBiCGStab:  Solving for Uz, Initial residual = 0.113264, Final residual = 0.0181436, No Iterations 5
Gingko init_preconditioner : 0 ms
 get_precond == NULL
Gingko solve : 1446 ms
 copy back
 get iters 
noneompGKOBiCGStab:  Solving for p, Initial residual = 0.342705, Final residual = 8.9236e-07, No Iterations 307
time step continuity errors : sum local = 1.08229e-07, global = 1.69768e-20, cumulative = 9.04205e-20
Gingko init_preconditioner : 0 ms
 get_precond == NULL
Gingko solve : 1523 ms
 copy back
 get iters 
noneompGKOBiCGStab:  Solving for p, Initial residual = 0.354066, Final residual = 4.23969e-07, No Iterations 324
time step continuity errors : sum local = 2.3081e-08, global = 8.10776e-20, cumulative = 1.71498e-19
ExecutionTime = 34.44 s  ClockTime = 19 s

End

