/*---------------------------------------------------------------------------*\
  =========                 |
  \\      /  F ield         | OpenFOAM: The Open Source CFD Toolbox
   \\    /   O peration     | Website:  https://openfoam.org
    \\  /    A nd           | Version:  8
     \\/     M anipulation  |
\*---------------------------------------------------------------------------*/
Build  : 8-13d66902f78c
Exec   : icoFoam
Date   : Jun 29 2021
Time   : 04:24:36
Host   : "uc2n404.localdomain"
PID    : 3014766
I/O    : uncollated
Case   : /pfs/data5/home/kit/scc/nq7776/code/OGL_DATA/lidDrivenCavity3D/v0.1-119-gd926e8b/f584ccac99/IntelXeonGold6230CPU@2.10GHz/Test_2021-06-29-04:07:28/50/p-BiCGStab-GKO-none-omp/lidDrivenCavity3D
nProcs : 1
sigFpe : Enabling floating point exception trapping (FOAM_SIGFPE).
fileModificationChecking : Monitoring run-time modified files using timeStampMaster (fileModificationSkew 10)
allowSystemOperations : Allowing user-supplied system call operations

// * * * * * * * * * * * * * * * * * * * * * * * * * * * * * * * * * * * * * //
Create time

Create mesh for time = 0

Reading transportProperties

Reading field p

Reading field U

Reading/calculating face flux field phi


Starting time loop

Time = 0.002

Courant Number mean: 0 max: 0
nonePBiCGStab:  Solving for Ux, Initial residual = 1, Final residual = 0.0592055, No Iterations 5
nonePBiCGStab:  Solving for Uy, Initial residual = 0, Final residual = 0, No Iterations 0
nonePBiCGStab:  Solving for Uz, Initial residual = 0, Final residual = 0, No Iterations 0
Gingko init_host_sparsity_pattern : 35 ms
 matrix not stored update host matrix 
Gingko update_host_mtx : 18 ms
matrix is not yet sorted, compute sorting idxs 
 compute sorting idxs 860000
Gingko compute_sort : 996 ms
matrix is not yet sorted,  sorting host matrix 
Gingko sort_host_mtx_sparsity_pattern : 24 ms
Gingko sort_host_mtx : 15 ms
Gingko init_preconditioner : 0 ms
 get_precond == NULL
Gingko solve : 1184 ms
 copy back
 get iters 
noneompGKOBiCGStab:  Solving for p, Initial residual = 0, Final residual = 5.67034e-07, No Iterations 354
time step continuity errors : sum local = 2.46818e-07, global = -1.86537e-20, cumulative = -1.86537e-20
Gingko init_preconditioner : 0 ms
 get_precond == NULL
Gingko solve : 1223 ms
 copy back
 get iters 
noneompGKOBiCGStab:  Solving for p, Initial residual = 1, Final residual = 7.11727e-07, No Iterations 349
time step continuity errors : sum local = 4.99704e-08, global = -4.21035e-22, cumulative = -1.90748e-20
ExecutionTime = 156.65 s  ClockTime = 4 s

Time = 0.004

Courant Number mean: 0.0636233 max: 0.723792
nonePBiCGStab:  Solving for Ux, Initial residual = 0.144131, Final residual = 0.0219187, No Iterations 5
nonePBiCGStab:  Solving for Uy, Initial residual = 0.363932, Final residual = 0.0523269, No Iterations 5
nonePBiCGStab:  Solving for Uz, Initial residual = 0.973326, Final residual = 0.159489, No Iterations 5
Gingko init_preconditioner : 0 ms
 get_precond == NULL
Gingko solve : 1222 ms
 copy back
 get iters 
noneompGKOBiCGStab:  Solving for p, Initial residual = 0.676723, Final residual = 7.83968e-07, No Iterations 352
time step continuity errors : sum local = 1.66617e-07, global = 4.1652e-20, cumulative = 2.25772e-20
Gingko init_preconditioner : 0 ms
 get_precond == NULL
Gingko solve : 1186 ms
 copy back
 get iters 
noneompGKOBiCGStab:  Solving for p, Initial residual = 0.668449, Final residual = 5.68629e-07, No Iterations 338
time step continuity errors : sum local = 2.53831e-09, global = 4.47834e-21, cumulative = 2.70555e-20
ExecutionTime = 311 s  ClockTime = 6 s

Time = 0.006

Courant Number mean: 0.0972239 max: 0.862508
nonePBiCGStab:  Solving for Ux, Initial residual = 0.0524157, Final residual = 0.0068554, No Iterations 5
nonePBiCGStab:  Solving for Uy, Initial residual = 0.127059, Final residual = 0.0201337, No Iterations 5
nonePBiCGStab:  Solving for Uz, Initial residual = 0.36726, Final residual = 0.0536148, No Iterations 5
Gingko init_preconditioner : 0 ms
 get_precond == NULL
Gingko solve : 1201 ms
 copy back
 get iters 
noneompGKOBiCGStab:  Solving for p, Initial residual = 0.584589, Final residual = 9.17453e-07, No Iterations 347
time step continuity errors : sum local = 3.48988e-08, global = -2.33843e-20, cumulative = 3.67123e-21
Gingko init_preconditioner : 0 ms
 get_precond == NULL
Gingko solve : 1220 ms
 copy back
 get iters 
noneompGKOBiCGStab:  Solving for p, Initial residual = 0.594475, Final residual = 9.84999e-07, No Iterations 353
time step continuity errors : sum local = 4.98619e-08, global = -3.72415e-21, cumulative = -5.29266e-23
ExecutionTime = 466.3 s  ClockTime = 9 s

Time = 0.008

Courant Number mean: 0.11379 max: 0.882478
nonePBiCGStab:  Solving for Ux, Initial residual = 0.0289569, Final residual = 0.00344428, No Iterations 5
nonePBiCGStab:  Solving for Uy, Initial residual = 0.0844319, Final residual = 0.0108792, No Iterations 5
nonePBiCGStab:  Solving for Uz, Initial residual = 0.229592, Final residual = 0.0300909, No Iterations 5
Gingko init_preconditioner : 0 ms
 get_precond == NULL
Gingko solve : 1233 ms
 copy back
 get iters 
noneompGKOBiCGStab:  Solving for p, Initial residual = 0.528675, Final residual = 9.631e-07, No Iterations 357
time step continuity errors : sum local = 1.33953e-08, global = -3.36671e-20, cumulative = -3.372e-20
Gingko init_preconditioner : 0 ms
 get_precond == NULL
Gingko solve : 746 ms
 copy back
 get iters 
noneompGKOBiCGStab:  Solving for p, Initial residual = 0.411324, Final residual = 7.79392e-07, No Iterations 216
time step continuity errors : sum local = 1.90209e-09, global = 6.79364e-21, cumulative = -2.69264e-20
ExecutionTime = 593.36 s  ClockTime = 11 s

Time = 0.01

Courant Number mean: 0.127337 max: 0.898878
nonePBiCGStab:  Solving for Ux, Initial residual = 0.0202776, Final residual = 0.00208471, No Iterations 5
nonePBiCGStab:  Solving for Uy, Initial residual = 0.0505486, Final residual = 0.00622485, No Iterations 5
nonePBiCGStab:  Solving for Uz, Initial residual = 0.11311, Final residual = 0.0181408, No Iterations 5
Gingko init_preconditioner : 0 ms
 get_precond == NULL
Gingko solve : 1169 ms
 copy back
 get iters 
noneompGKOBiCGStab:  Solving for p, Initial residual = 0.342571, Final residual = 9.99724e-07, No Iterations 331
time step continuity errors : sum local = 2.52587e-09, global = 1.27813e-21, cumulative = -2.56482e-20
Gingko init_preconditioner : 0 ms
 get_precond == NULL
Gingko solve : 1147 ms
 copy back
 get iters 
noneompGKOBiCGStab:  Solving for p, Initial residual = 0.353992, Final residual = 9.91345e-07, No Iterations 336
time step continuity errors : sum local = 1.26887e-08, global = -2.29771e-20, cumulative = -4.86253e-20
ExecutionTime = 741.86 s  ClockTime = 13 s

End

