/*---------------------------------------------------------------------------*\
  =========                 |
  \\      /  F ield         | OpenFOAM: The Open Source CFD Toolbox
   \\    /   O peration     | Website:  https://openfoam.org
    \\  /    A nd           | Version:  8
     \\/     M anipulation  |
\*---------------------------------------------------------------------------*/
Build  : 8-13d66902f78c
Exec   : icoFoam
Date   : Jun 29 2021
Time   : 04:46:15
Host   : "uc2n446.localdomain"
PID    : 4049736
I/O    : uncollated
Case   : /pfs/data5/home/kit/scc/nq7776/code/OGL_DATA/lidDrivenCavity3D/v0.1-119-gd926e8b/f584ccac99/IntelXeonGold6230CPU@2.10GHz/Test_2021-06-29-04:31:13/50/p-CG-GKO-BJ-omp/lidDrivenCavity3D
nProcs : 1
sigFpe : Enabling floating point exception trapping (FOAM_SIGFPE).
fileModificationChecking : Monitoring run-time modified files using timeStampMaster (fileModificationSkew 10)
allowSystemOperations : Allowing user-supplied system call operations

// * * * * * * * * * * * * * * * * * * * * * * * * * * * * * * * * * * * * * //
Create time

Create mesh for time = 0

Reading transportProperties

Reading field p

Reading field U

Reading/calculating face flux field phi


Starting time loop

Time = 0.002

Courant Number mean: 0 max: 0
nonePBiCGStab:  Solving for Ux, Initial residual = 1, Final residual = 0.0592055, No Iterations 5
nonePBiCGStab:  Solving for Uy, Initial residual = 0, Final residual = 0, No Iterations 0
nonePBiCGStab:  Solving for Uz, Initial residual = 0, Final residual = 0, No Iterations 0
Gingko init_host_sparsity_pattern : 36 ms
 matrix not stored update host matrix 
Gingko update_host_mtx : 19 ms
matrix is not yet sorted, compute sorting idxs 
 compute sorting idxs 860000
Gingko compute_sort : 993 ms
matrix is not yet sorted,  sorting host matrix 
Gingko sort_host_mtx_sparsity_pattern : 24 ms
Gingko sort_host_mtx : 15 ms
Gingko init_preconditioner : 5 ms
 CG create  precond 
Gingko solve : 1031 ms
 copy back
 get iters 
BJompGKOCG:  Solving for p, Initial residual = 0, Final residual = 9.56095e-07, No Iterations 406
time step continuity errors : sum local = 1.22656e-09, global = -2.08336e-20, cumulative = -2.08336e-20
 found preconditioner 
Gingko init_preconditioner : 0 ms
 CG create  precond 
Gingko solve : 978 ms
 copy back
 get iters 
BJompGKOCG:  Solving for p, Initial residual = 1, Final residual = 9.73457e-07, No Iterations 384
time step continuity errors : sum local = 1.76587e-09, global = 9.19106e-21, cumulative = -1.16425e-20
ExecutionTime = 17.88 s  ClockTime = 4 s

Time = 0.004

Courant Number mean: 0.0636233 max: 0.723792
nonePBiCGStab:  Solving for Ux, Initial residual = 0.144136, Final residual = 0.0219208, No Iterations 5
nonePBiCGStab:  Solving for Uy, Initial residual = 0.363931, Final residual = 0.0522819, No Iterations 5
nonePBiCGStab:  Solving for Uz, Initial residual = 0.973677, Final residual = 0.158944, No Iterations 5
 found preconditioner 
Gingko init_preconditioner : 0 ms
 CG create  precond 
Gingko solve : 983 ms
 copy back
 get iters 
BJompGKOCG:  Solving for p, Initial residual = 0.67673, Final residual = 9.74068e-07, No Iterations 392
time step continuity errors : sum local = 2.23017e-09, global = -1.97534e-20, cumulative = -3.13959e-20
 found preconditioner 
Gingko init_preconditioner : 0 ms
 CG create  precond 
Gingko solve : 948 ms
 copy back
 get iters 
BJompGKOCG:  Solving for p, Initial residual = 0.668508, Final residual = 9.84197e-07, No Iterations 379
time step continuity errors : sum local = 2.3109e-09, global = -2.00609e-20, cumulative = -5.14568e-20
ExecutionTime = 33.5 s  ClockTime = 6 s

Time = 0.006

Courant Number mean: 0.0972275 max: 0.862515
nonePBiCGStab:  Solving for Ux, Initial residual = 0.0524189, Final residual = 0.00685535, No Iterations 5
nonePBiCGStab:  Solving for Uy, Initial residual = 0.127046, Final residual = 0.0201182, No Iterations 5
nonePBiCGStab:  Solving for Uz, Initial residual = 0.366752, Final residual = 0.0530699, No Iterations 5
 found preconditioner 
Gingko init_preconditioner : 0 ms
 CG create  precond 
Gingko solve : 904 ms
 copy back
 get iters 
BJompGKOCG:  Solving for p, Initial residual = 0.584656, Final residual = 9.6713e-07, No Iterations 367
time step continuity errors : sum local = 1.5403e-09, global = -2.55939e-20, cumulative = -7.70507e-20
 found preconditioner 
Gingko init_preconditioner : 0 ms
 CG create  precond 
Gingko solve : 904 ms
 copy back
 get iters 
BJompGKOCG:  Solving for p, Initial residual = 0.594544, Final residual = 9.3266e-07, No Iterations 366
time step continuity errors : sum local = 1.43684e-09, global = -2.99214e-21, cumulative = -8.00429e-20
ExecutionTime = 48.12 s  ClockTime = 8 s

Time = 0.008

Courant Number mean: 0.113794 max: 0.88248
nonePBiCGStab:  Solving for Ux, Initial residual = 0.0289573, Final residual = 0.00344464, No Iterations 5
nonePBiCGStab:  Solving for Uy, Initial residual = 0.0844254, Final residual = 0.0109195, No Iterations 5
nonePBiCGStab:  Solving for Uz, Initial residual = 0.22919, Final residual = 0.0297659, No Iterations 5
 found preconditioner 
Gingko init_preconditioner : 0 ms
 CG create  precond 
Gingko solve : 902 ms
 copy back
 get iters 
BJompGKOCG:  Solving for p, Initial residual = 0.528702, Final residual = 9.87327e-07, No Iterations 365
time step continuity errors : sum local = 1.50468e-09, global = -2.4596e-20, cumulative = -1.04639e-19
 found preconditioner 
Gingko init_preconditioner : 0 ms
 CG create  precond 
Gingko solve : 903 ms
 copy back
 get iters 
BJompGKOCG:  Solving for p, Initial residual = 0.411432, Final residual = 9.95015e-07, No Iterations 362
time step continuity errors : sum local = 1.54475e-09, global = -1.29688e-21, cumulative = -1.05936e-19
ExecutionTime = 62.71 s  ClockTime = 9 s

Time = 0.01

Courant Number mean: 0.127339 max: 0.898877
nonePBiCGStab:  Solving for Ux, Initial residual = 0.020277, Final residual = 0.00208485, No Iterations 5
nonePBiCGStab:  Solving for Uy, Initial residual = 0.0505563, Final residual = 0.00623587, No Iterations 5
nonePBiCGStab:  Solving for Uz, Initial residual = 0.112948, Final residual = 0.0180732, No Iterations 5
 found preconditioner 
Gingko init_preconditioner : 0 ms
 CG create  precond 
Gingko solve : 900 ms
 copy back
 get iters 
BJompGKOCG:  Solving for p, Initial residual = 0.342685, Final residual = 9.82811e-07, No Iterations 359
time step continuity errors : sum local = 1.246e-09, global = 4.18149e-21, cumulative = -1.01754e-19
 found preconditioner 
Gingko init_preconditioner : 0 ms
 CG create  precond 
Gingko solve : 882 ms
 copy back
 get iters 
BJompGKOCG:  Solving for p, Initial residual = 0.354042, Final residual = 9.99166e-07, No Iterations 353
time step continuity errors : sum local = 1.25029e-09, global = 2.22185e-20, cumulative = -7.95358e-20
ExecutionTime = 77.14 s  ClockTime = 11 s

End

