/*---------------------------------------------------------------------------*\
  =========                 |
  \\      /  F ield         | OpenFOAM: The Open Source CFD Toolbox
   \\    /   O peration     | Website:  https://openfoam.org
    \\  /    A nd           | Version:  8
     \\/     M anipulation  |
\*---------------------------------------------------------------------------*/
Build  : 8-13d66902f78c
Exec   : icoFoam
Date   : Jun 29 2021
Time   : 09:39:33
Host   : "uc2n446.localdomain"
PID    : 4146348
I/O    : uncollated
Case   : /pfs/data5/home/kit/scc/nq7776/code/OGL_DATA/lidDrivenCavity3D/v0.1-119-gd926e8b/f584ccac99/IntelXeonGold6230CPU@2.10GHz/Test_2021-06-29-09:38:06/50/p-CG-OF-none-reference/lidDrivenCavity3D
nProcs : 1
sigFpe : Enabling floating point exception trapping (FOAM_SIGFPE).
fileModificationChecking : Monitoring run-time modified files using timeStampMaster (fileModificationSkew 10)
allowSystemOperations : Allowing user-supplied system call operations

// * * * * * * * * * * * * * * * * * * * * * * * * * * * * * * * * * * * * * //
Create time

Create mesh for time = 0

Reading transportProperties

Reading field p

Reading field U

Reading/calculating face flux field phi


Starting time loop

Time = 0.002

Courant Number mean: 0 max: 0
nonePBiCGStab:  Solving for Ux, Initial residual = 1, Final residual = 0.0592055, No Iterations 5
nonePBiCGStab:  Solving for Uy, Initial residual = 0, Final residual = 0, No Iterations 0
nonePBiCGStab:  Solving for Uz, Initial residual = 0, Final residual = 0, No Iterations 0
nonePCG:  Solving for p, Initial residual = 1, Final residual = 9.45243e-07, No Iterations 445
time step continuity errors : sum local = 1.21255e-09, global = -1.51454e-20, cumulative = -1.51454e-20
nonePCG:  Solving for p, Initial residual = 0.67673, Final residual = 9.3953e-07, No Iterations 441
time step continuity errors : sum local = 1.7043e-09, global = 9.0687e-21, cumulative = -6.07668e-21
ExecutionTime = 1.74 s  ClockTime = 1 s

Time = 0.004

Courant Number mean: 0.0636233 max: 0.723792
nonePBiCGStab:  Solving for Ux, Initial residual = 0.144136, Final residual = 0.0219208, No Iterations 5
nonePBiCGStab:  Solving for Uy, Initial residual = 0.363931, Final residual = 0.0522819, No Iterations 5
nonePBiCGStab:  Solving for Uz, Initial residual = 0.973677, Final residual = 0.158944, No Iterations 5
nonePCG:  Solving for p, Initial residual = 0.668507, Final residual = 9.75663e-07, No Iterations 426
time step continuity errors : sum local = 2.23405e-09, global = 1.6678e-20, cumulative = 1.06013e-20
nonePCG:  Solving for p, Initial residual = 0.584655, Final residual = 8.53512e-07, No Iterations 425
time step continuity errors : sum local = 2.00392e-09, global = 1.80484e-20, cumulative = 2.86497e-20
ExecutionTime = 2.98 s  ClockTime = 3 s

Time = 0.006

Courant Number mean: 0.0972275 max: 0.862515
nonePBiCGStab:  Solving for Ux, Initial residual = 0.0524189, Final residual = 0.00685535, No Iterations 5
nonePBiCGStab:  Solving for Uy, Initial residual = 0.127046, Final residual = 0.0201182, No Iterations 5
nonePBiCGStab:  Solving for Uz, Initial residual = 0.36675, Final residual = 0.0530696, No Iterations 5
nonePCG:  Solving for p, Initial residual = 0.594544, Final residual = 8.98833e-07, No Iterations 429
time step continuity errors : sum local = 1.4318e-09, global = 1.91136e-21, cumulative = 3.05611e-20
nonePCG:  Solving for p, Initial residual = 0.528702, Final residual = 8.84772e-07, No Iterations 428
time step continuity errors : sum local = 1.36334e-09, global = -5.23339e-21, cumulative = 2.53277e-20
ExecutionTime = 4.26 s  ClockTime = 4 s

Time = 0.008

Courant Number mean: 0.113794 max: 0.88248
nonePBiCGStab:  Solving for Ux, Initial residual = 0.0289573, Final residual = 0.00344464, No Iterations 5
nonePBiCGStab:  Solving for Uy, Initial residual = 0.0844255, Final residual = 0.0109195, No Iterations 5
nonePBiCGStab:  Solving for Uz, Initial residual = 0.229192, Final residual = 0.0297663, No Iterations 5
nonePCG:  Solving for p, Initial residual = 0.411433, Final residual = 9.20246e-07, No Iterations 416
time step continuity errors : sum local = 1.40252e-09, global = -1.36651e-20, cumulative = 1.16626e-20
nonePCG:  Solving for p, Initial residual = 0.342686, Final residual = 9.84671e-07, No Iterations 414
time step continuity errors : sum local = 1.5287e-09, global = -4.02363e-20, cumulative = -2.85736e-20
ExecutionTime = 5.49 s  ClockTime = 5 s

Time = 0.01

Courant Number mean: 0.127339 max: 0.898877
nonePBiCGStab:  Solving for Ux, Initial residual = 0.020277, Final residual = 0.00208485, No Iterations 5
nonePBiCGStab:  Solving for Uy, Initial residual = 0.0505563, Final residual = 0.00623587, No Iterations 5
nonePBiCGStab:  Solving for Uz, Initial residual = 0.112946, Final residual = 0.0180732, No Iterations 5
nonePCG:  Solving for p, Initial residual = 0.354043, Final residual = 9.18178e-07, No Iterations 421
time step continuity errors : sum local = 1.16413e-09, global = -5.53737e-20, cumulative = -8.39474e-20
nonePCG:  Solving for p, Initial residual = 0.302211, Final residual = 9.79271e-07, No Iterations 419
time step continuity errors : sum local = 1.22536e-09, global = 1.15143e-20, cumulative = -7.24331e-20
ExecutionTime = 6.74 s  ClockTime = 6 s

End

