/*---------------------------------------------------------------------------*\
  =========                 |
  \\      /  F ield         | OpenFOAM: The Open Source CFD Toolbox
   \\    /   O peration     | Website:  https://openfoam.org
    \\  /    A nd           | Version:  8
     \\/     M anipulation  |
\*---------------------------------------------------------------------------*/
Build  : 8-13d66902f78c
Exec   : icoFoam
Date   : Jun 29 2021
Time   : 09:36:58
Host   : "uc2n551.localdomain"
PID    : 917442
I/O    : uncollated
Case   : /pfs/data5/home/kit/scc/nq7776/code/OGL_DATA/lidDrivenCavity3D/v0.1-119-gd926e8b/f584ccac99/IntelXeonGold6230CPU@2.10GHz/Test_2021-06-29-09:15:40/50/p-U-BiCGStab-GKO-BJ-omp/lidDrivenCavity3D
nProcs : 1
sigFpe : Enabling floating point exception trapping (FOAM_SIGFPE).
fileModificationChecking : Monitoring run-time modified files using timeStampMaster (fileModificationSkew 10)
allowSystemOperations : Allowing user-supplied system call operations

// * * * * * * * * * * * * * * * * * * * * * * * * * * * * * * * * * * * * * //
Create time

Create mesh for time = 0

Reading transportProperties

Reading field p

Reading field U

Reading/calculating face flux field phi


Starting time loop

Time = 0.002

Courant Number mean: 0 max: 0
Gingko init_host_sparsity_pattern : 35 ms
 matrix not stored update host matrix 
Gingko update_host_mtx : 18 ms
matrix is not yet sorted, compute sorting idxs 
 compute sorting idxs 860000
Gingko compute_sort : 998 ms
matrix is not yet sorted,  sorting host matrix 
Gingko sort_host_mtx_sparsity_pattern : 23 ms
Gingko sort_host_mtx : 14 ms
Gingko init_preconditioner : 5 ms
Gingko solve : 161 ms
 copy back
 get iters 
BJompGKOBiCGStab:  Solving for Ux, Initial residual = 0, Final residual = 8.40984e-07, No Iterations 31
Gingko init_host_sparsity_pattern : 35 ms
 matrix not stored update host matrix 
Gingko update_host_mtx : 18 ms
matrix is not yet sorted,  sorting host matrix 
Gingko sort_host_mtx_sparsity_pattern : 23 ms
Gingko sort_host_mtx : 12 ms
Gingko init_preconditioner : 5 ms
Gingko solve : 2 ms
 copy back
 get iters 
BJompGKOBiCGStab:  Solving for Uy, Initial residual = 1, Final residual = 0, No Iterations 0
Gingko init_host_sparsity_pattern : 33 ms
 matrix not stored update host matrix 
Gingko update_host_mtx : 15 ms
matrix is not yet sorted,  sorting host matrix 
Gingko sort_host_mtx_sparsity_pattern : 23 ms
Gingko sort_host_mtx : 12 ms
Gingko init_preconditioner : 5 ms
Gingko solve : 1 ms
 copy back
 get iters 
BJompGKOBiCGStab:  Solving for Uz, Initial residual = 0, Final residual = 0, No Iterations 0
Gingko init_host_sparsity_pattern : 32 ms
 matrix not stored update host matrix 
Gingko update_host_mtx : 18 ms
matrix is not yet sorted,  sorting host matrix 
Gingko sort_host_mtx_sparsity_pattern : 22 ms
Gingko sort_host_mtx : 14 ms
Gingko init_preconditioner : 5 ms
Gingko solve : 1280 ms
 copy back
 get iters 
BJompGKOBiCGStab:  Solving for p, Initial residual = 0, Final residual = 7.89426e-07, No Iterations 286
time step continuity errors : sum local = 2.4875e-05, global = 5.62185e-20, cumulative = 5.62185e-20
 found preconditioner 
Gingko init_preconditioner : 0 ms
Gingko solve : 1010 ms
 copy back
 get iters 
BJompGKOBiCGStab:  Solving for p, Initial residual = 1, Final residual = 9.43831e-07, No Iterations 280
time step continuity errors : sum local = 5.08294e-08, global = 2.56089e-20, cumulative = 8.18274e-20
ExecutionTime = 42.07 s  ClockTime = 4 s

Time = 0.004

Courant Number mean: 0.0720738 max: 0.726644
Gingko init_host_sparsity_pattern : 33 ms
 matrix not stored update host matrix 
Gingko update_host_mtx : 16 ms
matrix is not yet sorted,  sorting host matrix 
Gingko sort_host_mtx_sparsity_pattern : 25 ms
Gingko sort_host_mtx : 13 ms
 found preconditioner 
Gingko init_preconditioner : 0 ms
Gingko solve : 96 ms
 copy back
 get iters 
BJompGKOBiCGStab:  Solving for Ux, Initial residual = 0.720579, Final residual = 9.3661e-07, No Iterations 24
Gingko init_host_sparsity_pattern : 33 ms
 matrix not stored update host matrix 
Gingko update_host_mtx : 15 ms
matrix is not yet sorted,  sorting host matrix 
Gingko sort_host_mtx_sparsity_pattern : 22 ms
Gingko sort_host_mtx : 12 ms
 found preconditioner 
Gingko init_preconditioner : 0 ms
Gingko solve : 126 ms
 copy back
 get iters 
BJompGKOBiCGStab:  Solving for Uy, Initial residual = 0.202558, Final residual = 8.8857e-07, No Iterations 32
Gingko init_host_sparsity_pattern : 33 ms
 matrix not stored update host matrix 
Gingko update_host_mtx : 16 ms
matrix is not yet sorted,  sorting host matrix 
Gingko sort_host_mtx_sparsity_pattern : 22 ms
Gingko sort_host_mtx : 12 ms
 found preconditioner 
Gingko init_preconditioner : 0 ms
Gingko solve : 129 ms
 copy back
 get iters 
BJompGKOBiCGStab:  Solving for Uz, Initial residual = 0.619754, Final residual = 9.86641e-07, No Iterations 33
 found preconditioner 
Gingko init_preconditioner : 0 ms
Gingko solve : 936 ms
 copy back
 get iters 
BJompGKOBiCGStab:  Solving for p, Initial residual = 0.599069, Final residual = 9.20186e-07, No Iterations 257
time step continuity errors : sum local = 9.79958e-08, global = 1.03584e-20, cumulative = 9.21858e-20
 found preconditioner 
Gingko init_preconditioner : 0 ms
Gingko solve : 983 ms
 copy back
 get iters 
BJompGKOBiCGStab:  Solving for p, Initial residual = 0.6781, Final residual = 6.32634e-07, No Iterations 267
time step continuity errors : sum local = 1.25928e-08, global = 4.44357e-20, cumulative = 1.36621e-19
ExecutionTime = 79.11 s  ClockTime = 7 s

Time = 0.006

Courant Number mean: 0.107524 max: 0.881753
Gingko init_host_sparsity_pattern : 33 ms
 matrix not stored update host matrix 
Gingko update_host_mtx : 17 ms
matrix is not yet sorted,  sorting host matrix 
Gingko sort_host_mtx_sparsity_pattern : 24 ms
Gingko sort_host_mtx : 13 ms
 found preconditioner 
Gingko init_preconditioner : 0 ms
Gingko solve : 96 ms
 copy back
 get iters 
BJompGKOBiCGStab:  Solving for Ux, Initial residual = 0.604093, Final residual = 9.21747e-07, No Iterations 24
Gingko init_host_sparsity_pattern : 33 ms
 matrix not stored update host matrix 
Gingko update_host_mtx : 15 ms
matrix is not yet sorted,  sorting host matrix 
Gingko sort_host_mtx_sparsity_pattern : 22 ms
Gingko sort_host_mtx : 12 ms
 found preconditioner 
Gingko init_preconditioner : 0 ms
Gingko solve : 118 ms
 copy back
 get iters 
BJompGKOBiCGStab:  Solving for Uy, Initial residual = 0.0987064, Final residual = 7.39075e-07, No Iterations 30
Gingko init_host_sparsity_pattern : 33 ms
 matrix not stored update host matrix 
Gingko update_host_mtx : 15 ms
matrix is not yet sorted,  sorting host matrix 
Gingko sort_host_mtx_sparsity_pattern : 22 ms
Gingko sort_host_mtx : 12 ms
 found preconditioner 
Gingko init_preconditioner : 0 ms
Gingko solve : 132 ms
 copy back
 get iters 
BJompGKOBiCGStab:  Solving for Uz, Initial residual = 0.257317, Final residual = 8.30043e-07, No Iterations 34
 found preconditioner 
Gingko init_preconditioner : 0 ms
Gingko solve : 1032 ms
 copy back
 get iters 
BJompGKOBiCGStab:  Solving for p, Initial residual = 0.702387, Final residual = 8.09289e-07, No Iterations 287
time step continuity errors : sum local = 4.63118e-09, global = -7.43539e-21, cumulative = 1.29186e-19
 found preconditioner 
Gingko init_preconditioner : 0 ms
Gingko solve : 1007 ms
 copy back
 get iters 
BJompGKOBiCGStab:  Solving for p, Initial residual = 0.610695, Final residual = 6.32758e-07, No Iterations 280
time step continuity errors : sum local = 1.35385e-08, global = -6.98388e-21, cumulative = 1.22202e-19
ExecutionTime = 118.02 s  ClockTime = 10 s

Time = 0.008

Courant Number mean: 0.123256 max: 0.890129
Gingko init_host_sparsity_pattern : 32 ms
 matrix not stored update host matrix 
Gingko update_host_mtx : 16 ms
matrix is not yet sorted,  sorting host matrix 
Gingko sort_host_mtx_sparsity_pattern : 21 ms
Gingko sort_host_mtx : 12 ms
 found preconditioner 
Gingko init_preconditioner : 0 ms
Gingko solve : 92 ms
 copy back
 get iters 
BJompGKOBiCGStab:  Solving for Ux, Initial residual = 0.563295, Final residual = 7.91256e-07, No Iterations 25
Gingko init_host_sparsity_pattern : 33 ms
 matrix not stored update host matrix 
Gingko update_host_mtx : 16 ms
matrix is not yet sorted,  sorting host matrix 
Gingko sort_host_mtx_sparsity_pattern : 21 ms
Gingko sort_host_mtx : 12 ms
 found preconditioner 
Gingko init_preconditioner : 0 ms
Gingko solve : 103 ms
 copy back
 get iters 
BJompGKOBiCGStab:  Solving for Uy, Initial residual = 0.0342152, Final residual = 8.46818e-07, No Iterations 28
Gingko init_host_sparsity_pattern : 33 ms
 matrix not stored update host matrix 
Gingko update_host_mtx : 16 ms
matrix is not yet sorted,  sorting host matrix 
Gingko sort_host_mtx_sparsity_pattern : 21 ms
Gingko sort_host_mtx : 12 ms
 found preconditioner 
Gingko init_preconditioner : 0 ms
Gingko solve : 117 ms
 copy back
 get iters 
BJompGKOBiCGStab:  Solving for Uz, Initial residual = 0.134421, Final residual = 9.27426e-07, No Iterations 32
 found preconditioner 
Gingko init_preconditioner : 0 ms
Gingko solve : 908 ms
 copy back
 get iters 
BJompGKOBiCGStab:  Solving for p, Initial residual = 0.538028, Final residual = 9.98176e-07, No Iterations 245
time step continuity errors : sum local = 2.17244e-09, global = 3.7645e-20, cumulative = 1.59847e-19
 found preconditioner 
Gingko init_preconditioner : 0 ms
Gingko solve : 898 ms
 copy back
 get iters 
BJompGKOBiCGStab:  Solving for p, Initial residual = 0.425941, Final residual = 8.63519e-07, No Iterations 250
time step continuity errors : sum local = 1.55921e-09, global = -4.59804e-21, cumulative = 1.55249e-19
ExecutionTime = 152.63 s  ClockTime = 12 s

Time = 0.01

Courant Number mean: 0.1361 max: 0.906936
Gingko init_host_sparsity_pattern : 32 ms
 matrix not stored update host matrix 
Gingko update_host_mtx : 16 ms
matrix is not yet sorted,  sorting host matrix 
Gingko sort_host_mtx_sparsity_pattern : 26 ms
Gingko sort_host_mtx : 12 ms
 found preconditioner 
Gingko init_preconditioner : 0 ms
Gingko solve : 97 ms
 copy back
 get iters 
BJompGKOBiCGStab:  Solving for Ux, Initial residual = 0.370124, Final residual = 7.33162e-07, No Iterations 24
Gingko init_host_sparsity_pattern : 33 ms
 matrix not stored update host matrix 
Gingko update_host_mtx : 16 ms
matrix is not yet sorted,  sorting host matrix 
Gingko sort_host_mtx_sparsity_pattern : 21 ms
Gingko sort_host_mtx : 12 ms
 found preconditioner 
Gingko init_preconditioner : 0 ms
Gingko solve : 97 ms
 copy back
 get iters 
BJompGKOBiCGStab:  Solving for Uy, Initial residual = 0.0232635, Final residual = 9.72335e-07, No Iterations 25
Gingko init_host_sparsity_pattern : 33 ms
 matrix not stored update host matrix 
Gingko update_host_mtx : 16 ms
matrix is not yet sorted,  sorting host matrix 
Gingko sort_host_mtx_sparsity_pattern : 21 ms
Gingko sort_host_mtx : 12 ms
 found preconditioner 
Gingko init_preconditioner : 0 ms
Gingko solve : 111 ms
 copy back
 get iters 
BJompGKOBiCGStab:  Solving for Uz, Initial residual = 0.0487867, Final residual = 9.52121e-07, No Iterations 29
 found preconditioner 
Gingko init_preconditioner : 0 ms
Gingko solve : 880 ms
 copy back
 get iters 
BJompGKOBiCGStab:  Solving for p, Initial residual = 0.18914, Final residual = 9.63693e-07, No Iterations 246
time step continuity errors : sum local = 1.43134e-08, global = 3.75694e-20, cumulative = 1.92819e-19
 found preconditioner 
Gingko init_preconditioner : 0 ms
Gingko solve : 912 ms
 copy back
 get iters 
BJompGKOBiCGStab:  Solving for p, Initial residual = 0.36362, Final residual = 9.51417e-07, No Iterations 254
time step continuity errors : sum local = 1.46349e-09, global = 2.93514e-21, cumulative = 1.95754e-19
ExecutionTime = 186.96 s  ClockTime = 15 s

End

