/*---------------------------------------------------------------------------*\
  =========                 |
  \\      /  F ield         | OpenFOAM: The Open Source CFD Toolbox
   \\    /   O peration     | Website:  https://openfoam.org
    \\  /    A nd           | Version:  8
     \\/     M anipulation  |
\*---------------------------------------------------------------------------*/
Build  : 8-13d66902f78c
Exec   : icoFoam
Date   : Jun 29 2021
Time   : 07:55:11
Host   : "uc2n404.localdomain"
PID    : 3045814
I/O    : uncollated
Case   : /pfs/data5/home/kit/scc/nq7776/code/OGL_DATA/lidDrivenCavity3D/v0.1-119-gd926e8b/f584ccac99/IntelXeonGold6230CPU@2.10GHz/Test_2021-06-29-07:42:59/50/p-U-BiCGStab-GKO-none-omp/lidDrivenCavity3D
nProcs : 1
sigFpe : Enabling floating point exception trapping (FOAM_SIGFPE).
fileModificationChecking : Monitoring run-time modified files using timeStampMaster (fileModificationSkew 10)
allowSystemOperations : Allowing user-supplied system call operations

// * * * * * * * * * * * * * * * * * * * * * * * * * * * * * * * * * * * * * //
Create time

Create mesh for time = 0

Reading transportProperties

Reading field p

Reading field U

Reading/calculating face flux field phi


Starting time loop

Time = 0.002

Courant Number mean: 0 max: 0
Gingko init_host_sparsity_pattern : 35 ms
 matrix not stored update host matrix 
Gingko update_host_mtx : 18 ms
matrix is not yet sorted, compute sorting idxs 
 compute sorting idxs 860000
Gingko compute_sort : 993 ms
matrix is not yet sorted,  sorting host matrix 
Gingko sort_host_mtx_sparsity_pattern : 23 ms
Gingko sort_host_mtx : 15 ms
Gingko init_preconditioner : 0 ms
 get_precond == NULL
Gingko solve : 146 ms
 copy back
 get iters 
noneompGKOBiCGStab:  Solving for Ux, Initial residual = 0, Final residual = 8.72813e-07, No Iterations 41
Gingko init_host_sparsity_pattern : 34 ms
 matrix not stored update host matrix 
Gingko update_host_mtx : 18 ms
matrix is not yet sorted,  sorting host matrix 
Gingko sort_host_mtx_sparsity_pattern : 23 ms
Gingko sort_host_mtx : 12 ms
Gingko init_preconditioner : 0 ms
 get_precond == NULL
Gingko solve : 2 ms
 copy back
 get iters 
noneompGKOBiCGStab:  Solving for Uy, Initial residual = 1, Final residual = 0, No Iterations 0
Gingko init_host_sparsity_pattern : 33 ms
 matrix not stored update host matrix 
Gingko update_host_mtx : 15 ms
matrix is not yet sorted,  sorting host matrix 
Gingko sort_host_mtx_sparsity_pattern : 23 ms
Gingko sort_host_mtx : 12 ms
Gingko init_preconditioner : 0 ms
 get_precond == NULL
Gingko solve : 2 ms
 copy back
 get iters 
noneompGKOBiCGStab:  Solving for Uz, Initial residual = 0, Final residual = 0, No Iterations 0
Gingko init_host_sparsity_pattern : 33 ms
 matrix not stored update host matrix 
Gingko update_host_mtx : 18 ms
matrix is not yet sorted,  sorting host matrix 
Gingko sort_host_mtx_sparsity_pattern : 22 ms
Gingko sort_host_mtx : 14 ms
Gingko init_preconditioner : 0 ms
 get_precond == NULL
Gingko solve : 1304 ms
 copy back
 get iters 
noneompGKOBiCGStab:  Solving for p, Initial residual = 0, Final residual = 8.43708e-07, No Iterations 349
time step continuity errors : sum local = 8.10902e-09, global = -3.70931e-21, cumulative = -3.70931e-21
Gingko init_preconditioner : 0 ms
 get_precond == NULL
Gingko solve : 1229 ms
 copy back
 get iters 
noneompGKOBiCGStab:  Solving for p, Initial residual = 1, Final residual = 8.85703e-07, No Iterations 346
time step continuity errors : sum local = 9.90725e-09, global = 1.0797e-20, cumulative = 7.0877e-21
ExecutionTime = 12.83 s  ClockTime = 4 s

Time = 0.004

Courant Number mean: 0.0720722 max: 0.726639
Gingko init_host_sparsity_pattern : 33 ms
 matrix not stored update host matrix 
Gingko update_host_mtx : 16 ms
matrix is not yet sorted,  sorting host matrix 
Gingko sort_host_mtx_sparsity_pattern : 22 ms
Gingko sort_host_mtx : 12 ms
Gingko init_preconditioner : 0 ms
 get_precond == NULL
Gingko solve : 135 ms
 copy back
 get iters 
noneompGKOBiCGStab:  Solving for Ux, Initial residual = 0.721584, Final residual = 9.00693e-07, No Iterations 37
Gingko init_host_sparsity_pattern : 33 ms
 matrix not stored update host matrix 
Gingko update_host_mtx : 16 ms
matrix is not yet sorted,  sorting host matrix 
Gingko sort_host_mtx_sparsity_pattern : 26 ms
Gingko sort_host_mtx : 14 ms
Gingko init_preconditioner : 0 ms
 get_precond == NULL
Gingko solve : 159 ms
 copy back
 get iters 
noneompGKOBiCGStab:  Solving for Uy, Initial residual = 0.203468, Final residual = 5.97682e-07, No Iterations 44
Gingko init_host_sparsity_pattern : 33 ms
 matrix not stored update host matrix 
Gingko update_host_mtx : 16 ms
matrix is not yet sorted,  sorting host matrix 
Gingko sort_host_mtx_sparsity_pattern : 21 ms
Gingko sort_host_mtx : 12 ms
Gingko init_preconditioner : 0 ms
 get_precond == NULL
Gingko solve : 132 ms
 copy back
 get iters 
noneompGKOBiCGStab:  Solving for Uz, Initial residual = 0.618428, Final residual = 8.88578e-07, No Iterations 36
Gingko init_preconditioner : 0 ms
 get_precond == NULL
Gingko solve : 1287 ms
 copy back
 get iters 
noneompGKOBiCGStab:  Solving for p, Initial residual = 0.536425, Final residual = 1.38442e-07, No Iterations 353
time step continuity errors : sum local = 4.85935e-07, global = 3.85424e-20, cumulative = 4.56301e-20
Gingko init_preconditioner : 0 ms
 get_precond == NULL
Gingko solve : 1204 ms
 copy back
 get iters 
noneompGKOBiCGStab:  Solving for p, Initial residual = 0.673317, Final residual = 9.15988e-07, No Iterations 331
time step continuity errors : sum local = 8.43935e-07, global = 3.01722e-20, cumulative = 7.58023e-20
ExecutionTime = 24.96 s  ClockTime = 8 s

Time = 0.006

Courant Number mean: 0.107408 max: 0.881756
Gingko init_host_sparsity_pattern : 33 ms
 matrix not stored update host matrix 
Gingko update_host_mtx : 16 ms
matrix is not yet sorted,  sorting host matrix 
Gingko sort_host_mtx_sparsity_pattern : 21 ms
Gingko sort_host_mtx : 12 ms
Gingko init_preconditioner : 0 ms
 get_precond == NULL
Gingko solve : 128 ms
 copy back
 get iters 
noneompGKOBiCGStab:  Solving for Ux, Initial residual = 0.598948, Final residual = 8.17803e-07, No Iterations 35
Gingko init_host_sparsity_pattern : 33 ms
 matrix not stored update host matrix 
Gingko update_host_mtx : 15 ms
matrix is not yet sorted,  sorting host matrix 
Gingko sort_host_mtx_sparsity_pattern : 21 ms
Gingko sort_host_mtx : 12 ms
Gingko init_preconditioner : 0 ms
 get_precond == NULL
Gingko solve : 138 ms
 copy back
 get iters 
noneompGKOBiCGStab:  Solving for Uy, Initial residual = 0.0996616, Final residual = 6.52539e-07, No Iterations 38
Gingko init_host_sparsity_pattern : 33 ms
 matrix not stored update host matrix 
Gingko update_host_mtx : 16 ms
matrix is not yet sorted,  sorting host matrix 
Gingko sort_host_mtx_sparsity_pattern : 21 ms
Gingko sort_host_mtx : 12 ms
Gingko init_preconditioner : 0 ms
 get_precond == NULL
Gingko solve : 146 ms
 copy back
 get iters 
noneompGKOBiCGStab:  Solving for Uz, Initial residual = 0.249748, Final residual = 9.81018e-07, No Iterations 40
Gingko init_preconditioner : 0 ms
 get_precond == NULL
Gingko solve : 1293 ms
 copy back
 get iters 
noneompGKOBiCGStab:  Solving for p, Initial residual = 0.54556, Final residual = 5.55072e-07, No Iterations 353
time step continuity errors : sum local = 3.02118e-07, global = 6.89688e-21, cumulative = 8.26992e-20
Gingko init_preconditioner : 0 ms
 get_precond == NULL
Gingko solve : 1405 ms
 copy back
 get iters 
noneompGKOBiCGStab:  Solving for p, Initial residual = 0.607035, Final residual = 7.51022e-07, No Iterations 384
time step continuity errors : sum local = 1.46524e-08, global = -1.34581e-20, cumulative = 6.92411e-20
ExecutionTime = 37.85 s  ClockTime = 11 s

Time = 0.008

Courant Number mean: 0.123244 max: 0.890102
Gingko init_host_sparsity_pattern : 33 ms
 matrix not stored update host matrix 
Gingko update_host_mtx : 16 ms
matrix is not yet sorted,  sorting host matrix 
Gingko sort_host_mtx_sparsity_pattern : 25 ms
Gingko sort_host_mtx : 12 ms
Gingko init_preconditioner : 0 ms
 get_precond == NULL
Gingko solve : 120 ms
 copy back
 get iters 
noneompGKOBiCGStab:  Solving for Ux, Initial residual = 0.56071, Final residual = 8.99908e-07, No Iterations 31
Gingko init_host_sparsity_pattern : 33 ms
 matrix not stored update host matrix 
Gingko update_host_mtx : 15 ms
matrix is not yet sorted,  sorting host matrix 
Gingko sort_host_mtx_sparsity_pattern : 21 ms
Gingko sort_host_mtx : 12 ms
Gingko init_preconditioner : 0 ms
 get_precond == NULL
Gingko solve : 139 ms
 copy back
 get iters 
noneompGKOBiCGStab:  Solving for Uy, Initial residual = 0.0342123, Final residual = 8.20771e-07, No Iterations 36
Gingko init_host_sparsity_pattern : 33 ms
 matrix not stored update host matrix 
Gingko update_host_mtx : 16 ms
matrix is not yet sorted,  sorting host matrix 
Gingko sort_host_mtx_sparsity_pattern : 21 ms
Gingko sort_host_mtx : 12 ms
Gingko init_preconditioner : 0 ms
 get_precond == NULL
Gingko solve : 142 ms
 copy back
 get iters 
noneompGKOBiCGStab:  Solving for Uz, Initial residual = 0.132409, Final residual = 8.27867e-07, No Iterations 37
Gingko init_preconditioner : 0 ms
 get_precond == NULL
Gingko solve : 1246 ms
 copy back
 get iters 
noneompGKOBiCGStab:  Solving for p, Initial residual = 0.481058, Final residual = 9.00685e-07, No Iterations 341
time step continuity errors : sum local = 1.31102e-08, global = -1.6137e-20, cumulative = 5.31041e-20
Gingko init_preconditioner : 0 ms
 get_precond == NULL
Gingko solve : 1279 ms
 copy back
 get iters 
noneompGKOBiCGStab:  Solving for p, Initial residual = 0.423146, Final residual = 7.64652e-07, No Iterations 351
time step continuity errors : sum local = 4.52497e-08, global = 5.07062e-22, cumulative = 5.36112e-20
ExecutionTime = 49.99 s  ClockTime = 15 s

Time = 0.01

Courant Number mean: 0.136096 max: 0.906947
Gingko init_host_sparsity_pattern : 33 ms
 matrix not stored update host matrix 
Gingko update_host_mtx : 16 ms
matrix is not yet sorted,  sorting host matrix 
Gingko sort_host_mtx_sparsity_pattern : 21 ms
Gingko sort_host_mtx : 12 ms
Gingko init_preconditioner : 0 ms
 get_precond == NULL
Gingko solve : 116 ms
 copy back
 get iters 
noneompGKOBiCGStab:  Solving for Ux, Initial residual = 0.368448, Final residual = 7.71928e-07, No Iterations 30
Gingko init_host_sparsity_pattern : 33 ms
 matrix not stored update host matrix 
Gingko update_host_mtx : 16 ms
matrix is not yet sorted,  sorting host matrix 
Gingko sort_host_mtx_sparsity_pattern : 21 ms
Gingko sort_host_mtx : 12 ms
Gingko init_preconditioner : 0 ms
 get_precond == NULL
Gingko solve : 123 ms
 copy back
 get iters 
noneompGKOBiCGStab:  Solving for Uy, Initial residual = 0.0230636, Final residual = 8.29035e-07, No Iterations 32
Gingko init_host_sparsity_pattern : 33 ms
 matrix not stored update host matrix 
Gingko update_host_mtx : 16 ms
matrix is not yet sorted,  sorting host matrix 
Gingko sort_host_mtx_sparsity_pattern : 21 ms
Gingko sort_host_mtx : 12 ms
Gingko init_preconditioner : 0 ms
 get_precond == NULL
Gingko solve : 137 ms
 copy back
 get iters 
noneompGKOBiCGStab:  Solving for Uz, Initial residual = 0.0485677, Final residual = 9.40655e-07, No Iterations 36
Gingko init_preconditioner : 0 ms
 get_precond == NULL
Gingko solve : 1237 ms
 copy back
 get iters 
noneompGKOBiCGStab:  Solving for p, Initial residual = 0.163235, Final residual = 7.47032e-07, No Iterations 339
time step continuity errors : sum local = 9.07059e-09, global = 2.94483e-20, cumulative = 8.30595e-20
Gingko init_preconditioner : 0 ms
 get_precond == NULL
Gingko solve : 1193 ms
 copy back
 get iters 
noneompGKOBiCGStab:  Solving for p, Initial residual = 0.361646, Final residual = 6.83616e-07, No Iterations 330
time step continuity errors : sum local = 1.04229e-08, global = 2.26786e-20, cumulative = 1.05738e-19
ExecutionTime = 61.66 s  ClockTime = 18 s

End

