/*---------------------------------------------------------------------------*\
  =========                 |
  \\      /  F ield         | OpenFOAM: The Open Source CFD Toolbox
   \\    /   O peration     | Website:  https://openfoam.org
    \\  /    A nd           | Version:  8
     \\/     M anipulation  |
\*---------------------------------------------------------------------------*/
Build  : 8-13d66902f78c
Exec   : icoFoam
Date   : Jun 29 2021
Time   : 07:52:04
Host   : "uc2n435.localdomain"
PID    : 2024036
I/O    : uncollated
Case   : /pfs/data5/home/kit/scc/nq7776/code/OGL_DATA/lidDrivenCavity3D/v0.1-119-gd926e8b/f584ccac99/IntelXeonGold6230CPU@2.10GHz/Test_2021-06-29-07:39:43/50/p-U-CG-GKO-none-omp/lidDrivenCavity3D
nProcs : 1
sigFpe : Enabling floating point exception trapping (FOAM_SIGFPE).
fileModificationChecking : Monitoring run-time modified files using timeStampMaster (fileModificationSkew 10)
allowSystemOperations : Allowing user-supplied system call operations

// * * * * * * * * * * * * * * * * * * * * * * * * * * * * * * * * * * * * * //
Create time

Create mesh for time = 0

Reading transportProperties

Reading field p

Reading field U

Reading/calculating face flux field phi


Starting time loop

Time = 0.002

Courant Number mean: 0 max: 0
Gingko init_host_sparsity_pattern : 35 ms
 matrix not stored update host matrix 
Gingko update_host_mtx : 18 ms
matrix is not yet sorted, compute sorting idxs 
 compute sorting idxs 860000
Gingko compute_sort : 997 ms
matrix is not yet sorted,  sorting host matrix 
Gingko sort_host_mtx_sparsity_pattern : 23 ms
Gingko sort_host_mtx : 14 ms
Gingko init_preconditioner : 0 ms
 get_precond == NULL
Gingko solve : 117 ms
 copy back
 get iters 
noneompGKOBiCGStab:  Solving for Ux, Initial residual = 0, Final residual = 8.72813e-07, No Iterations 41
Gingko init_host_sparsity_pattern : 35 ms
 matrix not stored update host matrix 
Gingko update_host_mtx : 18 ms
matrix is not yet sorted,  sorting host matrix 
Gingko sort_host_mtx_sparsity_pattern : 23 ms
Gingko sort_host_mtx : 12 ms
Gingko init_preconditioner : 0 ms
 get_precond == NULL
Gingko solve : 2 ms
 copy back
 get iters 
noneompGKOBiCGStab:  Solving for Uy, Initial residual = 1, Final residual = 0, No Iterations 0
Gingko init_host_sparsity_pattern : 33 ms
 matrix not stored update host matrix 
Gingko update_host_mtx : 16 ms
matrix is not yet sorted,  sorting host matrix 
Gingko sort_host_mtx_sparsity_pattern : 23 ms
Gingko sort_host_mtx : 12 ms
Gingko init_preconditioner : 0 ms
 get_precond == NULL
Gingko solve : 1 ms
 copy back
 get iters 
noneompGKOBiCGStab:  Solving for Uz, Initial residual = 0, Final residual = 0, No Iterations 0
Gingko init_host_sparsity_pattern : 32 ms
 matrix not stored update host matrix 
Gingko update_host_mtx : 18 ms
matrix is not yet sorted,  sorting host matrix 
Gingko sort_host_mtx_sparsity_pattern : 22 ms
Gingko sort_host_mtx : 14 ms
Gingko init_preconditioner : 0 ms
 get_precond == NULL
Gingko solve : 645 ms
 copy back
 get iters 
noneompGKOCG:  Solving for p, Initial residual = 0, Final residual = 9.02139e-07, No Iterations 444
time step continuity errors : sum local = 1.48545e-09, global = 7.52179e-21, cumulative = 7.52179e-21
Gingko init_preconditioner : 0 ms
 get_precond == NULL
Gingko solve : 701 ms
 copy back
 get iters 
noneompGKOCG:  Solving for p, Initial residual = 1, Final residual = 9.35118e-07, No Iterations 440
time step continuity errors : sum local = 2.0415e-09, global = 8.14284e-21, cumulative = 1.56646e-20
ExecutionTime = 13.95 s  ClockTime = 3 s

Time = 0.004

Courant Number mean: 0.0720722 max: 0.726639
Gingko init_host_sparsity_pattern : 32 ms
 matrix not stored update host matrix 
Gingko update_host_mtx : 19 ms
matrix is not yet sorted,  sorting host matrix 
Gingko sort_host_mtx_sparsity_pattern : 28 ms
Gingko sort_host_mtx : 12 ms
Gingko init_preconditioner : 0 ms
 get_precond == NULL
Gingko solve : 122 ms
 copy back
 get iters 
noneompGKOBiCGStab:  Solving for Ux, Initial residual = 0.721583, Final residual = 2.66258e-07, No Iterations 39
Gingko init_host_sparsity_pattern : 33 ms
 matrix not stored update host matrix 
Gingko update_host_mtx : 16 ms
matrix is not yet sorted,  sorting host matrix 
Gingko sort_host_mtx_sparsity_pattern : 21 ms
Gingko sort_host_mtx : 12 ms
Gingko init_preconditioner : 0 ms
 get_precond == NULL
Gingko solve : 126 ms
 copy back
 get iters 
noneompGKOBiCGStab:  Solving for Uy, Initial residual = 0.203465, Final residual = 8.01576e-07, No Iterations 40
Gingko init_host_sparsity_pattern : 33 ms
 matrix not stored update host matrix 
Gingko update_host_mtx : 16 ms
matrix is not yet sorted,  sorting host matrix 
Gingko sort_host_mtx_sparsity_pattern : 21 ms
Gingko sort_host_mtx : 12 ms
Gingko init_preconditioner : 0 ms
 get_precond == NULL
Gingko solve : 127 ms
 copy back
 get iters 
noneompGKOBiCGStab:  Solving for Uz, Initial residual = 0.618431, Final residual = 8.61992e-07, No Iterations 40
Gingko init_preconditioner : 0 ms
 get_precond == NULL
Gingko solve : 724 ms
 copy back
 get iters 
noneompGKOCG:  Solving for p, Initial residual = 0.536266, Final residual = 9.9737e-07, No Iterations 433
time step continuity errors : sum local = 2.36563e-09, global = -1.19407e-20, cumulative = 3.72389e-21
Gingko init_preconditioner : 0 ms
 get_precond == NULL
Gingko solve : 731 ms
 copy back
 get iters 
noneompGKOCG:  Solving for p, Initial residual = 0.673318, Final residual = 9.80107e-07, No Iterations 433
time step continuity errors : sum local = 2.38594e-09, global = -4.25053e-21, cumulative = -5.26645e-22
ExecutionTime = 29.19 s  ClockTime = 5 s

Time = 0.006

Courant Number mean: 0.107408 max: 0.881754
Gingko init_host_sparsity_pattern : 33 ms
 matrix not stored update host matrix 
Gingko update_host_mtx : 17 ms
matrix is not yet sorted,  sorting host matrix 
Gingko sort_host_mtx_sparsity_pattern : 23 ms
Gingko sort_host_mtx : 12 ms
Gingko init_preconditioner : 0 ms
 get_precond == NULL
Gingko solve : 112 ms
 copy back
 get iters 
noneompGKOBiCGStab:  Solving for Ux, Initial residual = 0.598888, Final residual = 6.77089e-07, No Iterations 35
Gingko init_host_sparsity_pattern : 33 ms
 matrix not stored update host matrix 
Gingko update_host_mtx : 16 ms
matrix is not yet sorted,  sorting host matrix 
Gingko sort_host_mtx_sparsity_pattern : 21 ms
Gingko sort_host_mtx : 12 ms
Gingko init_preconditioner : 0 ms
 get_precond == NULL
Gingko solve : 119 ms
 copy back
 get iters 
noneompGKOBiCGStab:  Solving for Uy, Initial residual = 0.0995687, Final residual = 7.99123e-07, No Iterations 38
Gingko init_host_sparsity_pattern : 33 ms
 matrix not stored update host matrix 
Gingko update_host_mtx : 16 ms
matrix is not yet sorted,  sorting host matrix 
Gingko sort_host_mtx_sparsity_pattern : 21 ms
Gingko sort_host_mtx : 12 ms
Gingko init_preconditioner : 0 ms
 get_precond == NULL
Gingko solve : 127 ms
 copy back
 get iters 
noneompGKOBiCGStab:  Solving for Uz, Initial residual = 0.249969, Final residual = 9.42094e-07, No Iterations 40
Gingko init_preconditioner : 0 ms
 get_precond == NULL
Gingko solve : 728 ms
 copy back
 get iters 
noneompGKOCG:  Solving for p, Initial residual = 0.540949, Final residual = 9.14321e-07, No Iterations 437
time step continuity errors : sum local = 1.55693e-09, global = -3.57647e-21, cumulative = -4.10312e-21
Gingko init_preconditioner : 0 ms
 get_precond == NULL
Gingko solve : 730 ms
 copy back
 get iters 
noneompGKOCG:  Solving for p, Initial residual = 0.606886, Final residual = 9.4736e-07, No Iterations 436
time step continuity errors : sum local = 1.55937e-09, global = -2.66405e-20, cumulative = -3.07436e-20
ExecutionTime = 44.26 s  ClockTime = 8 s

Time = 0.008

Courant Number mean: 0.123244 max: 0.890102
Gingko init_host_sparsity_pattern : 33 ms
 matrix not stored update host matrix 
Gingko update_host_mtx : 16 ms
matrix is not yet sorted,  sorting host matrix 
Gingko sort_host_mtx_sparsity_pattern : 21 ms
Gingko sort_host_mtx : 12 ms
Gingko init_preconditioner : 0 ms
 get_precond == NULL
Gingko solve : 98 ms
 copy back
 get iters 
noneompGKOBiCGStab:  Solving for Ux, Initial residual = 0.560842, Final residual = 8.34994e-07, No Iterations 31
Gingko init_host_sparsity_pattern : 33 ms
 matrix not stored update host matrix 
Gingko update_host_mtx : 16 ms
matrix is not yet sorted,  sorting host matrix 
Gingko sort_host_mtx_sparsity_pattern : 21 ms
Gingko sort_host_mtx : 12 ms
Gingko init_preconditioner : 0 ms
 get_precond == NULL
Gingko solve : 113 ms
 copy back
 get iters 
noneompGKOBiCGStab:  Solving for Uy, Initial residual = 0.0341423, Final residual = 9.77755e-07, No Iterations 35
Gingko init_host_sparsity_pattern : 33 ms
 matrix not stored update host matrix 
Gingko update_host_mtx : 15 ms
matrix is not yet sorted,  sorting host matrix 
Gingko sort_host_mtx_sparsity_pattern : 21 ms
Gingko sort_host_mtx : 12 ms
Gingko init_preconditioner : 0 ms
 get_precond == NULL
Gingko solve : 120 ms
 copy back
 get iters 
noneompGKOBiCGStab:  Solving for Uz, Initial residual = 0.13238, Final residual = 7.14094e-07, No Iterations 38
Gingko init_preconditioner : 0 ms
 get_precond == NULL
Gingko solve : 728 ms
 copy back
 get iters 
noneompGKOCG:  Solving for p, Initial residual = 0.471952, Final residual = 9.14641e-07, No Iterations 435
time step continuity errors : sum local = 1.44412e-09, global = -2.05235e-20, cumulative = -5.12671e-20
Gingko init_preconditioner : 0 ms
 get_precond == NULL
Gingko solve : 734 ms
 copy back
 get iters 
noneompGKOCG:  Solving for p, Initial residual = 0.423036, Final residual = 9.74883e-07, No Iterations 433
time step continuity errors : sum local = 1.56149e-09, global = -4.87381e-20, cumulative = -1.00005e-19
ExecutionTime = 59.17 s  ClockTime = 10 s

Time = 0.01

Courant Number mean: 0.136096 max: 0.906942
Gingko init_host_sparsity_pattern : 33 ms
 matrix not stored update host matrix 
Gingko update_host_mtx : 17 ms
matrix is not yet sorted,  sorting host matrix 
Gingko sort_host_mtx_sparsity_pattern : 23 ms
Gingko sort_host_mtx : 12 ms
Gingko init_preconditioner : 0 ms
 get_precond == NULL
Gingko solve : 94 ms
 copy back
 get iters 
noneompGKOBiCGStab:  Solving for Ux, Initial residual = 0.368376, Final residual = 9.76448e-07, No Iterations 29
Gingko init_host_sparsity_pattern : 33 ms
 matrix not stored update host matrix 
Gingko update_host_mtx : 16 ms
matrix is not yet sorted,  sorting host matrix 
Gingko sort_host_mtx_sparsity_pattern : 21 ms
Gingko sort_host_mtx : 12 ms
Gingko init_preconditioner : 0 ms
 get_precond == NULL
Gingko solve : 104 ms
 copy back
 get iters 
noneompGKOBiCGStab:  Solving for Uy, Initial residual = 0.0230737, Final residual = 8.40649e-07, No Iterations 32
Gingko init_host_sparsity_pattern : 33 ms
 matrix not stored update host matrix 
Gingko update_host_mtx : 16 ms
matrix is not yet sorted,  sorting host matrix 
Gingko sort_host_mtx_sparsity_pattern : 21 ms
Gingko sort_host_mtx : 12 ms
Gingko init_preconditioner : 0 ms
 get_precond == NULL
Gingko solve : 110 ms
 copy back
 get iters 
noneompGKOBiCGStab:  Solving for Uz, Initial residual = 0.0484115, Final residual = 9.98513e-07, No Iterations 35
Gingko init_preconditioner : 0 ms
 get_precond == NULL
Gingko solve : 722 ms
 copy back
 get iters 
noneompGKOCG:  Solving for p, Initial residual = 0.159032, Final residual = 9.96469e-07, No Iterations 433
time step continuity errors : sum local = 1.3615e-09, global = -7.3787e-20, cumulative = -1.73792e-19
Gingko init_preconditioner : 0 ms
 get_precond == NULL
Gingko solve : 656 ms
 copy back
 get iters 
noneompGKOCG:  Solving for p, Initial residual = 0.361666, Final residual = 9.45367e-07, No Iterations 433
time step continuity errors : sum local = 1.28013e-09, global = 4.94691e-20, cumulative = -1.24323e-19
ExecutionTime = 73.23 s  ClockTime = 12 s

End

