/*---------------------------------------------------------------------------*\
  =========                 |
  \\      /  F ield         | OpenFOAM: The Open Source CFD Toolbox
   \\    /   O peration     | Website:  https://openfoam.org
    \\  /    A nd           | Version:  8
     \\/     M anipulation  |
\*---------------------------------------------------------------------------*/
Build  : 8-13d66902f78c
Exec   : icoFoam
Date   : Jun 29 2021
Time   : 07:54:22
Host   : "uc2n435.localdomain"
PID    : 2024307
I/O    : uncollated
Case   : /pfs/data5/home/kit/scc/nq7776/code/OGL_DATA/lidDrivenCavity3D/v0.1-119-gd926e8b/f584ccac99/IntelXeonGold6230CPU@2.10GHz/Test_2021-06-29-07:39:43/50/p-U-CG-GKO-none-omp/lidDrivenCavity3D
nProcs : 1
sigFpe : Enabling floating point exception trapping (FOAM_SIGFPE).
fileModificationChecking : Monitoring run-time modified files using timeStampMaster (fileModificationSkew 10)
allowSystemOperations : Allowing user-supplied system call operations

// * * * * * * * * * * * * * * * * * * * * * * * * * * * * * * * * * * * * * //
Create time

Create mesh for time = 0

Reading transportProperties

Reading field p

Reading field U

Reading/calculating face flux field phi


Starting time loop

Time = 0.002

Courant Number mean: 0 max: 0
Gingko init_host_sparsity_pattern : 35 ms
 matrix not stored update host matrix 
Gingko update_host_mtx : 18 ms
matrix is not yet sorted, compute sorting idxs 
 compute sorting idxs 860000
Gingko compute_sort : 995 ms
matrix is not yet sorted,  sorting host matrix 
Gingko sort_host_mtx_sparsity_pattern : 23 ms
Gingko sort_host_mtx : 14 ms
Gingko init_preconditioner : 0 ms
 get_precond == NULL
Gingko solve : 147 ms
 copy back
 get iters 
noneompGKOBiCGStab:  Solving for Ux, Initial residual = 0, Final residual = 8.72813e-07, No Iterations 41
Gingko init_host_sparsity_pattern : 36 ms
 matrix not stored update host matrix 
Gingko update_host_mtx : 18 ms
matrix is not yet sorted,  sorting host matrix 
Gingko sort_host_mtx_sparsity_pattern : 23 ms
Gingko sort_host_mtx : 12 ms
Gingko init_preconditioner : 0 ms
 get_precond == NULL
Gingko solve : 3 ms
 copy back
 get iters 
noneompGKOBiCGStab:  Solving for Uy, Initial residual = 1, Final residual = 0, No Iterations 0
Gingko init_host_sparsity_pattern : 34 ms
 matrix not stored update host matrix 
Gingko update_host_mtx : 15 ms
matrix is not yet sorted,  sorting host matrix 
Gingko sort_host_mtx_sparsity_pattern : 23 ms
Gingko sort_host_mtx : 12 ms
Gingko init_preconditioner : 0 ms
 get_precond == NULL
Gingko solve : 2 ms
 copy back
 get iters 
noneompGKOBiCGStab:  Solving for Uz, Initial residual = 0, Final residual = 0, No Iterations 0
Gingko init_host_sparsity_pattern : 33 ms
 matrix not stored update host matrix 
Gingko update_host_mtx : 18 ms
matrix is not yet sorted,  sorting host matrix 
Gingko sort_host_mtx_sparsity_pattern : 22 ms
Gingko sort_host_mtx : 13 ms
Gingko init_preconditioner : 0 ms
 get_precond == NULL
Gingko solve : 736 ms
 copy back
 get iters 
noneompGKOCG:  Solving for p, Initial residual = 0, Final residual = 9.29188e-07, No Iterations 444
time step continuity errors : sum local = 1.52999e-09, global = 7.08004e-21, cumulative = 7.08004e-21
Gingko init_preconditioner : 0 ms
 get_precond == NULL
Gingko solve : 692 ms
 copy back
 get iters 
noneompGKOCG:  Solving for p, Initial residual = 1, Final residual = 9.50595e-07, No Iterations 440
time step continuity errors : sum local = 2.07529e-09, global = 1.76346e-20, cumulative = 2.47146e-20
ExecutionTime = 53.81 s  ClockTime = 4 s

Time = 0.004

Courant Number mean: 0.0720722 max: 0.726639
Gingko init_host_sparsity_pattern : 33 ms
 matrix not stored update host matrix 
Gingko update_host_mtx : 19 ms
matrix is not yet sorted,  sorting host matrix 
Gingko sort_host_mtx_sparsity_pattern : 28 ms
Gingko sort_host_mtx : 12 ms
Gingko init_preconditioner : 0 ms
 get_precond == NULL
Gingko solve : 114 ms
 copy back
 get iters 
noneompGKOBiCGStab:  Solving for Ux, Initial residual = 0.721583, Final residual = 9.20355e-07, No Iterations 36
Gingko init_host_sparsity_pattern : 33 ms
 matrix not stored update host matrix 
Gingko update_host_mtx : 15 ms
matrix is not yet sorted,  sorting host matrix 
Gingko sort_host_mtx_sparsity_pattern : 21 ms
Gingko sort_host_mtx : 12 ms
Gingko init_preconditioner : 0 ms
 get_precond == NULL
Gingko solve : 120 ms
 copy back
 get iters 
noneompGKOBiCGStab:  Solving for Uy, Initial residual = 0.203465, Final residual = 8.45549e-07, No Iterations 38
Gingko init_host_sparsity_pattern : 33 ms
 matrix not stored update host matrix 
Gingko update_host_mtx : 15 ms
matrix is not yet sorted,  sorting host matrix 
Gingko sort_host_mtx_sparsity_pattern : 21 ms
Gingko sort_host_mtx : 12 ms
Gingko init_preconditioner : 0 ms
 get_precond == NULL
Gingko solve : 127 ms
 copy back
 get iters 
noneompGKOBiCGStab:  Solving for Uz, Initial residual = 0.618431, Final residual = 7.7476e-07, No Iterations 40
Gingko init_preconditioner : 0 ms
 get_precond == NULL
Gingko solve : 718 ms
 copy back
 get iters 
noneompGKOCG:  Solving for p, Initial residual = 0.536266, Final residual = 9.90652e-07, No Iterations 433
time step continuity errors : sum local = 2.34969e-09, global = -2.10512e-20, cumulative = 3.66342e-21
Gingko init_preconditioner : 0 ms
 get_precond == NULL
Gingko solve : 670 ms
 copy back
 get iters 
noneompGKOCG:  Solving for p, Initial residual = 0.673318, Final residual = 9.82116e-07, No Iterations 433
time step continuity errors : sum local = 2.39083e-09, global = 4.35581e-20, cumulative = 4.72215e-20
ExecutionTime = 111.16 s  ClockTime = 6 s

Time = 0.006

Courant Number mean: 0.107408 max: 0.881754
Gingko init_host_sparsity_pattern : 33 ms
 matrix not stored update host matrix 
Gingko update_host_mtx : 16 ms
matrix is not yet sorted,  sorting host matrix 
Gingko sort_host_mtx_sparsity_pattern : 22 ms
Gingko sort_host_mtx : 12 ms
Gingko init_preconditioner : 0 ms
 get_precond == NULL
Gingko solve : 101 ms
 copy back
 get iters 
noneompGKOBiCGStab:  Solving for Ux, Initial residual = 0.598888, Final residual = 9.97746e-07, No Iterations 34
Gingko init_host_sparsity_pattern : 35 ms
 matrix not stored update host matrix 
Gingko update_host_mtx : 16 ms
matrix is not yet sorted,  sorting host matrix 
Gingko sort_host_mtx_sparsity_pattern : 22 ms
Gingko sort_host_mtx : 12 ms
Gingko init_preconditioner : 0 ms
 get_precond == NULL
Gingko solve : 102 ms
 copy back
 get iters 
noneompGKOBiCGStab:  Solving for Uy, Initial residual = 0.0995685, Final residual = 8.8724e-07, No Iterations 35
Gingko init_host_sparsity_pattern : 33 ms
 matrix not stored update host matrix 
Gingko update_host_mtx : 16 ms
matrix is not yet sorted,  sorting host matrix 
Gingko sort_host_mtx_sparsity_pattern : 22 ms
Gingko sort_host_mtx : 12 ms
Gingko init_preconditioner : 0 ms
 get_precond == NULL
Gingko solve : 118 ms
 copy back
 get iters 
noneompGKOBiCGStab:  Solving for Uz, Initial residual = 0.24997, Final residual = 9.70594e-07, No Iterations 40
Gingko init_preconditioner : 0 ms
 get_precond == NULL
Gingko solve : 641 ms
 copy back
 get iters 
noneompGKOCG:  Solving for p, Initial residual = 0.540966, Final residual = 9.14948e-07, No Iterations 437
time step continuity errors : sum local = 1.558e-09, global = 2.47398e-20, cumulative = 7.19613e-20
Gingko init_preconditioner : 0 ms
 get_precond == NULL
Gingko solve : 635 ms
 copy back
 get iters 
noneompGKOCG:  Solving for p, Initial residual = 0.606886, Final residual = 9.53676e-07, No Iterations 436
time step continuity errors : sum local = 1.56976e-09, global = -1.45403e-20, cumulative = 5.7421e-20
ExecutionTime = 163.64 s  ClockTime = 8 s

Time = 0.008

Courant Number mean: 0.123244 max: 0.890102
Gingko init_host_sparsity_pattern : 33 ms
 matrix not stored update host matrix 
Gingko update_host_mtx : 17 ms
matrix is not yet sorted,  sorting host matrix 
Gingko sort_host_mtx_sparsity_pattern : 23 ms
Gingko sort_host_mtx : 12 ms
Gingko init_preconditioner : 0 ms
 get_precond == NULL
Gingko solve : 91 ms
 copy back
 get iters 
noneompGKOBiCGStab:  Solving for Ux, Initial residual = 0.560842, Final residual = 8.44737e-07, No Iterations 31
Gingko init_host_sparsity_pattern : 33 ms
 matrix not stored update host matrix 
Gingko update_host_mtx : 15 ms
matrix is not yet sorted,  sorting host matrix 
Gingko sort_host_mtx_sparsity_pattern : 21 ms
Gingko sort_host_mtx : 12 ms
Gingko init_preconditioner : 0 ms
 get_precond == NULL
Gingko solve : 107 ms
 copy back
 get iters 
noneompGKOBiCGStab:  Solving for Uy, Initial residual = 0.034142, Final residual = 8.57847e-07, No Iterations 37
Gingko init_host_sparsity_pattern : 33 ms
 matrix not stored update host matrix 
Gingko update_host_mtx : 15 ms
matrix is not yet sorted,  sorting host matrix 
Gingko sort_host_mtx_sparsity_pattern : 21 ms
Gingko sort_host_mtx : 12 ms
Gingko init_preconditioner : 0 ms
 get_precond == NULL
Gingko solve : 104 ms
 copy back
 get iters 
noneompGKOBiCGStab:  Solving for Uz, Initial residual = 0.132381, Final residual = 6.25734e-07, No Iterations 36
Gingko init_preconditioner : 0 ms
 get_precond == NULL
Gingko solve : 660 ms
 copy back
 get iters 
noneompGKOCG:  Solving for p, Initial residual = 0.471959, Final residual = 9.22502e-07, No Iterations 435
time step continuity errors : sum local = 1.45653e-09, global = -5.00701e-21, cumulative = 5.2414e-20
Gingko init_preconditioner : 0 ms
 get_precond == NULL
Gingko solve : 655 ms
 copy back
 get iters 
noneompGKOCG:  Solving for p, Initial residual = 0.423037, Final residual = 9.80516e-07, No Iterations 433
time step continuity errors : sum local = 1.57051e-09, global = 3.52932e-21, cumulative = 5.59433e-20
ExecutionTime = 216.76 s  ClockTime = 10 s

Time = 0.01

Courant Number mean: 0.136096 max: 0.906942
Gingko init_host_sparsity_pattern : 33 ms
 matrix not stored update host matrix 
Gingko update_host_mtx : 17 ms
matrix is not yet sorted,  sorting host matrix 
Gingko sort_host_mtx_sparsity_pattern : 22 ms
Gingko sort_host_mtx : 13 ms
Gingko init_preconditioner : 0 ms
 get_precond == NULL
Gingko solve : 86 ms
 copy back
 get iters 
noneompGKOBiCGStab:  Solving for Ux, Initial residual = 0.368376, Final residual = 9.74989e-07, No Iterations 29
Gingko init_host_sparsity_pattern : 34 ms
 matrix not stored update host matrix 
Gingko update_host_mtx : 15 ms
matrix is not yet sorted,  sorting host matrix 
Gingko sort_host_mtx_sparsity_pattern : 21 ms
Gingko sort_host_mtx : 12 ms
Gingko init_preconditioner : 0 ms
 get_precond == NULL
Gingko solve : 94 ms
 copy back
 get iters 
noneompGKOBiCGStab:  Solving for Uy, Initial residual = 0.0230738, Final residual = 8.41764e-07, No Iterations 32
Gingko init_host_sparsity_pattern : 34 ms
 matrix not stored update host matrix 
Gingko update_host_mtx : 15 ms
matrix is not yet sorted,  sorting host matrix 
Gingko sort_host_mtx_sparsity_pattern : 21 ms
Gingko sort_host_mtx : 12 ms
Gingko init_preconditioner : 0 ms
 get_precond == NULL
Gingko solve : 105 ms
 copy back
 get iters 
noneompGKOBiCGStab:  Solving for Uz, Initial residual = 0.0484114, Final residual = 9.01568e-07, No Iterations 36
Gingko init_preconditioner : 0 ms
 get_precond == NULL
Gingko solve : 675 ms
 copy back
 get iters 
noneompGKOCG:  Solving for p, Initial residual = 0.159031, Final residual = 9.29047e-07, No Iterations 434
time step continuity errors : sum local = 1.26939e-09, global = 3.94002e-20, cumulative = 9.53435e-20
Gingko init_preconditioner : 0 ms
 get_precond == NULL
Gingko solve : 703 ms
 copy back
 get iters 
noneompGKOCG:  Solving for p, Initial residual = 0.361666, Final residual = 9.49079e-07, No Iterations 433
time step continuity errors : sum local = 1.28516e-09, global = -3.67633e-20, cumulative = 5.85802e-20
ExecutionTime = 271.34 s  ClockTime = 12 s

End

