/*---------------------------------------------------------------------------*\
  =========                 |
  \\      /  F ield         | OpenFOAM: The Open Source CFD Toolbox
   \\    /   O peration     | Website:  https://openfoam.org
    \\  /    A nd           | Version:  8
     \\/     M anipulation  |
\*---------------------------------------------------------------------------*/
Build  : 8-13d66902f78c
Exec   : icoFoam
Date   : Jun 29 2021
Time   : 09:33:11
Host   : "uc2n551.localdomain"
PID    : 917175
I/O    : uncollated
Case   : /pfs/data5/home/kit/scc/nq7776/code/OGL_DATA/lidDrivenCavity3D/v0.1-119-gd926e8b/f584ccac99/IntelXeonGold6230CPU@2.10GHz/Test_2021-06-29-09:15:40/50/p-U-BiCGStab-GKO-BJ-omp/lidDrivenCavity3D
nProcs : 1
sigFpe : Enabling floating point exception trapping (FOAM_SIGFPE).
fileModificationChecking : Monitoring run-time modified files using timeStampMaster (fileModificationSkew 10)
allowSystemOperations : Allowing user-supplied system call operations

// * * * * * * * * * * * * * * * * * * * * * * * * * * * * * * * * * * * * * //
Create time

Create mesh for time = 0

Reading transportProperties

Reading field p

Reading field U

Reading/calculating face flux field phi


Starting time loop

Time = 0.002

Courant Number mean: 0 max: 0
Gingko init_host_sparsity_pattern : 35 ms
 matrix not stored update host matrix 
Gingko update_host_mtx : 18 ms
matrix is not yet sorted, compute sorting idxs 
 compute sorting idxs 860000
Gingko compute_sort : 991 ms
matrix is not yet sorted,  sorting host matrix 
Gingko sort_host_mtx_sparsity_pattern : 24 ms
Gingko sort_host_mtx : 15 ms
Gingko init_preconditioner : 10 ms
Gingko solve : 229 ms
 copy back
 get iters 
BJompGKOBiCGStab:  Solving for Ux, Initial residual = 0, Final residual = 8.40984e-07, No Iterations 31
Gingko init_host_sparsity_pattern : 34 ms
 matrix not stored update host matrix 
Gingko update_host_mtx : 18 ms
matrix is not yet sorted,  sorting host matrix 
Gingko sort_host_mtx_sparsity_pattern : 24 ms
Gingko sort_host_mtx : 12 ms
Gingko init_preconditioner : 10 ms
Gingko solve : 2 ms
 copy back
 get iters 
BJompGKOBiCGStab:  Solving for Uy, Initial residual = 1, Final residual = 0, No Iterations 0
Gingko init_host_sparsity_pattern : 32 ms
 matrix not stored update host matrix 
Gingko update_host_mtx : 15 ms
matrix is not yet sorted,  sorting host matrix 
Gingko sort_host_mtx_sparsity_pattern : 24 ms
Gingko sort_host_mtx : 12 ms
Gingko init_preconditioner : 11 ms
Gingko solve : 2 ms
 copy back
 get iters 
BJompGKOBiCGStab:  Solving for Uz, Initial residual = 0, Final residual = 0, No Iterations 0
Gingko init_host_sparsity_pattern : 32 ms
 matrix not stored update host matrix 
Gingko update_host_mtx : 18 ms
matrix is not yet sorted,  sorting host matrix 
Gingko sort_host_mtx_sparsity_pattern : 22 ms
Gingko sort_host_mtx : 14 ms
Gingko init_preconditioner : 10 ms
Gingko solve : 2185 ms
 copy back
 get iters 
BJompGKOBiCGStab:  Solving for p, Initial residual = 0, Final residual = 6.75597e-07, No Iterations 308
time step continuity errors : sum local = 2.06961e-08, global = 8.00845e-21, cumulative = 8.00845e-21
 found preconditioner 
Gingko init_preconditioner : 0 ms
Gingko solve : 1933 ms
 copy back
 get iters 
BJompGKOBiCGStab:  Solving for p, Initial residual = 1, Final residual = 7.80142e-07, No Iterations 276
time step continuity errors : sum local = 1.95666e-08, global = -1.39678e-20, cumulative = -5.95936e-21
ExecutionTime = 19.6 s  ClockTime = 6 s

Time = 0.004

Courant Number mean: 0.0720722 max: 0.726639
Gingko init_host_sparsity_pattern : 32 ms
 matrix not stored update host matrix 
Gingko update_host_mtx : 16 ms
matrix is not yet sorted,  sorting host matrix 
Gingko sort_host_mtx_sparsity_pattern : 24 ms
Gingko sort_host_mtx : 13 ms
 found preconditioner 
Gingko init_preconditioner : 0 ms
Gingko solve : 179 ms
 copy back
 get iters 
BJompGKOBiCGStab:  Solving for Ux, Initial residual = 0.721589, Final residual = 5.56032e-07, No Iterations 23
Gingko init_host_sparsity_pattern : 33 ms
 matrix not stored update host matrix 
Gingko update_host_mtx : 15 ms
matrix is not yet sorted,  sorting host matrix 
Gingko sort_host_mtx_sparsity_pattern : 23 ms
Gingko sort_host_mtx : 12 ms
 found preconditioner 
Gingko init_preconditioner : 0 ms
Gingko solve : 254 ms
 copy back
 get iters 
BJompGKOBiCGStab:  Solving for Uy, Initial residual = 0.203465, Final residual = 9.30814e-07, No Iterations 32
Gingko init_host_sparsity_pattern : 34 ms
 matrix not stored update host matrix 
Gingko update_host_mtx : 18 ms
matrix is not yet sorted,  sorting host matrix 
Gingko sort_host_mtx_sparsity_pattern : 24 ms
Gingko sort_host_mtx : 12 ms
 found preconditioner 
Gingko init_preconditioner : 0 ms
Gingko solve : 234 ms
 copy back
 get iters 
BJompGKOBiCGStab:  Solving for Uz, Initial residual = 0.61843, Final residual = 9.88179e-07, No Iterations 31
 found preconditioner 
Gingko init_preconditioner : 0 ms
Gingko solve : 1910 ms
 copy back
 get iters 
BJompGKOBiCGStab:  Solving for p, Initial residual = 0.536253, Final residual = 6.90671e-07, No Iterations 270
time step continuity errors : sum local = 4.65974e-08, global = -4.46252e-20, cumulative = -5.05846e-20
 found preconditioner 
Gingko init_preconditioner : 0 ms
Gingko solve : 1779 ms
 copy back
 get iters 
BJompGKOBiCGStab:  Solving for p, Initial residual = 0.673321, Final residual = 9.97237e-07, No Iterations 255
time step continuity errors : sum local = 4.74057e-08, global = -1.18058e-20, cumulative = -6.23903e-20
ExecutionTime = 37.46 s  ClockTime = 11 s

Time = 0.006

Courant Number mean: 0.107408 max: 0.881754
Gingko init_host_sparsity_pattern : 32 ms
 matrix not stored update host matrix 
Gingko update_host_mtx : 16 ms
matrix is not yet sorted,  sorting host matrix 
Gingko sort_host_mtx_sparsity_pattern : 23 ms
Gingko sort_host_mtx : 12 ms
 found preconditioner 
Gingko init_preconditioner : 0 ms
Gingko solve : 156 ms
 copy back
 get iters 
BJompGKOBiCGStab:  Solving for Ux, Initial residual = 0.598889, Final residual = 7.19021e-07, No Iterations 21
Gingko init_host_sparsity_pattern : 32 ms
 matrix not stored update host matrix 
Gingko update_host_mtx : 15 ms
matrix is not yet sorted,  sorting host matrix 
Gingko sort_host_mtx_sparsity_pattern : 23 ms
Gingko sort_host_mtx : 12 ms
 found preconditioner 
Gingko init_preconditioner : 0 ms
Gingko solve : 212 ms
 copy back
 get iters 
BJompGKOBiCGStab:  Solving for Uy, Initial residual = 0.0995611, Final residual = 8.21995e-07, No Iterations 29
Gingko init_host_sparsity_pattern : 32 ms
 matrix not stored update host matrix 
Gingko update_host_mtx : 15 ms
matrix is not yet sorted,  sorting host matrix 
Gingko sort_host_mtx_sparsity_pattern : 23 ms
Gingko sort_host_mtx : 12 ms
 found preconditioner 
Gingko init_preconditioner : 0 ms
Gingko solve : 234 ms
 copy back
 get iters 
BJompGKOBiCGStab:  Solving for Uz, Initial residual = 0.249993, Final residual = 9.0443e-07, No Iterations 32
 found preconditioner 
Gingko init_preconditioner : 0 ms
Gingko solve : 1891 ms
 copy back
 get iters 
BJompGKOBiCGStab:  Solving for p, Initial residual = 0.540762, Final residual = 8.76197e-07, No Iterations 267
time step continuity errors : sum local = 2.29096e-09, global = 3.18252e-20, cumulative = -3.05651e-20
 found preconditioner 
Gingko init_preconditioner : 0 ms
Gingko solve : 1944 ms
 copy back
 get iters 
BJompGKOBiCGStab:  Solving for p, Initial residual = 0.60689, Final residual = 6.68673e-07, No Iterations 279
time step continuity errors : sum local = 3.19419e-09, global = 3.59115e-20, cumulative = 5.34636e-21
ExecutionTime = 55.64 s  ClockTime = 16 s

Time = 0.008

Courant Number mean: 0.123244 max: 0.890104
Gingko init_host_sparsity_pattern : 32 ms
 matrix not stored update host matrix 
Gingko update_host_mtx : 17 ms
matrix is not yet sorted,  sorting host matrix 
Gingko sort_host_mtx_sparsity_pattern : 25 ms
Gingko sort_host_mtx : 13 ms
 found preconditioner 
Gingko init_preconditioner : 0 ms
Gingko solve : 185 ms
 copy back
 get iters 
BJompGKOBiCGStab:  Solving for Ux, Initial residual = 0.560893, Final residual = 7.89557e-07, No Iterations 25
Gingko init_host_sparsity_pattern : 32 ms
 matrix not stored update host matrix 
Gingko update_host_mtx : 15 ms
matrix is not yet sorted,  sorting host matrix 
Gingko sort_host_mtx_sparsity_pattern : 23 ms
Gingko sort_host_mtx : 12 ms
 found preconditioner 
Gingko init_preconditioner : 0 ms
Gingko solve : 206 ms
 copy back
 get iters 
BJompGKOBiCGStab:  Solving for Uy, Initial residual = 0.034139, Final residual = 8.14579e-07, No Iterations 28
Gingko init_host_sparsity_pattern : 32 ms
 matrix not stored update host matrix 
Gingko update_host_mtx : 15 ms
matrix is not yet sorted,  sorting host matrix 
Gingko sort_host_mtx_sparsity_pattern : 23 ms
Gingko sort_host_mtx : 12 ms
 found preconditioner 
Gingko init_preconditioner : 0 ms
Gingko solve : 228 ms
 copy back
 get iters 
BJompGKOBiCGStab:  Solving for Uz, Initial residual = 0.132381, Final residual = 9.32241e-07, No Iterations 31
 found preconditioner 
Gingko init_preconditioner : 0 ms
Gingko solve : 1894 ms
 copy back
 get iters 
BJompGKOBiCGStab:  Solving for p, Initial residual = 0.472006, Final residual = 9.31486e-07, No Iterations 269
time step continuity errors : sum local = 4.83721e-09, global = -9.80721e-21, cumulative = -4.46085e-21
 found preconditioner 
Gingko init_preconditioner : 0 ms
Gingko solve : 1908 ms
 copy back
 get iters 
BJompGKOBiCGStab:  Solving for p, Initial residual = 0.423032, Final residual = 9.03637e-07, No Iterations 274
time step continuity errors : sum local = 2.50975e-09, global = -6.26292e-22, cumulative = -5.08714e-21
ExecutionTime = 73.76 s  ClockTime = 21 s

Time = 0.01

Courant Number mean: 0.136096 max: 0.906942
Gingko init_host_sparsity_pattern : 32 ms
 matrix not stored update host matrix 
Gingko update_host_mtx : 16 ms
matrix is not yet sorted,  sorting host matrix 
Gingko sort_host_mtx_sparsity_pattern : 23 ms
Gingko sort_host_mtx : 12 ms
 found preconditioner 
Gingko init_preconditioner : 0 ms
Gingko solve : 179 ms
 copy back
 get iters 
BJompGKOBiCGStab:  Solving for Ux, Initial residual = 0.368366, Final residual = 7.33064e-07, No Iterations 24
Gingko init_host_sparsity_pattern : 32 ms
 matrix not stored update host matrix 
Gingko update_host_mtx : 16 ms
matrix is not yet sorted,  sorting host matrix 
Gingko sort_host_mtx_sparsity_pattern : 23 ms
Gingko sort_host_mtx : 12 ms
 found preconditioner 
Gingko init_preconditioner : 0 ms
Gingko solve : 184 ms
 copy back
 get iters 
BJompGKOBiCGStab:  Solving for Uy, Initial residual = 0.0230748, Final residual = 9.76886e-07, No Iterations 25
Gingko init_host_sparsity_pattern : 32 ms
 matrix not stored update host matrix 
Gingko update_host_mtx : 15 ms
matrix is not yet sorted,  sorting host matrix 
Gingko sort_host_mtx_sparsity_pattern : 23 ms
Gingko sort_host_mtx : 12 ms
 found preconditioner 
Gingko init_preconditioner : 0 ms
Gingko solve : 205 ms
 copy back
 get iters 
BJompGKOBiCGStab:  Solving for Uz, Initial residual = 0.0484051, Final residual = 8.51824e-07, No Iterations 28
 found preconditioner 
Gingko init_preconditioner : 0 ms
Gingko solve : 1823 ms
 copy back
 get iters 
BJompGKOBiCGStab:  Solving for p, Initial residual = 0.159173, Final residual = 8.46971e-07, No Iterations 260
time step continuity errors : sum local = 2.26525e-09, global = -1.26096e-20, cumulative = -1.76967e-20
 found preconditioner 
Gingko init_preconditioner : 0 ms
Gingko solve : 1757 ms
 copy back
 get iters 
BJompGKOBiCGStab:  Solving for p, Initial residual = 0.361671, Final residual = 9.74124e-07, No Iterations 252
time step continuity errors : sum local = 1.33603e-09, global = 2.03882e-20, cumulative = 2.69149e-21
ExecutionTime = 90.79 s  ClockTime = 25 s

End

