/*---------------------------------------------------------------------------*\
  =========                 |
  \\      /  F ield         | OpenFOAM: The Open Source CFD Toolbox
   \\    /   O peration     | Website:  https://openfoam.org
    \\  /    A nd           | Version:  8
     \\/     M anipulation  |
\*---------------------------------------------------------------------------*/
Build  : 8-13d66902f78c
Exec   : icoFoam
Date   : Jun 29 2021
Time   : 07:53:06
Host   : "uc2n404.localdomain"
PID    : 3045687
I/O    : uncollated
Case   : /pfs/data5/home/kit/scc/nq7776/code/OGL_DATA/lidDrivenCavity3D/v0.1-119-gd926e8b/f584ccac99/IntelXeonGold6230CPU@2.10GHz/Test_2021-06-29-07:42:59/50/p-U-BiCGStab-GKO-none-omp/lidDrivenCavity3D
nProcs : 1
sigFpe : Enabling floating point exception trapping (FOAM_SIGFPE).
fileModificationChecking : Monitoring run-time modified files using timeStampMaster (fileModificationSkew 10)
allowSystemOperations : Allowing user-supplied system call operations

// * * * * * * * * * * * * * * * * * * * * * * * * * * * * * * * * * * * * * //
Create time

Create mesh for time = 0

Reading transportProperties

Reading field p

Reading field U

Reading/calculating face flux field phi


Starting time loop

Time = 0.002

Courant Number mean: 0 max: 0
Gingko init_host_sparsity_pattern : 35 ms
 matrix not stored update host matrix 
Gingko update_host_mtx : 18 ms
matrix is not yet sorted, compute sorting idxs 
 compute sorting idxs 860000
Gingko compute_sort : 993 ms
matrix is not yet sorted,  sorting host matrix 
Gingko sort_host_mtx_sparsity_pattern : 23 ms
Gingko sort_host_mtx : 14 ms
Gingko init_preconditioner : 0 ms
 get_precond == NULL
Gingko solve : 207 ms
 copy back
 get iters 
noneompGKOBiCGStab:  Solving for Ux, Initial residual = 0, Final residual = 8.72813e-07, No Iterations 41
Gingko init_host_sparsity_pattern : 34 ms
 matrix not stored update host matrix 
Gingko update_host_mtx : 18 ms
matrix is not yet sorted,  sorting host matrix 
Gingko sort_host_mtx_sparsity_pattern : 23 ms
Gingko sort_host_mtx : 12 ms
Gingko init_preconditioner : 0 ms
 get_precond == NULL
Gingko solve : 3 ms
 copy back
 get iters 
noneompGKOBiCGStab:  Solving for Uy, Initial residual = 1, Final residual = 0, No Iterations 0
Gingko init_host_sparsity_pattern : 32 ms
 matrix not stored update host matrix 
Gingko update_host_mtx : 15 ms
matrix is not yet sorted,  sorting host matrix 
Gingko sort_host_mtx_sparsity_pattern : 23 ms
Gingko sort_host_mtx : 12 ms
Gingko init_preconditioner : 0 ms
 get_precond == NULL
Gingko solve : 3 ms
 copy back
 get iters 
noneompGKOBiCGStab:  Solving for Uz, Initial residual = 0, Final residual = 0, No Iterations 0
Gingko init_host_sparsity_pattern : 32 ms
 matrix not stored update host matrix 
Gingko update_host_mtx : 19 ms
matrix is not yet sorted,  sorting host matrix 
Gingko sort_host_mtx_sparsity_pattern : 22 ms
Gingko sort_host_mtx : 14 ms
Gingko init_preconditioner : 0 ms
 get_precond == NULL
Gingko solve : 1890 ms
 copy back
 get iters 
noneompGKOBiCGStab:  Solving for p, Initial residual = 0, Final residual = 8.43708e-07, No Iterations 349
time step continuity errors : sum local = 6.80484e-09, global = -3.71014e-21, cumulative = -3.71014e-21
Gingko init_preconditioner : 0 ms
 get_precond == NULL
Gingko solve : 1783 ms
 copy back
 get iters 
noneompGKOBiCGStab:  Solving for p, Initial residual = 1, Final residual = 4.27719e-08, No Iterations 340
time step continuity errors : sum local = 1.09095e-07, global = -1.53838e-20, cumulative = -1.90939e-20
ExecutionTime = 9.77 s  ClockTime = 6 s

Time = 0.004

Courant Number mean: 0.0720723 max: 0.726639
Gingko init_host_sparsity_pattern : 32 ms
 matrix not stored update host matrix 
Gingko update_host_mtx : 16 ms
matrix is not yet sorted,  sorting host matrix 
Gingko sort_host_mtx_sparsity_pattern : 23 ms
Gingko sort_host_mtx : 12 ms
Gingko init_preconditioner : 0 ms
 get_precond == NULL
Gingko solve : 206 ms
 copy back
 get iters 
noneompGKOBiCGStab:  Solving for Ux, Initial residual = 0.721586, Final residual = 7.52941e-07, No Iterations 38
Gingko init_host_sparsity_pattern : 32 ms
 matrix not stored update host matrix 
Gingko update_host_mtx : 16 ms
matrix is not yet sorted,  sorting host matrix 
Gingko sort_host_mtx_sparsity_pattern : 21 ms
Gingko sort_host_mtx : 12 ms
Gingko init_preconditioner : 0 ms
 get_precond == NULL
Gingko solve : 224 ms
 copy back
 get iters 
noneompGKOBiCGStab:  Solving for Uy, Initial residual = 0.203477, Final residual = 6.9587e-07, No Iterations 41
Gingko init_host_sparsity_pattern : 32 ms
 matrix not stored update host matrix 
Gingko update_host_mtx : 16 ms
matrix is not yet sorted,  sorting host matrix 
Gingko sort_host_mtx_sparsity_pattern : 21 ms
Gingko sort_host_mtx : 12 ms
Gingko init_preconditioner : 0 ms
 get_precond == NULL
Gingko solve : 216 ms
 copy back
 get iters 
noneompGKOBiCGStab:  Solving for Uz, Initial residual = 0.61842, Final residual = 4.21803e-07, No Iterations 40
Gingko init_preconditioner : 0 ms
 get_precond == NULL
Gingko solve : 1867 ms
 copy back
 get iters 
noneompGKOBiCGStab:  Solving for p, Initial residual = 0.536771, Final residual = 7.82972e-07, No Iterations 350
time step continuity errors : sum local = 1.16097e-08, global = 1.26408e-20, cumulative = -6.45308e-21
Gingko init_preconditioner : 0 ms
 get_precond == NULL
Gingko solve : 1869 ms
 copy back
 get iters 
noneompGKOBiCGStab:  Solving for p, Initial residual = 0.673316, Final residual = 8.38962e-07, No Iterations 346
time step continuity errors : sum local = 2.52569e-08, global = 2.45179e-20, cumulative = 1.80649e-20
ExecutionTime = 18.93 s  ClockTime = 10 s

Time = 0.006

Courant Number mean: 0.107409 max: 0.881757
Gingko init_host_sparsity_pattern : 32 ms
 matrix not stored update host matrix 
Gingko update_host_mtx : 16 ms
matrix is not yet sorted,  sorting host matrix 
Gingko sort_host_mtx_sparsity_pattern : 24 ms
Gingko sort_host_mtx : 12 ms
Gingko init_preconditioner : 0 ms
 get_precond == NULL
Gingko solve : 191 ms
 copy back
 get iters 
noneompGKOBiCGStab:  Solving for Ux, Initial residual = 0.598875, Final residual = 9.60857e-07, No Iterations 34
Gingko init_host_sparsity_pattern : 32 ms
 matrix not stored update host matrix 
Gingko update_host_mtx : 15 ms
matrix is not yet sorted,  sorting host matrix 
Gingko sort_host_mtx_sparsity_pattern : 21 ms
Gingko sort_host_mtx : 12 ms
Gingko init_preconditioner : 0 ms
 get_precond == NULL
Gingko solve : 196 ms
 copy back
 get iters 
noneompGKOBiCGStab:  Solving for Uy, Initial residual = 0.0995944, Final residual = 8.92454e-07, No Iterations 35
Gingko init_host_sparsity_pattern : 32 ms
 matrix not stored update host matrix 
Gingko update_host_mtx : 16 ms
matrix is not yet sorted,  sorting host matrix 
Gingko sort_host_mtx_sparsity_pattern : 21 ms
Gingko sort_host_mtx : 12 ms
Gingko init_preconditioner : 0 ms
 get_precond == NULL
Gingko solve : 228 ms
 copy back
 get iters 
noneompGKOBiCGStab:  Solving for Uz, Initial residual = 0.249911, Final residual = 7.22769e-07, No Iterations 41
Gingko init_preconditioner : 0 ms
 get_precond == NULL
Gingko solve : 1963 ms
 copy back
 get iters 
noneompGKOBiCGStab:  Solving for p, Initial residual = 0.542814, Final residual = 7.52753e-07, No Iterations 368
time step continuity errors : sum local = 1.09462e-08, global = -1.07351e-20, cumulative = 7.32979e-21
Gingko init_preconditioner : 0 ms
 get_precond == NULL
Gingko solve : 1903 ms
 copy back
 get iters 
noneompGKOBiCGStab:  Solving for p, Initial residual = 0.606908, Final residual = 7.63339e-07, No Iterations 354
time step continuity errors : sum local = 7.01535e-09, global = -3.25037e-22, cumulative = 7.00475e-21
ExecutionTime = 28.26 s  ClockTime = 15 s

Time = 0.008

Courant Number mean: 0.123244 max: 0.890102
Gingko init_host_sparsity_pattern : 32 ms
 matrix not stored update host matrix 
Gingko update_host_mtx : 16 ms
matrix is not yet sorted,  sorting host matrix 
Gingko sort_host_mtx_sparsity_pattern : 21 ms
Gingko sort_host_mtx : 12 ms
Gingko init_preconditioner : 0 ms
 get_precond == NULL
Gingko solve : 178 ms
 copy back
 get iters 
noneompGKOBiCGStab:  Solving for Ux, Initial residual = 0.560815, Final residual = 8.48593e-07, No Iterations 31
Gingko init_host_sparsity_pattern : 32 ms
 matrix not stored update host matrix 
Gingko update_host_mtx : 15 ms
matrix is not yet sorted,  sorting host matrix 
Gingko sort_host_mtx_sparsity_pattern : 21 ms
Gingko sort_host_mtx : 12 ms
Gingko init_preconditioner : 0 ms
 get_precond == NULL
Gingko solve : 196 ms
 copy back
 get iters 
noneompGKOBiCGStab:  Solving for Uy, Initial residual = 0.0341485, Final residual = 5.65203e-07, No Iterations 35
Gingko init_host_sparsity_pattern : 33 ms
 matrix not stored update host matrix 
Gingko update_host_mtx : 17 ms
matrix is not yet sorted,  sorting host matrix 
Gingko sort_host_mtx_sparsity_pattern : 21 ms
Gingko sort_host_mtx : 12 ms
Gingko init_preconditioner : 0 ms
 get_precond == NULL
Gingko solve : 204 ms
 copy back
 get iters 
noneompGKOBiCGStab:  Solving for Uz, Initial residual = 0.132382, Final residual = 9.04465e-07, No Iterations 37
Gingko init_preconditioner : 0 ms
 get_precond == NULL
Gingko solve : 1929 ms
 copy back
 get iters 
noneompGKOBiCGStab:  Solving for p, Initial residual = 0.473188, Final residual = 6.82896e-07, No Iterations 359
time step continuity errors : sum local = 8.27968e-09, global = -9.74225e-21, cumulative = -2.7375e-21
Gingko init_preconditioner : 0 ms
 get_precond == NULL
Gingko solve : 1958 ms
 copy back
 get iters 
noneompGKOBiCGStab:  Solving for p, Initial residual = 0.423059, Final residual = 9.24895e-07, No Iterations 365
time step continuity errors : sum local = 5.10737e-09, global = -1.80049e-20, cumulative = -2.07424e-20
ExecutionTime = 37.57 s  ClockTime = 20 s

Time = 0.01

Courant Number mean: 0.136096 max: 0.906943
Gingko init_host_sparsity_pattern : 32 ms
 matrix not stored update host matrix 
Gingko update_host_mtx : 16 ms
matrix is not yet sorted,  sorting host matrix 
Gingko sort_host_mtx_sparsity_pattern : 21 ms
Gingko sort_host_mtx : 12 ms
Gingko init_preconditioner : 0 ms
 get_precond == NULL
Gingko solve : 175 ms
 copy back
 get iters 
noneompGKOBiCGStab:  Solving for Ux, Initial residual = 0.368416, Final residual = 9.94562e-07, No Iterations 29
Gingko init_host_sparsity_pattern : 34 ms
 matrix not stored update host matrix 
Gingko update_host_mtx : 19 ms
matrix is not yet sorted,  sorting host matrix 
Gingko sort_host_mtx_sparsity_pattern : 22 ms
Gingko sort_host_mtx : 12 ms
Gingko init_preconditioner : 0 ms
 get_precond == NULL
Gingko solve : 180 ms
 copy back
 get iters 
noneompGKOBiCGStab:  Solving for Uy, Initial residual = 0.0230684, Final residual = 8.1877e-07, No Iterations 32
Gingko init_host_sparsity_pattern : 32 ms
 matrix not stored update host matrix 
Gingko update_host_mtx : 16 ms
matrix is not yet sorted,  sorting host matrix 
Gingko sort_host_mtx_sparsity_pattern : 21 ms
Gingko sort_host_mtx : 12 ms
Gingko init_preconditioner : 0 ms
 get_precond == NULL
Gingko solve : 200 ms
 copy back
 get iters 
noneompGKOBiCGStab:  Solving for Uz, Initial residual = 0.0484418, Final residual = 4.54822e-07, No Iterations 36
Gingko init_preconditioner : 0 ms
 get_precond == NULL
Gingko solve : 1829 ms
 copy back
 get iters 
noneompGKOBiCGStab:  Solving for p, Initial residual = 0.159221, Final residual = 7.13201e-07, No Iterations 332
time step continuity errors : sum local = 7.55938e-09, global = 2.63401e-20, cumulative = 5.5977e-21
Gingko init_preconditioner : 0 ms
 get_precond == NULL
Gingko solve : 1775 ms
 copy back
 get iters 
noneompGKOBiCGStab:  Solving for p, Initial residual = 0.361671, Final residual = 7.25798e-07, No Iterations 324
time step continuity errors : sum local = 2.64549e-08, global = -9.85215e-21, cumulative = -4.25445e-21
ExecutionTime = 46.28 s  ClockTime = 25 s

End

