/*---------------------------------------------------------------------------*\
  =========                 |
  \\      /  F ield         | OpenFOAM: The Open Source CFD Toolbox
   \\    /   O peration     | Website:  https://openfoam.org
    \\  /    A nd           | Version:  8
     \\/     M anipulation  |
\*---------------------------------------------------------------------------*/
Build  : 8-13d66902f78c
Exec   : icoFoam
Date   : Jul 13 2021
Time   : 22:15:33
Host   : "uc2n485.localdomain"
PID    : 520884
I/O    : uncollated
Case   : /pfs/data5/home/kit/scc/nq7776/code/OGL_DATA/lidDrivenCavity3D/v0.1-136-g40fef35/f584ccac99/TeslaV100-SXM2-32GB/Test_2021-07-13-22:12:35/75/p-CG-GKO-BJ-cuda/lidDrivenCavity3D
nProcs : 1
sigFpe : Enabling floating point exception trapping (FOAM_SIGFPE).
fileModificationChecking : Monitoring run-time modified files using timeStampMaster (fileModificationSkew 10)
allowSystemOperations : Allowing user-supplied system call operations

// * * * * * * * * * * * * * * * * * * * * * * * * * * * * * * * * * * * * * //
Create time

Create mesh for time = 0

Reading transportProperties

Reading field p

Reading field U

Reading/calculating face flux field phi


Starting time loop

Time = 0.00133333

Courant Number mean: 0 max: 0
nonePBiCGStab:  Solving for Ux, Initial residual = 1, Final residual = 0.0730209, No Iterations 5
nonePBiCGStab:  Solving for Uy, Initial residual = 0, Final residual = 0, No Iterations 0
nonePBiCGStab:  Solving for Uz, Initial residual = 0, Final residual = 0, No Iterations 0
[OGL LOG] init_host_sparsity_pattern : 123 ms
[OGL LOG] matrix not stored update host matrix
[OGL LOG] update_host_mtx : 66 ms
[OGL LOG] matrix is not yet sorted, compute sorting idxs
[OGL LOG] compute_sort : 3358 ms
[OGL LOG] matrix is not yet sorted, sorting host matrix
[OGL LOG] sort_host_mtx_sparsity_pattern : 82 ms
[OGL LOG] sort_host_mtx : 45 ms
[OGL LOG] init_preconditioner : 45 ms
 CG create  precond 
[OGL LOG] solve : 480 ms
BJcudaGKOCG:  Solving for p, Initial residual = 1, Final residual = 9.77966e-07, No Iterations 655
time step continuity errors : sum local = 6.21367e-10, global = 1.57907e-20, cumulative = 1.57907e-20
[OGL LOG] init_preconditioner : 0 ms
 CG create  precond 
[OGL LOG] solve : 474 ms
BJcudaGKOCG:  Solving for p, Initial residual = 0.697098, Final residual = 9.85197e-07, No Iterations 650
time step continuity errors : sum local = 8.73083e-10, global = 1.65706e-20, cumulative = 3.23612e-20
ExecutionTime = 7.8 s  ClockTime = 8 s

Time = 0.00266667

Courant Number mean: 0.0508075 max: 0.767258
nonePBiCGStab:  Solving for Ux, Initial residual = 0.140589, Final residual = 0.0324514, No Iterations 5
nonePBiCGStab:  Solving for Uy, Initial residual = 0.413641, Final residual = 0.092326, No Iterations 5
nonePBiCGStab:  Solving for Uz, Initial residual = 0.983212, Final residual = 0.249881, No Iterations 5
[OGL LOG] init_preconditioner : 0 ms
 CG create  precond 
[OGL LOG] solve : 466 ms
BJcudaGKOCG:  Solving for p, Initial residual = 0.746892, Final residual = 9.88162e-07, No Iterations 639
time step continuity errors : sum local = 1.54143e-09, global = -7.17896e-22, cumulative = 3.16433e-20
[OGL LOG] init_preconditioner : 0 ms
 CG create  precond 
[OGL LOG] solve : 471 ms
BJcudaGKOCG:  Solving for p, Initial residual = 0.668132, Final residual = 9.63487e-07, No Iterations 634
time step continuity errors : sum local = 1.3365e-09, global = -1.33097e-20, cumulative = 1.83336e-20
ExecutionTime = 9.31 s  ClockTime = 9 s

Time = 0.004

Courant Number mean: 0.0796134 max: 0.886044
nonePBiCGStab:  Solving for Ux, Initial residual = 0.0584495, Final residual = 0.0111487, No Iterations 5
nonePBiCGStab:  Solving for Uy, Initial residual = 0.171954, Final residual = 0.0398777, No Iterations 5
nonePBiCGStab:  Solving for Uz, Initial residual = 0.61095, Final residual = 0.142318, No Iterations 5
[OGL LOG] init_preconditioner : 0 ms
 CG create  precond 
[OGL LOG] solve : 479 ms
BJcudaGKOCG:  Solving for p, Initial residual = 0.73036, Final residual = 9.99757e-07, No Iterations 646
time step continuity errors : sum local = 1.15838e-09, global = 1.57831e-21, cumulative = 1.99119e-20
[OGL LOG] init_preconditioner : 0 ms
 CG create  precond 
[OGL LOG] solve : 478 ms
BJcudaGKOCG:  Solving for p, Initial residual = 0.660892, Final residual = 9.50644e-07, No Iterations 645
time step continuity errors : sum local = 9.49452e-10, global = -1.81475e-20, cumulative = 1.76444e-21
ExecutionTime = 10.87 s  ClockTime = 11 s

Time = 0.00533333

Courant Number mean: 0.0948106 max: 0.902572
nonePBiCGStab:  Solving for Ux, Initial residual = 0.034594, Final residual = 0.00682892, No Iterations 5
nonePBiCGStab:  Solving for Uy, Initial residual = 0.11955, Final residual = 0.0298198, No Iterations 5
nonePBiCGStab:  Solving for Uz, Initial residual = 0.386284, Final residual = 0.0806807, No Iterations 5
[OGL LOG] init_preconditioner : 0 ms
 CG create  precond 
[OGL LOG] solve : 469 ms
BJcudaGKOCG:  Solving for p, Initial residual = 0.609797, Final residual = 9.76582e-07, No Iterations 632
time step continuity errors : sum local = 1.02874e-09, global = 5.89404e-21, cumulative = 7.65848e-21
[OGL LOG] init_preconditioner : 0 ms
 CG create  precond 
[OGL LOG] solve : 466 ms
BJcudaGKOCG:  Solving for p, Initial residual = 0.521107, Final residual = 9.64723e-07, No Iterations 630
time step continuity errors : sum local = 9.92362e-10, global = 3.57128e-21, cumulative = 1.12298e-20
ExecutionTime = 12.38 s  ClockTime = 12 s

Time = 0.00666667

Courant Number mean: 0.107177 max: 0.916781
nonePBiCGStab:  Solving for Ux, Initial residual = 0.0257325, Final residual = 0.00503142, No Iterations 5
nonePBiCGStab:  Solving for Uy, Initial residual = 0.0750463, Final residual = 0.0208208, No Iterations 5
nonePBiCGStab:  Solving for Uz, Initial residual = 0.212731, Final residual = 0.0495457, No Iterations 5
[OGL LOG] init_preconditioner : 0 ms
 CG create  precond 
[OGL LOG] solve : 468 ms
BJcudaGKOCG:  Solving for p, Initial residual = 0.629324, Final residual = 9.36028e-07, No Iterations 631
time step continuity errors : sum local = 8.69494e-10, global = -2.69296e-20, cumulative = -1.56999e-20
[OGL LOG] init_preconditioner : 0 ms
 CG create  precond 
[OGL LOG] solve : 463 ms
BJcudaGKOCG:  Solving for p, Initial residual = 0.552157, Final residual = 9.63081e-07, No Iterations 629
time step continuity errors : sum local = 8.28678e-10, global = 2.09973e-21, cumulative = -1.36001e-20
ExecutionTime = 13.91 s  ClockTime = 14 s

End

