/*---------------------------------------------------------------------------*\
  =========                 |
  \\      /  F ield         | OpenFOAM: The Open Source CFD Toolbox
   \\    /   O peration     | Website:  https://openfoam.org
    \\  /    A nd           | Version:  8
     \\/     M anipulation  |
\*---------------------------------------------------------------------------*/
Build  : 8-13d66902f78c
Exec   : icoFoam
Date   : Jul 13 2021
Time   : 22:58:46
Host   : "uc2n485.localdomain"
PID    : 575785
I/O    : uncollated
Case   : /pfs/data5/home/kit/scc/nq7776/code/OGL_DATA/lidDrivenCavity3D/v0.1-136-g40fef35/f584ccac99/TeslaV100-SXM2-32GB/Test_2021-07-13-22:53:08/100/p-U-CG-GKO-BJ-cuda/lidDrivenCavity3D
nProcs : 1
sigFpe : Enabling floating point exception trapping (FOAM_SIGFPE).
fileModificationChecking : Monitoring run-time modified files using timeStampMaster (fileModificationSkew 10)
allowSystemOperations : Allowing user-supplied system call operations

// * * * * * * * * * * * * * * * * * * * * * * * * * * * * * * * * * * * * * //
Create time

Create mesh for time = 0

Reading transportProperties

Reading field p

Reading field U

Reading/calculating face flux field phi


Starting time loop

Time = 0.001

Courant Number mean: 0 max: 0
[OGL LOG] init_host_sparsity_pattern : 285 ms
[OGL LOG] matrix not stored update host matrix
[OGL LOG] update_host_mtx : 145 ms
[OGL LOG] matrix is not yet sorted, compute sorting idxs
[OGL LOG] compute_sort : 8360 ms
[OGL LOG] matrix is not yet sorted, sorting host matrix
[OGL LOG] sort_host_mtx_sparsity_pattern : 189 ms
[OGL LOG] sort_host_mtx : 116 ms
[OGL LOG] init_preconditioner : 110 ms
[OGL LOG] solve : 190 ms
BJcudaGKOBiCGStab:  Solving for Ux, Initial residual = 1, Final residual = 5.77174e-07, No Iterations 56
[OGL LOG] init_host_sparsity_pattern : 268 ms
[OGL LOG] matrix not stored update host matrix
[OGL LOG] update_host_mtx : 152 ms
[OGL LOG] matrix is not yet sorted, sorting host matrix
[OGL LOG] sort_host_mtx_sparsity_pattern : 187 ms
[OGL LOG] sort_host_mtx : 105 ms
[OGL LOG] init_preconditioner : 109 ms
[OGL LOG] solve : 27 ms
BJcudaGKOBiCGStab:  Solving for Uy, Initial residual = 0, Final residual = 0, No Iterations 0
[OGL LOG] init_host_sparsity_pattern : 266 ms
[OGL LOG] matrix not stored update host matrix
[OGL LOG] update_host_mtx : 127 ms
[OGL LOG] matrix is not yet sorted, sorting host matrix
[OGL LOG] sort_host_mtx_sparsity_pattern : 191 ms
[OGL LOG] sort_host_mtx : 104 ms
[OGL LOG] init_preconditioner : 111 ms
[OGL LOG] solve : 27 ms
BJcudaGKOBiCGStab:  Solving for Uz, Initial residual = 0, Final residual = 0, No Iterations 0
[OGL LOG] init_host_sparsity_pattern : 267 ms
[OGL LOG] matrix not stored update host matrix
[OGL LOG] update_host_mtx : 146 ms
[OGL LOG] matrix is not yet sorted, sorting host matrix
[OGL LOG] sort_host_mtx_sparsity_pattern : 193 ms
[OGL LOG] sort_host_mtx : 104 ms
[OGL LOG] init_preconditioner : 110 ms
 CG create  precond 
[OGL LOG] solve : 1301 ms
BJcudaGKOCG:  Solving for p, Initial residual = 1, Final residual = 9.78731e-07, No Iterations 888
time step continuity errors : sum local = 5.86802e-10, global = -3.19832e-21, cumulative = -3.19832e-21
[OGL LOG] init_preconditioner : 0 ms
 CG create  precond 
[OGL LOG] solve : 1273 ms
BJcudaGKOCG:  Solving for p, Initial residual = 0.783584, Final residual = 9.49136e-07, No Iterations 882
time step continuity errors : sum local = 7.11438e-10, global = -2.41978e-21, cumulative = -5.6181e-21
ExecutionTime = 20.25 s  ClockTime = 20 s

Time = 0.002

Courant Number mean: 0.0571435 max: 0.804774
[OGL LOG] init_host_sparsity_pattern : 280 ms
[OGL LOG] matrix not stored update host matrix
[OGL LOG] update_host_mtx : 145 ms
[OGL LOG] matrix is not yet sorted, sorting host matrix
[OGL LOG] sort_host_mtx_sparsity_pattern : 199 ms
[OGL LOG] sort_host_mtx : 107 ms
[OGL LOG] init_preconditioner : 0 ms
[OGL LOG] solve : 149 ms
BJcudaGKOBiCGStab:  Solving for Ux, Initial residual = 0.169075, Final residual = 9.73428e-07, No Iterations 49
[OGL LOG] init_host_sparsity_pattern : 280 ms
[OGL LOG] matrix not stored update host matrix
[OGL LOG] update_host_mtx : 146 ms
[OGL LOG] matrix is not yet sorted, sorting host matrix
[OGL LOG] sort_host_mtx_sparsity_pattern : 190 ms
[OGL LOG] sort_host_mtx : 104 ms
[OGL LOG] init_preconditioner : 0 ms
[OGL LOG] solve : 160 ms
BJcudaGKOBiCGStab:  Solving for Uy, Initial residual = 0.620181, Final residual = 9.47436e-07, No Iterations 54
[OGL LOG] init_host_sparsity_pattern : 277 ms
[OGL LOG] matrix not stored update host matrix
[OGL LOG] update_host_mtx : 146 ms
[OGL LOG] matrix is not yet sorted, sorting host matrix
[OGL LOG] sort_host_mtx_sparsity_pattern : 191 ms
[OGL LOG] sort_host_mtx : 104 ms
[OGL LOG] init_preconditioner : 0 ms
[OGL LOG] solve : 158 ms
BJcudaGKOBiCGStab:  Solving for Uz, Initial residual = 0.646977, Final residual = 9.19748e-07, No Iterations 53
[OGL LOG] init_preconditioner : 0 ms
 CG create  precond 
[OGL LOG] solve : 1258 ms
BJcudaGKOCG:  Solving for p, Initial residual = 0.798453, Final residual = 9.70082e-07, No Iterations 872
time step continuity errors : sum local = 9.86536e-10, global = -3.09931e-21, cumulative = -8.7174e-21
[OGL LOG] init_preconditioner : 0 ms
 CG create  precond 
[OGL LOG] solve : 1245 ms
BJcudaGKOCG:  Solving for p, Initial residual = 0.738608, Final residual = 9.81225e-07, No Iterations 866
time step continuity errors : sum local = 1.01932e-09, global = 7.69959e-21, cumulative = -1.01782e-21
ExecutionTime = 26.3 s  ClockTime = 26 s

Time = 0.003

Courant Number mean: 0.0867389 max: 0.944826
[OGL LOG] init_host_sparsity_pattern : 269 ms
[OGL LOG] matrix not stored update host matrix
[OGL LOG] update_host_mtx : 147 ms
[OGL LOG] matrix is not yet sorted, sorting host matrix
[OGL LOG] sort_host_mtx_sparsity_pattern : 191 ms
[OGL LOG] sort_host_mtx : 104 ms
[OGL LOG] init_preconditioner : 0 ms
[OGL LOG] solve : 145 ms
BJcudaGKOBiCGStab:  Solving for Ux, Initial residual = 0.102637, Final residual = 8.56419e-07, No Iterations 49
[OGL LOG] init_host_sparsity_pattern : 279 ms
[OGL LOG] matrix not stored update host matrix
[OGL LOG] update_host_mtx : 146 ms
[OGL LOG] matrix is not yet sorted, sorting host matrix
[OGL LOG] sort_host_mtx_sparsity_pattern : 191 ms
[OGL LOG] sort_host_mtx : 104 ms
[OGL LOG] init_preconditioner : 0 ms
[OGL LOG] solve : 154 ms
BJcudaGKOBiCGStab:  Solving for Uy, Initial residual = 0.396947, Final residual = 9.50663e-07, No Iterations 51
[OGL LOG] init_host_sparsity_pattern : 278 ms
[OGL LOG] matrix not stored update host matrix
[OGL LOG] update_host_mtx : 146 ms
[OGL LOG] matrix is not yet sorted, sorting host matrix
[OGL LOG] sort_host_mtx_sparsity_pattern : 191 ms
[OGL LOG] sort_host_mtx : 104 ms
[OGL LOG] init_preconditioner : 0 ms
[OGL LOG] solve : 166 ms
BJcudaGKOBiCGStab:  Solving for Uz, Initial residual = 1.00089, Final residual = 8.72548e-07, No Iterations 56
[OGL LOG] init_preconditioner : 0 ms
 CG create  precond 
[OGL LOG] solve : 1273 ms
BJcudaGKOCG:  Solving for p, Initial residual = 0.832648, Final residual = 9.93314e-07, No Iterations 884
time step continuity errors : sum local = 9.56876e-10, global = 1.04702e-20, cumulative = 9.45236e-21
[OGL LOG] init_preconditioner : 0 ms
 CG create  precond 
[OGL LOG] solve : 1266 ms
BJcudaGKOCG:  Solving for p, Initial residual = 0.802906, Final residual = 9.80245e-07, No Iterations 882
time step continuity errors : sum local = 9.20674e-10, global = 8.81791e-21, cumulative = 1.82703e-20
ExecutionTime = 32.34 s  ClockTime = 33 s

Time = 0.004

Courant Number mean: 0.0995266 max: 0.926352
[OGL LOG] init_host_sparsity_pattern : 269 ms
[OGL LOG] matrix not stored update host matrix
[OGL LOG] update_host_mtx : 147 ms
[OGL LOG] matrix is not yet sorted, sorting host matrix
[OGL LOG] sort_host_mtx_sparsity_pattern : 197 ms
[OGL LOG] sort_host_mtx : 105 ms
[OGL LOG] init_preconditioner : 0 ms
[OGL LOG] solve : 133 ms
BJcudaGKOBiCGStab:  Solving for Ux, Initial residual = 0.0541605, Final residual = 9.69653e-07, No Iterations 44
[OGL LOG] init_host_sparsity_pattern : 278 ms
[OGL LOG] matrix not stored update host matrix
[OGL LOG] update_host_mtx : 147 ms
[OGL LOG] matrix is not yet sorted, sorting host matrix
[OGL LOG] sort_host_mtx_sparsity_pattern : 194 ms
[OGL LOG] sort_host_mtx : 104 ms
[OGL LOG] init_preconditioner : 0 ms
[OGL LOG] solve : 143 ms
BJcudaGKOBiCGStab:  Solving for Uy, Initial residual = 0.255021, Final residual = 9.65246e-07, No Iterations 47
[OGL LOG] init_host_sparsity_pattern : 277 ms
[OGL LOG] matrix not stored update host matrix
[OGL LOG] update_host_mtx : 146 ms
[OGL LOG] matrix is not yet sorted, sorting host matrix
[OGL LOG] sort_host_mtx_sparsity_pattern : 191 ms
[OGL LOG] sort_host_mtx : 104 ms
[OGL LOG] init_preconditioner : 0 ms
[OGL LOG] solve : 158 ms
BJcudaGKOBiCGStab:  Solving for Uz, Initial residual = 0.87304, Final residual = 9.39692e-07, No Iterations 53
[OGL LOG] init_preconditioner : 0 ms
 CG create  precond 
[OGL LOG] solve : 1272 ms
BJcudaGKOCG:  Solving for p, Initial residual = 0.750175, Final residual = 9.97691e-07, No Iterations 884
time step continuity errors : sum local = 8.8784e-10, global = 1.58457e-20, cumulative = 3.41159e-20
[OGL LOG] init_preconditioner : 0 ms
 CG create  precond 
[OGL LOG] solve : 1263 ms
BJcudaGKOCG:  Solving for p, Initial residual = 0.685324, Final residual = 9.81826e-07, No Iterations 880
time step continuity errors : sum local = 8.90241e-10, global = 1.34356e-20, cumulative = 4.75515e-20
ExecutionTime = 38.38 s  ClockTime = 39 s

Time = 0.005

Courant Number mean: 0.112161 max: 0.946349
[OGL LOG] init_host_sparsity_pattern : 271 ms
[OGL LOG] matrix not stored update host matrix
[OGL LOG] update_host_mtx : 147 ms
[OGL LOG] matrix is not yet sorted, sorting host matrix
[OGL LOG] sort_host_mtx_sparsity_pattern : 191 ms
[OGL LOG] sort_host_mtx : 105 ms
[OGL LOG] init_preconditioner : 0 ms
[OGL LOG] solve : 125 ms
BJcudaGKOBiCGStab:  Solving for Ux, Initial residual = 0.0411807, Final residual = 9.76019e-07, No Iterations 41
[OGL LOG] init_host_sparsity_pattern : 278 ms
[OGL LOG] matrix not stored update host matrix
[OGL LOG] update_host_mtx : 153 ms
[OGL LOG] matrix is not yet sorted, sorting host matrix
[OGL LOG] sort_host_mtx_sparsity_pattern : 193 ms
[OGL LOG] sort_host_mtx : 107 ms
[OGL LOG] init_preconditioner : 0 ms
[OGL LOG] solve : 146 ms
BJcudaGKOBiCGStab:  Solving for Uy, Initial residual = 0.131877, Final residual = 8.25923e-07, No Iterations 47
[OGL LOG] init_host_sparsity_pattern : 289 ms
[OGL LOG] matrix not stored update host matrix
[OGL LOG] update_host_mtx : 146 ms
[OGL LOG] matrix is not yet sorted, sorting host matrix
[OGL LOG] sort_host_mtx_sparsity_pattern : 199 ms
[OGL LOG] sort_host_mtx : 105 ms
[OGL LOG] init_preconditioner : 0 ms
[OGL LOG] solve : 166 ms
BJcudaGKOBiCGStab:  Solving for Uz, Initial residual = 0.871877, Final residual = 9.54718e-07, No Iterations 55
[OGL LOG] init_preconditioner : 0 ms
 CG create  precond 
[OGL LOG] solve : 1282 ms
BJcudaGKOCG:  Solving for p, Initial residual = 0.760005, Final residual = 9.4222e-07, No Iterations 888
time step continuity errors : sum local = 7.12427e-10, global = -1.30592e-20, cumulative = 3.44923e-20
[OGL LOG] init_preconditioner : 0 ms
 CG create  precond 
[OGL LOG] solve : 1289 ms
BJcudaGKOCG:  Solving for p, Initial residual = 0.71335, Final residual = 9.26511e-07, No Iterations 887
time step continuity errors : sum local = 6.89363e-10, global = -4.10269e-21, cumulative = 3.03897e-20
ExecutionTime = 44.67 s  ClockTime = 45 s

End

