/*---------------------------------------------------------------------------*\
  =========                 |
  \\      /  F ield         | OpenFOAM: The Open Source CFD Toolbox
   \\    /   O peration     | Website:  https://openfoam.org
    \\  /    A nd           | Version:  8
     \\/     M anipulation  |
\*---------------------------------------------------------------------------*/
Build  : 8-13d66902f78c
Exec   : icoFoam
Date   : Jul 13 2021
Time   : 22:34:09
Host   : "uc2n485.localdomain"
PID    : 547825
I/O    : uncollated
Case   : /pfs/data5/home/kit/scc/nq7776/code/OGL_DATA/lidDrivenCavity3D/v0.1-136-g40fef35/f584ccac99/TeslaV100-SXM2-32GB/Test_2021-07-13-22:31:10/75/p-U-CG-GKO-none-cuda/lidDrivenCavity3D
nProcs : 1
sigFpe : Enabling floating point exception trapping (FOAM_SIGFPE).
fileModificationChecking : Monitoring run-time modified files using timeStampMaster (fileModificationSkew 10)
allowSystemOperations : Allowing user-supplied system call operations

// * * * * * * * * * * * * * * * * * * * * * * * * * * * * * * * * * * * * * //
Create time

Create mesh for time = 0

Reading transportProperties

Reading field p

Reading field U

Reading/calculating face flux field phi


Starting time loop

Time = 0.00133333

Courant Number mean: 0 max: 0
[OGL LOG] init_host_sparsity_pattern : 120 ms
[OGL LOG] matrix not stored update host matrix
[OGL LOG] update_host_mtx : 61 ms
[OGL LOG] matrix is not yet sorted, compute sorting idxs
[OGL LOG] compute_sort : 3360 ms
[OGL LOG] matrix is not yet sorted, sorting host matrix
[OGL LOG] sort_host_mtx_sparsity_pattern : 78 ms
[OGL LOG] sort_host_mtx : 48 ms
[OGL LOG] init_preconditioner : 0 ms
[OGL LOG] solve : 71 ms
nonecudaGKOBiCGStab:  Solving for Ux, Initial residual = 1, Final residual = 7.41569e-07, No Iterations 51
[OGL LOG] init_host_sparsity_pattern : 114 ms
[OGL LOG] matrix not stored update host matrix
[OGL LOG] update_host_mtx : 53 ms
[OGL LOG] matrix is not yet sorted, sorting host matrix
[OGL LOG] sort_host_mtx_sparsity_pattern : 78 ms
[OGL LOG] sort_host_mtx : 43 ms
[OGL LOG] init_preconditioner : 0 ms
[OGL LOG] solve : 6 ms
nonecudaGKOBiCGStab:  Solving for Uy, Initial residual = 0, Final residual = 0, No Iterations 0
[OGL LOG] init_host_sparsity_pattern : 112 ms
[OGL LOG] matrix not stored update host matrix
[OGL LOG] update_host_mtx : 53 ms
[OGL LOG] matrix is not yet sorted, sorting host matrix
[OGL LOG] sort_host_mtx_sparsity_pattern : 72 ms
[OGL LOG] sort_host_mtx : 44 ms
[OGL LOG] init_preconditioner : 0 ms
[OGL LOG] solve : 6 ms
nonecudaGKOBiCGStab:  Solving for Uz, Initial residual = 0, Final residual = 0, No Iterations 0
[OGL LOG] init_host_sparsity_pattern : 112 ms
[OGL LOG] matrix not stored update host matrix
[OGL LOG] update_host_mtx : 53 ms
[OGL LOG] matrix is not yet sorted, sorting host matrix
[OGL LOG] sort_host_mtx_sparsity_pattern : 81 ms
[OGL LOG] sort_host_mtx : 43 ms
[OGL LOG] init_preconditioner : 0 ms
[OGL LOG] solve : 436 ms
nonecudaGKOCG:  Solving for p, Initial residual = 1, Final residual = 9.33282e-07, No Iterations 671
time step continuity errors : sum local = 8.5245e-10, global = -2.18774e-22, cumulative = -2.18774e-22
[OGL LOG] init_preconditioner : 0 ms
[OGL LOG] solve : 430 ms
nonecudaGKOCG:  Solving for p, Initial residual = 0.759326, Final residual = 8.94133e-07, No Iterations 667
time step continuity errors : sum local = 1.0455e-09, global = 4.84161e-21, cumulative = 4.62283e-21
ExecutionTime = 8.24 s  ClockTime = 8 s

Time = 0.00266667

Courant Number mean: 0.0631769 max: 0.775391
[OGL LOG] init_host_sparsity_pattern : 112 ms
[OGL LOG] matrix not stored update host matrix
[OGL LOG] update_host_mtx : 53 ms
[OGL LOG] matrix is not yet sorted, sorting host matrix
[OGL LOG] sort_host_mtx_sparsity_pattern : 72 ms
[OGL LOG] sort_host_mtx : 43 ms
[OGL LOG] init_preconditioner : 0 ms
[OGL LOG] solve : 62 ms
nonecudaGKOBiCGStab:  Solving for Ux, Initial residual = 0.18303, Final residual = 9.68663e-07, No Iterations 42
[OGL LOG] init_host_sparsity_pattern : 112 ms
[OGL LOG] matrix not stored update host matrix
[OGL LOG] update_host_mtx : 53 ms
[OGL LOG] matrix is not yet sorted, sorting host matrix
[OGL LOG] sort_host_mtx_sparsity_pattern : 73 ms
[OGL LOG] sort_host_mtx : 44 ms
[OGL LOG] init_preconditioner : 0 ms
[OGL LOG] solve : 70 ms
nonecudaGKOBiCGStab:  Solving for Uy, Initial residual = 0.619628, Final residual = 6.91888e-07, No Iterations 51
[OGL LOG] init_host_sparsity_pattern : 111 ms
[OGL LOG] matrix not stored update host matrix
[OGL LOG] update_host_mtx : 53 ms
[OGL LOG] matrix is not yet sorted, sorting host matrix
[OGL LOG] sort_host_mtx_sparsity_pattern : 72 ms
[OGL LOG] sort_host_mtx : 43 ms
[OGL LOG] init_preconditioner : 0 ms
[OGL LOG] solve : 71 ms
nonecudaGKOBiCGStab:  Solving for Uz, Initial residual = 0.604712, Final residual = 7.28037e-07, No Iterations 51
[OGL LOG] init_preconditioner : 0 ms
[OGL LOG] solve : 422 ms
nonecudaGKOCG:  Solving for p, Initial residual = 0.749122, Final residual = 9.50629e-07, No Iterations 645
time step continuity errors : sum local = 1.83039e-09, global = -1.35177e-20, cumulative = -8.89486e-21
[OGL LOG] init_preconditioner : 0 ms
[OGL LOG] solve : 417 ms
nonecudaGKOCG:  Solving for p, Initial residual = 0.683904, Final residual = 9.7082e-07, No Iterations 643
time step continuity errors : sum local = 1.42299e-09, global = 1.41477e-20, cumulative = 5.25288e-21
ExecutionTime = 10.49 s  ClockTime = 11 s

Time = 0.004

Courant Number mean: 0.0951459 max: 0.917122
[OGL LOG] init_host_sparsity_pattern : 116 ms
[OGL LOG] matrix not stored update host matrix
[OGL LOG] update_host_mtx : 54 ms
[OGL LOG] matrix is not yet sorted, sorting host matrix
[OGL LOG] sort_host_mtx_sparsity_pattern : 72 ms
[OGL LOG] sort_host_mtx : 44 ms
[OGL LOG] init_preconditioner : 0 ms
[OGL LOG] solve : 62 ms
nonecudaGKOBiCGStab:  Solving for Ux, Initial residual = 0.101942, Final residual = 9.61625e-07, No Iterations 44
[OGL LOG] init_host_sparsity_pattern : 116 ms
[OGL LOG] matrix not stored update host matrix
[OGL LOG] update_host_mtx : 54 ms
[OGL LOG] matrix is not yet sorted, sorting host matrix
[OGL LOG] sort_host_mtx_sparsity_pattern : 80 ms
[OGL LOG] sort_host_mtx : 49 ms
[OGL LOG] init_preconditioner : 0 ms
[OGL LOG] solve : 60 ms
nonecudaGKOBiCGStab:  Solving for Uy, Initial residual = 0.335434, Final residual = 9.5028e-07, No Iterations 43
[OGL LOG] init_host_sparsity_pattern : 117 ms
[OGL LOG] matrix not stored update host matrix
[OGL LOG] update_host_mtx : 54 ms
[OGL LOG] matrix is not yet sorted, sorting host matrix
[OGL LOG] sort_host_mtx_sparsity_pattern : 72 ms
[OGL LOG] sort_host_mtx : 44 ms
[OGL LOG] init_preconditioner : 0 ms
[OGL LOG] solve : 73 ms
nonecudaGKOBiCGStab:  Solving for Uz, Initial residual = 0.920761, Final residual = 6.00399e-07, No Iterations 53
[OGL LOG] init_preconditioner : 0 ms
[OGL LOG] solve : 428 ms
nonecudaGKOCG:  Solving for p, Initial residual = 0.754749, Final residual = 9.79351e-07, No Iterations 663
time step continuity errors : sum local = 1.45921e-09, global = 1.16729e-20, cumulative = 1.69257e-20
[OGL LOG] init_preconditioner : 0 ms
[OGL LOG] solve : 431 ms
nonecudaGKOCG:  Solving for p, Initial residual = 0.717013, Final residual = 9.63554e-07, No Iterations 662
time step continuity errors : sum local = 1.11936e-09, global = -1.41149e-20, cumulative = 2.81086e-21
ExecutionTime = 12.79 s  ClockTime = 13 s

Time = 0.00533333

Courant Number mean: 0.109256 max: 0.91346
[OGL LOG] init_host_sparsity_pattern : 112 ms
[OGL LOG] matrix not stored update host matrix
[OGL LOG] update_host_mtx : 52 ms
[OGL LOG] matrix is not yet sorted, sorting host matrix
[OGL LOG] sort_host_mtx_sparsity_pattern : 72 ms
[OGL LOG] sort_host_mtx : 43 ms
[OGL LOG] init_preconditioner : 0 ms
[OGL LOG] solve : 58 ms
nonecudaGKOBiCGStab:  Solving for Ux, Initial residual = 0.0446956, Final residual = 7.79685e-07, No Iterations 41
[OGL LOG] init_host_sparsity_pattern : 112 ms
[OGL LOG] matrix not stored update host matrix
[OGL LOG] update_host_mtx : 53 ms
[OGL LOG] matrix is not yet sorted, sorting host matrix
[OGL LOG] sort_host_mtx_sparsity_pattern : 72 ms
[OGL LOG] sort_host_mtx : 43 ms
[OGL LOG] init_preconditioner : 0 ms
[OGL LOG] solve : 61 ms
nonecudaGKOBiCGStab:  Solving for Uy, Initial residual = 0.197565, Final residual = 5.92482e-07, No Iterations 44
[OGL LOG] init_host_sparsity_pattern : 111 ms
[OGL LOG] matrix not stored update host matrix
[OGL LOG] update_host_mtx : 53 ms
[OGL LOG] matrix is not yet sorted, sorting host matrix
[OGL LOG] sort_host_mtx_sparsity_pattern : 72 ms
[OGL LOG] sort_host_mtx : 43 ms
[OGL LOG] init_preconditioner : 0 ms
[OGL LOG] solve : 63 ms
nonecudaGKOBiCGStab:  Solving for Uz, Initial residual = 0.732498, Final residual = 7.99767e-07, No Iterations 45
[OGL LOG] init_preconditioner : 0 ms
[OGL LOG] solve : 429 ms
nonecudaGKOCG:  Solving for p, Initial residual = 0.617351, Final residual = 9.86897e-07, No Iterations 661
time step continuity errors : sum local = 1.17409e-09, global = -1.23881e-20, cumulative = -9.57722e-21
[OGL LOG] init_preconditioner : 0 ms
[OGL LOG] solve : 425 ms
nonecudaGKOCG:  Solving for p, Initial residual = 0.554745, Final residual = 9.83852e-07, No Iterations 659
time step continuity errors : sum local = 1.05613e-09, global = 2.22362e-20, cumulative = 1.26589e-20
ExecutionTime = 15.03 s  ClockTime = 15 s

Time = 0.00666667

Courant Number mean: 0.122084 max: 0.929107
[OGL LOG] init_host_sparsity_pattern : 112 ms
[OGL LOG] matrix not stored update host matrix
[OGL LOG] update_host_mtx : 53 ms
[OGL LOG] matrix is not yet sorted, sorting host matrix
[OGL LOG] sort_host_mtx_sparsity_pattern : 73 ms
[OGL LOG] sort_host_mtx : 44 ms
[OGL LOG] init_preconditioner : 0 ms
[OGL LOG] solve : 56 ms
nonecudaGKOBiCGStab:  Solving for Ux, Initial residual = 0.0319068, Final residual = 9.4547e-07, No Iterations 39
[OGL LOG] init_host_sparsity_pattern : 111 ms
[OGL LOG] matrix not stored update host matrix
[OGL LOG] update_host_mtx : 53 ms
[OGL LOG] matrix is not yet sorted, sorting host matrix
[OGL LOG] sort_host_mtx_sparsity_pattern : 78 ms
[OGL LOG] sort_host_mtx : 43 ms
[OGL LOG] init_preconditioner : 0 ms
[OGL LOG] solve : 63 ms
nonecudaGKOBiCGStab:  Solving for Uy, Initial residual = 0.0804625, Final residual = 5.57985e-07, No Iterations 44
[OGL LOG] init_host_sparsity_pattern : 112 ms
[OGL LOG] matrix not stored update host matrix
[OGL LOG] update_host_mtx : 53 ms
[OGL LOG] matrix is not yet sorted, sorting host matrix
[OGL LOG] sort_host_mtx_sparsity_pattern : 72 ms
[OGL LOG] sort_host_mtx : 43 ms
[OGL LOG] init_preconditioner : 0 ms
[OGL LOG] solve : 66 ms
nonecudaGKOBiCGStab:  Solving for Uz, Initial residual = 0.513492, Final residual = 8.67209e-07, No Iterations 48
[OGL LOG] init_preconditioner : 0 ms
[OGL LOG] solve : 433 ms
nonecudaGKOCG:  Solving for p, Initial residual = 0.591988, Final residual = 9.86926e-07, No Iterations 666
time step continuity errors : sum local = 9.26086e-10, global = 1.52777e-20, cumulative = 2.79367e-20
[OGL LOG] init_preconditioner : 0 ms
[OGL LOG] solve : 435 ms
nonecudaGKOCG:  Solving for p, Initial residual = 0.543111, Final residual = 9.1865e-07, No Iterations 666
time step continuity errors : sum local = 7.83097e-10, global = -9.6961e-21, cumulative = 1.82406e-20
ExecutionTime = 17.3 s  ClockTime = 17 s

End

