/*---------------------------------------------------------------------------*\
  =========                 |
  \\      /  F ield         | OpenFOAM: The Open Source CFD Toolbox
   \\    /   O peration     | Website:  https://openfoam.org
    \\  /    A nd           | Version:  8
     \\/     M anipulation  |
\*---------------------------------------------------------------------------*/
Build  : 8-13d66902f78c
Exec   : icoFoam
Date   : Jul 13 2021
Time   : 21:59:55
Host   : "uc2n485.localdomain"
PID    : 501783
I/O    : uncollated
Case   : /pfs/data5/home/kit/scc/nq7776/code/OGL_DATA/lidDrivenCavity3D/v0.1-136-g40fef35/f584ccac99/TeslaV100-SXM2-32GB/Test_2021-07-13-21:53:48/100/p-BiCGStab-GKO-none-cuda/lidDrivenCavity3D
nProcs : 1
sigFpe : Enabling floating point exception trapping (FOAM_SIGFPE).
fileModificationChecking : Monitoring run-time modified files using timeStampMaster (fileModificationSkew 10)
allowSystemOperations : Allowing user-supplied system call operations

// * * * * * * * * * * * * * * * * * * * * * * * * * * * * * * * * * * * * * //
Create time

Create mesh for time = 0

Reading transportProperties

Reading field p

Reading field U

Reading/calculating face flux field phi


Starting time loop

Time = 0.001

Courant Number mean: 0 max: 0
nonePBiCGStab:  Solving for Ux, Initial residual = 1, Final residual = 0.0818707, No Iterations 5
nonePBiCGStab:  Solving for Uy, Initial residual = 0, Final residual = 0, No Iterations 0
nonePBiCGStab:  Solving for Uz, Initial residual = 0, Final residual = 0, No Iterations 0
[OGL LOG] init_host_sparsity_pattern : 296 ms
[OGL LOG] matrix not stored update host matrix
[OGL LOG] update_host_mtx : 158 ms
[OGL LOG] matrix is not yet sorted, compute sorting idxs
[OGL LOG] compute_sort : 8378 ms
[OGL LOG] matrix is not yet sorted, sorting host matrix
[OGL LOG] sort_host_mtx_sparsity_pattern : 197 ms
[OGL LOG] sort_host_mtx : 108 ms
[OGL LOG] init_preconditioner : 0 ms
[OGL LOG] solve : 1782 ms
nonecudaGKOBiCGStab:  Solving for p, Initial residual = 1, Final residual = 3.39705e-07, No Iterations 750
time step continuity errors : sum local = 2.30356e-05, global = 1.57593e-20, cumulative = 1.57593e-20
[OGL LOG] init_preconditioner : 0 ms
[OGL LOG] solve : 1680 ms
nonecudaGKOBiCGStab:  Solving for p, Initial residual = 0.72226, Final residual = 9.1645e-07, No Iterations 709
time step continuity errors : sum local = 2.93123e-06, global = 2.33362e-21, cumulative = 1.80929e-20
ExecutionTime = 18.72 s  ClockTime = 19 s

Time = 0.002

Courant Number mean: 0.0422161 max: 0.791725
nonePBiCGStab:  Solving for Ux, Initial residual = 0.13823, Final residual = 0.0402499, No Iterations 5
nonePBiCGStab:  Solving for Uy, Initial residual = 0.451881, Final residual = 0.137754, No Iterations 5
nonePBiCGStab:  Solving for Uz, Initial residual = 0.938323, Final residual = 0.335415, No Iterations 5
[OGL LOG] init_preconditioner : 0 ms
[OGL LOG] solve : 1675 ms
nonecudaGKOBiCGStab:  Solving for p, Initial residual = 0.802578, Final residual = 8.32231e-07, No Iterations 711
time step continuity errors : sum local = 1.12718e-05, global = -2.43213e-20, cumulative = -6.2284e-21
[OGL LOG] init_preconditioner : 0 ms
[OGL LOG] solve : 1635 ms
nonecudaGKOBiCGStab:  Solving for p, Initial residual = 0.722289, Final residual = 6.34176e-07, No Iterations 697
time step continuity errors : sum local = 2.34377e-05, global = 2.56287e-20, cumulative = 1.94003e-20
ExecutionTime = 23.53 s  ClockTime = 24 s

Time = 0.003

Courant Number mean: 0.0673294 max: 0.899193
nonePBiCGStab:  Solving for Ux, Initial residual = 0.0612181, Final residual = 0.0152263, No Iterations 5
nonePBiCGStab:  Solving for Uy, Initial residual = 0.216777, Final residual = 0.0634564, No Iterations 5
nonePBiCGStab:  Solving for Uz, Initial residual = 0.664182, Final residual = 0.232005, No Iterations 5
[OGL LOG] init_preconditioner : 0 ms
[OGL LOG] solve : 1024 ms
nonecudaGKOBiCGStab:  Solving for p, Initial residual = 0.829515, Final residual = 9.9284e-07, No Iterations 435
time step continuity errors : sum local = 3.3466e-09, global = -4.34646e-21, cumulative = 1.50539e-20
[OGL LOG] init_preconditioner : 0 ms
[OGL LOG] solve : 1685 ms
nonecudaGKOBiCGStab:  Solving for p, Initial residual = 0.754764, Final residual = 9.09724e-07, No Iterations 718
time step continuity errors : sum local = 7.85607e-06, global = -4.38222e-21, cumulative = 1.06717e-20
ExecutionTime = 27.75 s  ClockTime = 28 s

Time = 0.004

Courant Number mean: 0.0813353 max: 0.912838
nonePBiCGStab:  Solving for Ux, Initial residual = 0.0389172, Final residual = 0.0108371, No Iterations 5
nonePBiCGStab:  Solving for Uy, Initial residual = 0.150096, Final residual = 0.0574309, No Iterations 5
nonePBiCGStab:  Solving for Uz, Initial residual = 0.509688, Final residual = 0.156936, No Iterations 5
[OGL LOG] init_preconditioner : 0 ms
[OGL LOG] solve : 1718 ms
nonecudaGKOBiCGStab:  Solving for p, Initial residual = 0.728449, Final residual = 8.26187e-07, No Iterations 735
time step continuity errors : sum local = 6.19893e-06, global = 3.28963e-21, cumulative = 1.39613e-20
[OGL LOG] init_preconditioner : 0 ms
[OGL LOG] solve : 1002 ms
nonecudaGKOBiCGStab:  Solving for p, Initial residual = 0.633748, Final residual = 9.75721e-07, No Iterations 426
time step continuity errors : sum local = 1.0112e-09, global = -2.62515e-21, cumulative = 1.13361e-20
ExecutionTime = 31.99 s  ClockTime = 33 s

Time = 0.005

Courant Number mean: 0.0921113 max: 0.925482
nonePBiCGStab:  Solving for Ux, Initial residual = 0.029942, Final residual = 0.00898246, No Iterations 5
nonePBiCGStab:  Solving for Uy, Initial residual = 0.103326, Final residual = 0.0366278, No Iterations 5
nonePBiCGStab:  Solving for Uz, Initial residual = 0.341666, Final residual = 0.095044, No Iterations 5
[OGL LOG] init_preconditioner : 0 ms
[OGL LOG] solve : 1679 ms
nonecudaGKOBiCGStab:  Solving for p, Initial residual = 0.760309, Final residual = 1.14924e-07, No Iterations 720
time step continuity errors : sum local = 3.25708e-06, global = 3.55922e-21, cumulative = 1.48954e-20
[OGL LOG] init_preconditioner : 0 ms
[OGL LOG] solve : 1488 ms
nonecudaGKOBiCGStab:  Solving for p, Initial residual = 0.674613, Final residual = 9.37356e-07, No Iterations 637
time step continuity errors : sum local = 1.28928e-09, global = 7.0707e-21, cumulative = 2.19661e-20
ExecutionTime = 36.65 s  ClockTime = 37 s

End

