/*---------------------------------------------------------------------------*\
  =========                 |
  \\      /  F ield         | OpenFOAM: The Open Source CFD Toolbox
   \\    /   O peration     | Website:  https://openfoam.org
    \\  /    A nd           | Version:  8
     \\/     M anipulation  |
\*---------------------------------------------------------------------------*/
Build  : 8-13d66902f78c
Exec   : icoFoam
Date   : Jul 13 2021
Time   : 21:46:17
Host   : "uc2n485.localdomain"
PID    : 489912
I/O    : uncollated
Case   : /pfs/data5/home/kit/scc/nq7776/code/OGL_DATA/lidDrivenCavity3D/v0.1-136-g40fef35/f584ccac99/TeslaV100-SXM2-32GB/Test_2021-07-13-21:44:10/50/p-CG-GKO-none-cuda/lidDrivenCavity3D
nProcs : 1
sigFpe : Enabling floating point exception trapping (FOAM_SIGFPE).
fileModificationChecking : Monitoring run-time modified files using timeStampMaster (fileModificationSkew 10)
allowSystemOperations : Allowing user-supplied system call operations

// * * * * * * * * * * * * * * * * * * * * * * * * * * * * * * * * * * * * * //
Create time

Create mesh for time = 0

Reading transportProperties

Reading field p

Reading field U

Reading/calculating face flux field phi


Starting time loop

Time = 0.002

Courant Number mean: 0 max: 0
nonePBiCGStab:  Solving for Ux, Initial residual = 1, Final residual = 0.0592055, No Iterations 5
nonePBiCGStab:  Solving for Uy, Initial residual = 0, Final residual = 0, No Iterations 0
nonePBiCGStab:  Solving for Uz, Initial residual = 0, Final residual = 0, No Iterations 0
[OGL LOG] init_host_sparsity_pattern : 34 ms
[OGL LOG] matrix not stored update host matrix
[OGL LOG] update_host_mtx : 18 ms
[OGL LOG] matrix is not yet sorted, compute sorting idxs
[OGL LOG] compute_sort : 925 ms
[OGL LOG] matrix is not yet sorted, sorting host matrix
[OGL LOG] sort_host_mtx_sparsity_pattern : 23 ms
[OGL LOG] sort_host_mtx : 14 ms
[OGL LOG] init_preconditioner : 0 ms
[OGL LOG] solve : 83 ms
nonecudaGKOCG:  Solving for p, Initial residual = 1, Final residual = 9.4524e-07, No Iterations 445
time step continuity errors : sum local = 1.21255e-09, global = 8.98634e-21, cumulative = 8.98634e-21
[OGL LOG] init_preconditioner : 0 ms
[OGL LOG] solve : 76 ms
nonecudaGKOCG:  Solving for p, Initial residual = 0.67673, Final residual = 9.30708e-07, No Iterations 441
time step continuity errors : sum local = 1.6883e-09, global = -2.55706e-20, cumulative = -1.65842e-20
ExecutionTime = 2.76 s  ClockTime = 3 s

Time = 0.004

Courant Number mean: 0.0636233 max: 0.723792
nonePBiCGStab:  Solving for Ux, Initial residual = 0.144136, Final residual = 0.0219208, No Iterations 5
nonePBiCGStab:  Solving for Uy, Initial residual = 0.363931, Final residual = 0.0522819, No Iterations 5
nonePBiCGStab:  Solving for Uz, Initial residual = 0.973677, Final residual = 0.158944, No Iterations 5
[OGL LOG] init_preconditioner : 0 ms
[OGL LOG] solve : 72 ms
nonecudaGKOCG:  Solving for p, Initial residual = 0.668507, Final residual = 9.76336e-07, No Iterations 426
time step continuity errors : sum local = 2.23559e-09, global = -1.38692e-20, cumulative = -3.04534e-20
[OGL LOG] init_preconditioner : 0 ms
[OGL LOG] solve : 73 ms
nonecudaGKOCG:  Solving for p, Initial residual = 0.584655, Final residual = 8.56661e-07, No Iterations 425
time step continuity errors : sum local = 2.01131e-09, global = 2.16784e-20, cumulative = -8.77497e-21
ExecutionTime = 3.04 s  ClockTime = 3 s

Time = 0.006

Courant Number mean: 0.0972275 max: 0.862515
nonePBiCGStab:  Solving for Ux, Initial residual = 0.0524189, Final residual = 0.00685535, No Iterations 5
nonePBiCGStab:  Solving for Uy, Initial residual = 0.127046, Final residual = 0.0201182, No Iterations 5
nonePBiCGStab:  Solving for Uz, Initial residual = 0.36675, Final residual = 0.0530696, No Iterations 5
[OGL LOG] init_preconditioner : 0 ms
[OGL LOG] solve : 77 ms
nonecudaGKOCG:  Solving for p, Initial residual = 0.594544, Final residual = 9.01591e-07, No Iterations 429
time step continuity errors : sum local = 1.43619e-09, global = -1.45708e-20, cumulative = -2.33457e-20
[OGL LOG] init_preconditioner : 0 ms
[OGL LOG] solve : 73 ms
nonecudaGKOCG:  Solving for p, Initial residual = 0.528702, Final residual = 8.83883e-07, No Iterations 428
time step continuity errors : sum local = 1.36197e-09, global = 9.1645e-21, cumulative = -1.41812e-20
ExecutionTime = 3.35 s  ClockTime = 4 s

Time = 0.008

Courant Number mean: 0.113794 max: 0.88248
nonePBiCGStab:  Solving for Ux, Initial residual = 0.0289573, Final residual = 0.00344464, No Iterations 5
nonePBiCGStab:  Solving for Uy, Initial residual = 0.0844255, Final residual = 0.0109195, No Iterations 5
nonePBiCGStab:  Solving for Uz, Initial residual = 0.229192, Final residual = 0.0297663, No Iterations 5
[OGL LOG] init_preconditioner : 0 ms
[OGL LOG] solve : 71 ms
nonecudaGKOCG:  Solving for p, Initial residual = 0.411433, Final residual = 9.18996e-07, No Iterations 416
time step continuity errors : sum local = 1.40062e-09, global = -3.34399e-21, cumulative = -1.75252e-20
[OGL LOG] init_preconditioner : 0 ms
[OGL LOG] solve : 71 ms
nonecudaGKOCG:  Solving for p, Initial residual = 0.342686, Final residual = 9.85209e-07, No Iterations 414
time step continuity errors : sum local = 1.52953e-09, global = -6.61756e-21, cumulative = -2.41428e-20
ExecutionTime = 3.63 s  ClockTime = 4 s

Time = 0.01

Courant Number mean: 0.127339 max: 0.898877
nonePBiCGStab:  Solving for Ux, Initial residual = 0.020277, Final residual = 0.00208485, No Iterations 5
nonePBiCGStab:  Solving for Uy, Initial residual = 0.0505563, Final residual = 0.00623587, No Iterations 5
nonePBiCGStab:  Solving for Uz, Initial residual = 0.112946, Final residual = 0.0180732, No Iterations 5
[OGL LOG] init_preconditioner : 0 ms
[OGL LOG] solve : 71 ms
nonecudaGKOCG:  Solving for p, Initial residual = 0.354043, Final residual = 9.18845e-07, No Iterations 421
time step continuity errors : sum local = 1.16498e-09, global = -3.90359e-20, cumulative = -6.31787e-20
[OGL LOG] init_preconditioner : 0 ms
[OGL LOG] solve : 71 ms
nonecudaGKOCG:  Solving for p, Initial residual = 0.302211, Final residual = 9.79406e-07, No Iterations 419
time step continuity errors : sum local = 1.22553e-09, global = 1.8832e-20, cumulative = -4.43467e-20
ExecutionTime = 3.9 s  ClockTime = 4 s

End

