/*---------------------------------------------------------------------------*\
  =========                 |
  \\      /  F ield         | OpenFOAM: The Open Source CFD Toolbox
   \\    /   O peration     | Website:  https://openfoam.org
    \\  /    A nd           | Version:  8
     \\/     M anipulation  |
\*---------------------------------------------------------------------------*/
Build  : 8-13d66902f78c
Exec   : icoFoam
Date   : Jul 13 2021
Time   : 22:36:38
Host   : "uc2n485.localdomain"
PID    : 548733
I/O    : uncollated
Case   : /pfs/data5/home/kit/scc/nq7776/code/OGL_DATA/lidDrivenCavity3D/v0.1-136-g40fef35/f584ccac99/TeslaV100-SXM2-32GB/Test_2021-07-13-22:31:10/100/p-U-CG-GKO-none-cuda/lidDrivenCavity3D
nProcs : 1
sigFpe : Enabling floating point exception trapping (FOAM_SIGFPE).
fileModificationChecking : Monitoring run-time modified files using timeStampMaster (fileModificationSkew 10)
allowSystemOperations : Allowing user-supplied system call operations

// * * * * * * * * * * * * * * * * * * * * * * * * * * * * * * * * * * * * * //
Create time

Create mesh for time = 0

Reading transportProperties

Reading field p

Reading field U

Reading/calculating face flux field phi


Starting time loop

Time = 0.001

Courant Number mean: 0 max: 0
[OGL LOG] init_host_sparsity_pattern : 285 ms
[OGL LOG] matrix not stored update host matrix
[OGL LOG] update_host_mtx : 144 ms
[OGL LOG] matrix is not yet sorted, compute sorting idxs
[OGL LOG] compute_sort : 8325 ms
[OGL LOG] matrix is not yet sorted, sorting host matrix
[OGL LOG] sort_host_mtx_sparsity_pattern : 188 ms
[OGL LOG] sort_host_mtx : 105 ms
[OGL LOG] init_preconditioner : 0 ms
[OGL LOG] solve : 165 ms
nonecudaGKOBiCGStab:  Solving for Ux, Initial residual = 1, Final residual = 5.08164e-07, No Iterations 59
[OGL LOG] init_host_sparsity_pattern : 266 ms
[OGL LOG] matrix not stored update host matrix
[OGL LOG] update_host_mtx : 147 ms
[OGL LOG] matrix is not yet sorted, sorting host matrix
[OGL LOG] sort_host_mtx_sparsity_pattern : 186 ms
[OGL LOG] sort_host_mtx : 104 ms
[OGL LOG] init_preconditioner : 0 ms
[OGL LOG] solve : 12 ms
nonecudaGKOBiCGStab:  Solving for Uy, Initial residual = 0, Final residual = 0, No Iterations 0
[OGL LOG] init_host_sparsity_pattern : 266 ms
[OGL LOG] matrix not stored update host matrix
[OGL LOG] update_host_mtx : 126 ms
[OGL LOG] matrix is not yet sorted, sorting host matrix
[OGL LOG] sort_host_mtx_sparsity_pattern : 193 ms
[OGL LOG] sort_host_mtx : 105 ms
[OGL LOG] init_preconditioner : 0 ms
[OGL LOG] solve : 12 ms
nonecudaGKOBiCGStab:  Solving for Uz, Initial residual = 0, Final residual = 0, No Iterations 0
[OGL LOG] init_host_sparsity_pattern : 269 ms
[OGL LOG] matrix not stored update host matrix
[OGL LOG] update_host_mtx : 147 ms
[OGL LOG] matrix is not yet sorted, sorting host matrix
[OGL LOG] sort_host_mtx_sparsity_pattern : 190 ms
[OGL LOG] sort_host_mtx : 112 ms
[OGL LOG] init_preconditioner : 0 ms
[OGL LOG] solve : 1154 ms
nonecudaGKOCG:  Solving for p, Initial residual = 1, Final residual = 9.8344e-07, No Iterations 900
time step continuity errors : sum local = 5.89625e-10, global = -1.43043e-21, cumulative = -1.43043e-21
[OGL LOG] init_preconditioner : 0 ms
[OGL LOG] solve : 1140 ms
nonecudaGKOCG:  Solving for p, Initial residual = 0.783583, Final residual = 9.54114e-07, No Iterations 893
time step continuity errors : sum local = 7.15164e-10, global = 9.31857e-22, cumulative = -4.98574e-22
ExecutionTime = 19.03 s  ClockTime = 19 s

Time = 0.002

Courant Number mean: 0.0571436 max: 0.804774
[OGL LOG] init_host_sparsity_pattern : 278 ms
[OGL LOG] matrix not stored update host matrix
[OGL LOG] update_host_mtx : 145 ms
[OGL LOG] matrix is not yet sorted, sorting host matrix
[OGL LOG] sort_host_mtx_sparsity_pattern : 191 ms
[OGL LOG] sort_host_mtx : 104 ms
[OGL LOG] init_preconditioner : 0 ms
[OGL LOG] solve : 128 ms
nonecudaGKOBiCGStab:  Solving for Ux, Initial residual = 0.169075, Final residual = 8.05373e-07, No Iterations 50
[OGL LOG] init_host_sparsity_pattern : 277 ms
[OGL LOG] matrix not stored update host matrix
[OGL LOG] update_host_mtx : 145 ms
[OGL LOG] matrix is not yet sorted, sorting host matrix
[OGL LOG] sort_host_mtx_sparsity_pattern : 191 ms
[OGL LOG] sort_host_mtx : 104 ms
[OGL LOG] init_preconditioner : 0 ms
[OGL LOG] solve : 135 ms
nonecudaGKOBiCGStab:  Solving for Uy, Initial residual = 0.620181, Final residual = 7.50582e-07, No Iterations 52
[OGL LOG] init_host_sparsity_pattern : 277 ms
[OGL LOG] matrix not stored update host matrix
[OGL LOG] update_host_mtx : 146 ms
[OGL LOG] matrix is not yet sorted, sorting host matrix
[OGL LOG] sort_host_mtx_sparsity_pattern : 191 ms
[OGL LOG] sort_host_mtx : 105 ms
[OGL LOG] init_preconditioner : 0 ms
[OGL LOG] solve : 135 ms
nonecudaGKOBiCGStab:  Solving for Uz, Initial residual = 0.64697, Final residual = 9.80407e-07, No Iterations 53
[OGL LOG] init_preconditioner : 0 ms
[OGL LOG] solve : 1123 ms
nonecudaGKOCG:  Solving for p, Initial residual = 0.798452, Final residual = 9.82388e-07, No Iterations 884
time step continuity errors : sum local = 9.98991e-10, global = -4.73818e-21, cumulative = -5.23675e-21
[OGL LOG] init_preconditioner : 0 ms
[OGL LOG] solve : 1115 ms
nonecudaGKOCG:  Solving for p, Initial residual = 0.738606, Final residual = 9.65796e-07, No Iterations 872
time step continuity errors : sum local = 1.00325e-09, global = -1.5895e-20, cumulative = -2.11317e-20
ExecutionTime = 24.7 s  ClockTime = 25 s

Time = 0.003

Courant Number mean: 0.086739 max: 0.944826
[OGL LOG] init_host_sparsity_pattern : 269 ms
[OGL LOG] matrix not stored update host matrix
[OGL LOG] update_host_mtx : 146 ms
[OGL LOG] matrix is not yet sorted, sorting host matrix
[OGL LOG] sort_host_mtx_sparsity_pattern : 191 ms
[OGL LOG] sort_host_mtx : 104 ms
[OGL LOG] init_preconditioner : 0 ms
[OGL LOG] solve : 133 ms
nonecudaGKOBiCGStab:  Solving for Ux, Initial residual = 0.102637, Final residual = 7.36905e-07, No Iterations 52
[OGL LOG] init_host_sparsity_pattern : 276 ms
[OGL LOG] matrix not stored update host matrix
[OGL LOG] update_host_mtx : 144 ms
[OGL LOG] matrix is not yet sorted, sorting host matrix
[OGL LOG] sort_host_mtx_sparsity_pattern : 190 ms
[OGL LOG] sort_host_mtx : 104 ms
[OGL LOG] init_preconditioner : 0 ms
[OGL LOG] solve : 131 ms
nonecudaGKOBiCGStab:  Solving for Uy, Initial residual = 0.396946, Final residual = 8.88576e-07, No Iterations 51
[OGL LOG] init_host_sparsity_pattern : 276 ms
[OGL LOG] matrix not stored update host matrix
[OGL LOG] update_host_mtx : 146 ms
[OGL LOG] matrix is not yet sorted, sorting host matrix
[OGL LOG] sort_host_mtx_sparsity_pattern : 192 ms
[OGL LOG] sort_host_mtx : 104 ms
[OGL LOG] init_preconditioner : 0 ms
[OGL LOG] solve : 146 ms
nonecudaGKOBiCGStab:  Solving for Uz, Initial residual = 1.00088, Final residual = 7.38009e-07, No Iterations 57
[OGL LOG] init_preconditioner : 0 ms
[OGL LOG] solve : 1100 ms
nonecudaGKOCG:  Solving for p, Initial residual = 0.832647, Final residual = 9.55403e-07, No Iterations 890
time step continuity errors : sum local = 9.20357e-10, global = 7.83313e-21, cumulative = -1.32986e-20
[OGL LOG] init_preconditioner : 0 ms
[OGL LOG] solve : 1099 ms
nonecudaGKOCG:  Solving for p, Initial residual = 0.802905, Final residual = 9.57668e-07, No Iterations 889
time step continuity errors : sum local = 8.99475e-10, global = 6.669e-21, cumulative = -6.62957e-21
ExecutionTime = 30.31 s  ClockTime = 30 s

Time = 0.004

Courant Number mean: 0.0995267 max: 0.926351
[OGL LOG] init_host_sparsity_pattern : 269 ms
[OGL LOG] matrix not stored update host matrix
[OGL LOG] update_host_mtx : 145 ms
[OGL LOG] matrix is not yet sorted, sorting host matrix
[OGL LOG] sort_host_mtx_sparsity_pattern : 191 ms
[OGL LOG] sort_host_mtx : 104 ms
[OGL LOG] init_preconditioner : 0 ms
[OGL LOG] solve : 126 ms
nonecudaGKOBiCGStab:  Solving for Ux, Initial residual = 0.0541605, Final residual = 6.79894e-07, No Iterations 49
[OGL LOG] init_host_sparsity_pattern : 277 ms
[OGL LOG] matrix not stored update host matrix
[OGL LOG] update_host_mtx : 145 ms
[OGL LOG] matrix is not yet sorted, sorting host matrix
[OGL LOG] sort_host_mtx_sparsity_pattern : 195 ms
[OGL LOG] sort_host_mtx : 105 ms
[OGL LOG] init_preconditioner : 0 ms
[OGL LOG] solve : 126 ms
nonecudaGKOBiCGStab:  Solving for Uy, Initial residual = 0.255021, Final residual = 7.74396e-07, No Iterations 48
[OGL LOG] init_host_sparsity_pattern : 280 ms
[OGL LOG] matrix not stored update host matrix
[OGL LOG] update_host_mtx : 160 ms
[OGL LOG] matrix is not yet sorted, sorting host matrix
[OGL LOG] sort_host_mtx_sparsity_pattern : 192 ms
[OGL LOG] sort_host_mtx : 105 ms
[OGL LOG] init_preconditioner : 0 ms
[OGL LOG] solve : 149 ms
nonecudaGKOBiCGStab:  Solving for Uz, Initial residual = 0.873028, Final residual = 2.81745e-07, No Iterations 57
[OGL LOG] init_preconditioner : 0 ms
[OGL LOG] solve : 1175 ms
nonecudaGKOCG:  Solving for p, Initial residual = 0.75017, Final residual = 9.63001e-07, No Iterations 889
time step continuity errors : sum local = 8.56939e-10, global = 9.16176e-21, cumulative = 2.53219e-21
[OGL LOG] init_preconditioner : 0 ms
[OGL LOG] solve : 1104 ms
nonecudaGKOCG:  Solving for p, Initial residual = 0.685317, Final residual = 9.95275e-07, No Iterations 886
time step continuity errors : sum local = 9.02415e-10, global = -1.86322e-21, cumulative = 6.6897e-22
ExecutionTime = 36.19 s  ClockTime = 36 s

Time = 0.005

Courant Number mean: 0.112163 max: 0.946348
[OGL LOG] init_host_sparsity_pattern : 275 ms
[OGL LOG] matrix not stored update host matrix
[OGL LOG] update_host_mtx : 159 ms
[OGL LOG] matrix is not yet sorted, sorting host matrix
[OGL LOG] sort_host_mtx_sparsity_pattern : 230 ms
[OGL LOG] sort_host_mtx : 129 ms
[OGL LOG] init_preconditioner : 0 ms
[OGL LOG] solve : 124 ms
nonecudaGKOBiCGStab:  Solving for Ux, Initial residual = 0.0411812, Final residual = 8.94498e-07, No Iterations 48
[OGL LOG] init_host_sparsity_pattern : 295 ms
[OGL LOG] matrix not stored update host matrix
[OGL LOG] update_host_mtx : 154 ms
[OGL LOG] matrix is not yet sorted, sorting host matrix
[OGL LOG] sort_host_mtx_sparsity_pattern : 205 ms
[OGL LOG] sort_host_mtx : 112 ms
[OGL LOG] init_preconditioner : 0 ms
[OGL LOG] solve : 131 ms
nonecudaGKOBiCGStab:  Solving for Uy, Initial residual = 0.131858, Final residual = 3.6316e-07, No Iterations 51
[OGL LOG] init_host_sparsity_pattern : 284 ms
[OGL LOG] matrix not stored update host matrix
[OGL LOG] update_host_mtx : 164 ms
[OGL LOG] matrix is not yet sorted, sorting host matrix
[OGL LOG] sort_host_mtx_sparsity_pattern : 205 ms
[OGL LOG] sort_host_mtx : 108 ms
[OGL LOG] init_preconditioner : 0 ms
[OGL LOG] solve : 137 ms
nonecudaGKOBiCGStab:  Solving for Uz, Initial residual = 0.871795, Final residual = 9.64257e-07, No Iterations 54
[OGL LOG] init_preconditioner : 0 ms
[OGL LOG] solve : 1105 ms
nonecudaGKOCG:  Solving for p, Initial residual = 0.760002, Final residual = 9.49967e-07, No Iterations 896
time step continuity errors : sum local = 7.18283e-10, global = 4.47483e-21, cumulative = 5.1438e-21
[OGL LOG] init_preconditioner : 0 ms
[OGL LOG] solve : 1096 ms
nonecudaGKOCG:  Solving for p, Initial residual = 0.713347, Final residual = 9.8206e-07, No Iterations 894
time step continuity errors : sum local = 7.30698e-10, global = -6.64225e-21, cumulative = -1.49845e-21
ExecutionTime = 42.43 s  ClockTime = 42 s

End

