/*---------------------------------------------------------------------------*\
  =========                 |
  \\      /  F ield         | OpenFOAM: The Open Source CFD Toolbox
   \\    /   O peration     | Website:  https://openfoam.org
    \\  /    A nd           | Version:  8
     \\/     M anipulation  |
\*---------------------------------------------------------------------------*/
Build  : 8-13d66902f78c
Exec   : icoFoam
Date   : Jul 13 2021
Time   : 21:50:16
Host   : "uc2n485.localdomain"
PID    : 491800
I/O    : uncollated
Case   : /pfs/data5/home/kit/scc/nq7776/code/OGL_DATA/lidDrivenCavity3D/v0.1-136-g40fef35/f584ccac99/TeslaV100-SXM2-32GB/Test_2021-07-13-21:44:10/100/p-CG-GKO-none-cuda/lidDrivenCavity3D
nProcs : 1
sigFpe : Enabling floating point exception trapping (FOAM_SIGFPE).
fileModificationChecking : Monitoring run-time modified files using timeStampMaster (fileModificationSkew 10)
allowSystemOperations : Allowing user-supplied system call operations

// * * * * * * * * * * * * * * * * * * * * * * * * * * * * * * * * * * * * * //
Create time

Create mesh for time = 0

Reading transportProperties

Reading field p

Reading field U

Reading/calculating face flux field phi


Starting time loop

Time = 0.001

Courant Number mean: 0 max: 0
nonePBiCGStab:  Solving for Ux, Initial residual = 1, Final residual = 0.0818707, No Iterations 5
nonePBiCGStab:  Solving for Uy, Initial residual = 0, Final residual = 0, No Iterations 0
nonePBiCGStab:  Solving for Uz, Initial residual = 0, Final residual = 0, No Iterations 0
[OGL LOG] init_host_sparsity_pattern : 295 ms
[OGL LOG] matrix not stored update host matrix
[OGL LOG] update_host_mtx : 157 ms
[OGL LOG] matrix is not yet sorted, compute sorting idxs
[OGL LOG] compute_sort : 8347 ms
[OGL LOG] matrix is not yet sorted, sorting host matrix
[OGL LOG] sort_host_mtx_sparsity_pattern : 200 ms
[OGL LOG] sort_host_mtx : 109 ms
[OGL LOG] init_preconditioner : 0 ms
[OGL LOG] solve : 1102 ms
nonecudaGKOCG:  Solving for p, Initial residual = 1, Final residual = 9.68368e-07, No Iterations 898
time step continuity errors : sum local = 3.66751e-10, global = -5.74453e-21, cumulative = -5.74453e-21
[OGL LOG] init_preconditioner : 0 ms
[OGL LOG] solve : 1089 ms
nonecudaGKOCG:  Solving for p, Initial residual = 0.707485, Final residual = 9.29847e-07, No Iterations 892
time step continuity errors : sum local = 4.87759e-10, global = -7.0204e-21, cumulative = -1.27649e-20
ExecutionTime = 17.4 s  ClockTime = 17 s

Time = 0.002

Courant Number mean: 0.0422155 max: 0.791725
nonePBiCGStab:  Solving for Ux, Initial residual = 0.137867, Final residual = 0.0400077, No Iterations 5
nonePBiCGStab:  Solving for Uy, Initial residual = 0.451746, Final residual = 0.130142, No Iterations 5
nonePBiCGStab:  Solving for Uz, Initial residual = 0.987526, Final residual = 0.323465, No Iterations 5
[OGL LOG] init_preconditioner : 0 ms
[OGL LOG] solve : 1055 ms
nonecudaGKOCG:  Solving for p, Initial residual = 0.789699, Final residual = 9.8883e-07, No Iterations 866
time step continuity errors : sum local = 9.01116e-10, global = 1.05414e-21, cumulative = -1.17108e-20
[OGL LOG] init_preconditioner : 0 ms
[OGL LOG] solve : 1062 ms
nonecudaGKOCG:  Solving for p, Initial residual = 0.713525, Final residual = 9.81904e-07, No Iterations 862
time step continuity errors : sum local = 9.12143e-10, global = 1.30461e-20, cumulative = 1.33531e-21
ExecutionTime = 21.13 s  ClockTime = 21 s

Time = 0.003

Courant Number mean: 0.0674676 max: 0.89998
nonePBiCGStab:  Solving for Ux, Initial residual = 0.0610629, Final residual = 0.0153012, No Iterations 5
nonePBiCGStab:  Solving for Uy, Initial residual = 0.208727, Final residual = 0.0593993, No Iterations 5
nonePBiCGStab:  Solving for Uz, Initial residual = 0.712493, Final residual = 0.213731, No Iterations 5
[OGL LOG] init_preconditioner : 0 ms
[OGL LOG] solve : 1051 ms
nonecudaGKOCG:  Solving for p, Initial residual = 0.797066, Final residual = 9.8119e-07, No Iterations 876
time step continuity errors : sum local = 7.10882e-10, global = -1.50683e-21, cumulative = -1.7152e-22
[OGL LOG] init_preconditioner : 0 ms
[OGL LOG] solve : 1050 ms
nonecudaGKOCG:  Solving for p, Initial residual = 0.724869, Final residual = 9.91608e-07, No Iterations 874
time step continuity errors : sum local = 7.00738e-10, global = -2.88076e-21, cumulative = -3.05228e-21
ExecutionTime = 24.85 s  ClockTime = 25 s

Time = 0.004

Courant Number mean: 0.0814739 max: 0.91289
nonePBiCGStab:  Solving for Ux, Initial residual = 0.0387865, Final residual = 0.0107239, No Iterations 5
nonePBiCGStab:  Solving for Uy, Initial residual = 0.148965, Final residual = 0.0502054, No Iterations 5
nonePBiCGStab:  Solving for Uz, Initial residual = 0.492871, Final residual = 0.135099, No Iterations 5
[OGL LOG] init_preconditioner : 0 ms
[OGL LOG] solve : 1037 ms
nonecudaGKOCG:  Solving for p, Initial residual = 0.719472, Final residual = 9.5366e-07, No Iterations 861
time step continuity errors : sum local = 7.09517e-10, global = 9.86168e-21, cumulative = 6.80941e-21
[OGL LOG] init_preconditioner : 0 ms
[OGL LOG] solve : 1033 ms
nonecudaGKOCG:  Solving for p, Initial residual = 0.61984, Final residual = 9.75406e-07, No Iterations 858
time step continuity errors : sum local = 7.42384e-10, global = 5.67696e-21, cumulative = 1.24864e-20
ExecutionTime = 28.48 s  ClockTime = 29 s

Time = 0.005

Courant Number mean: 0.092279 max: 0.925557
nonePBiCGStab:  Solving for Ux, Initial residual = 0.0298127, Final residual = 0.00896084, No Iterations 5
nonePBiCGStab:  Solving for Uy, Initial residual = 0.0986419, Final residual = 0.0358093, No Iterations 5
nonePBiCGStab:  Solving for Uz, Initial residual = 0.30483, Final residual = 0.0787283, No Iterations 5
[OGL LOG] init_preconditioner : 0 ms
[OGL LOG] solve : 1040 ms
nonecudaGKOCG:  Solving for p, Initial residual = 0.757141, Final residual = 9.6266e-07, No Iterations 856
time step continuity errors : sum local = 6.57655e-10, global = 4.62125e-21, cumulative = 1.71076e-20
[OGL LOG] init_preconditioner : 0 ms
[OGL LOG] solve : 1030 ms
nonecudaGKOCG:  Solving for p, Initial residual = 0.670842, Final residual = 9.59485e-07, No Iterations 854
time step continuity errors : sum local = 6.47798e-10, global = 9.73044e-21, cumulative = 2.68381e-20
ExecutionTime = 32.13 s  ClockTime = 32 s

End

