/*---------------------------------------------------------------------------*\
  =========                 |
  \\      /  F ield         | OpenFOAM: The Open Source CFD Toolbox
   \\    /   O peration     | Website:  https://openfoam.org
    \\  /    A nd           | Version:  8
     \\/     M anipulation  |
\*---------------------------------------------------------------------------*/
Build  : 8-13d66902f78c
Exec   : icoFoam
Date   : Jul 13 2021
Time   : 22:42:49
Host   : "uc2n485.localdomain"
PID    : 557291
I/O    : uncollated
Case   : /pfs/data5/home/kit/scc/nq7776/code/OGL_DATA/lidDrivenCavity3D/v0.1-136-g40fef35/f584ccac99/TeslaV100-SXM2-32GB/Test_2021-07-13-22:41:20/50/p-U-BiCGStab-GKO-none-cuda/lidDrivenCavity3D
nProcs : 1
sigFpe : Enabling floating point exception trapping (FOAM_SIGFPE).
fileModificationChecking : Monitoring run-time modified files using timeStampMaster (fileModificationSkew 10)
allowSystemOperations : Allowing user-supplied system call operations

// * * * * * * * * * * * * * * * * * * * * * * * * * * * * * * * * * * * * * //
Create time

Create mesh for time = 0

Reading transportProperties

Reading field p

Reading field U

Reading/calculating face flux field phi


Starting time loop

Time = 0.002

Courant Number mean: 0 max: 0
[OGL LOG] init_host_sparsity_pattern : 36 ms
[OGL LOG] matrix not stored update host matrix
[OGL LOG] update_host_mtx : 19 ms
[OGL LOG] matrix is not yet sorted, compute sorting idxs
[OGL LOG] compute_sort : 916 ms
[OGL LOG] matrix is not yet sorted, sorting host matrix
[OGL LOG] sort_host_mtx_sparsity_pattern : 23 ms
[OGL LOG] sort_host_mtx : 12 ms
[OGL LOG] init_preconditioner : 0 ms
[OGL LOG] solve : 16 ms
nonecudaGKOBiCGStab:  Solving for Ux, Initial residual = 1, Final residual = 8.6314e-07, No Iterations 41
[OGL LOG] init_host_sparsity_pattern : 33 ms
[OGL LOG] matrix not stored update host matrix
[OGL LOG] update_host_mtx : 15 ms
[OGL LOG] matrix is not yet sorted, sorting host matrix
[OGL LOG] sort_host_mtx_sparsity_pattern : 23 ms
[OGL LOG] sort_host_mtx : 12 ms
[OGL LOG] init_preconditioner : 0 ms
[OGL LOG] solve : 2 ms
nonecudaGKOBiCGStab:  Solving for Uy, Initial residual = 0, Final residual = 0, No Iterations 0
[OGL LOG] init_host_sparsity_pattern : 33 ms
[OGL LOG] matrix not stored update host matrix
[OGL LOG] update_host_mtx : 20 ms
[OGL LOG] matrix is not yet sorted, sorting host matrix
[OGL LOG] sort_host_mtx_sparsity_pattern : 21 ms
[OGL LOG] sort_host_mtx : 12 ms
[OGL LOG] init_preconditioner : 0 ms
[OGL LOG] solve : 2 ms
nonecudaGKOBiCGStab:  Solving for Uz, Initial residual = 0, Final residual = 0, No Iterations 0
[OGL LOG] init_host_sparsity_pattern : 33 ms
[OGL LOG] matrix not stored update host matrix
[OGL LOG] update_host_mtx : 16 ms
[OGL LOG] matrix is not yet sorted, sorting host matrix
[OGL LOG] sort_host_mtx_sparsity_pattern : 22 ms
[OGL LOG] sort_host_mtx : 14 ms
[OGL LOG] init_preconditioner : 0 ms
[OGL LOG] solve : 117 ms
nonecudaGKOBiCGStab:  Solving for p, Initial residual = 1, Final residual = 3.03466e-07, No Iterations 349
time step continuity errors : sum local = 9.72666e-10, global = 6.88809e-21, cumulative = 6.88809e-21
[OGL LOG] init_preconditioner : 0 ms
[OGL LOG] solve : 116 ms
nonecudaGKOBiCGStab:  Solving for p, Initial residual = 0.721583, Final residual = 5.94725e-07, No Iterations 347
time step continuity errors : sum local = 2.58447e-09, global = -5.45425e-21, cumulative = 1.43383e-21
ExecutionTime = 3.05 s  ClockTime = 3 s

Time = 0.004

Courant Number mean: 0.0720722 max: 0.726639
[OGL LOG] init_host_sparsity_pattern : 33 ms
[OGL LOG] matrix not stored update host matrix
[OGL LOG] update_host_mtx : 16 ms
[OGL LOG] matrix is not yet sorted, sorting host matrix
[OGL LOG] sort_host_mtx_sparsity_pattern : 21 ms
[OGL LOG] sort_host_mtx : 12 ms
[OGL LOG] init_preconditioner : 0 ms
[OGL LOG] solve : 15 ms
nonecudaGKOBiCGStab:  Solving for Ux, Initial residual = 0.203466, Final residual = 8.87561e-07, No Iterations 39
[OGL LOG] init_host_sparsity_pattern : 33 ms
[OGL LOG] matrix not stored update host matrix
[OGL LOG] update_host_mtx : 23 ms
[OGL LOG] matrix is not yet sorted, sorting host matrix
[OGL LOG] sort_host_mtx_sparsity_pattern : 35 ms
[OGL LOG] sort_host_mtx : 13 ms
[OGL LOG] init_preconditioner : 0 ms
[OGL LOG] solve : 15 ms
nonecudaGKOBiCGStab:  Solving for Uy, Initial residual = 0.61843, Final residual = 9.568e-07, No Iterations 40
[OGL LOG] init_host_sparsity_pattern : 33 ms
[OGL LOG] matrix not stored update host matrix
[OGL LOG] update_host_mtx : 15 ms
[OGL LOG] matrix is not yet sorted, sorting host matrix
[OGL LOG] sort_host_mtx_sparsity_pattern : 21 ms
[OGL LOG] sort_host_mtx : 12 ms
[OGL LOG] init_preconditioner : 0 ms
[OGL LOG] solve : 14 ms
nonecudaGKOBiCGStab:  Solving for Uz, Initial residual = 0.536331, Final residual = 8.82361e-07, No Iterations 39
[OGL LOG] init_preconditioner : 0 ms
[OGL LOG] solve : 115 ms
nonecudaGKOBiCGStab:  Solving for p, Initial residual = 0.673317, Final residual = 8.17566e-07, No Iterations 346
time step continuity errors : sum local = 3.87744e-09, global = 8.54206e-22, cumulative = 2.28804e-21
[OGL LOG] init_preconditioner : 0 ms
[OGL LOG] solve : 116 ms
nonecudaGKOBiCGStab:  Solving for p, Initial residual = 0.598887, Final residual = 2.30849e-07, No Iterations 346
time step continuity errors : sum local = 1.1163e-09, global = -3.6019e-20, cumulative = -3.37309e-20
ExecutionTime = 3.72 s  ClockTime = 3 s

Time = 0.006

Courant Number mean: 0.107408 max: 0.881755
[OGL LOG] init_host_sparsity_pattern : 33 ms
[OGL LOG] matrix not stored update host matrix
[OGL LOG] update_host_mtx : 15 ms
[OGL LOG] matrix is not yet sorted, sorting host matrix
[OGL LOG] sort_host_mtx_sparsity_pattern : 21 ms
[OGL LOG] sort_host_mtx : 12 ms
[OGL LOG] init_preconditioner : 0 ms
[OGL LOG] solve : 13 ms
nonecudaGKOBiCGStab:  Solving for Ux, Initial residual = 0.0995736, Final residual = 9.76535e-07, No Iterations 35
[OGL LOG] init_host_sparsity_pattern : 33 ms
[OGL LOG] matrix not stored update host matrix
[OGL LOG] update_host_mtx : 15 ms
[OGL LOG] matrix is not yet sorted, sorting host matrix
[OGL LOG] sort_host_mtx_sparsity_pattern : 21 ms
[OGL LOG] sort_host_mtx : 12 ms
[OGL LOG] init_preconditioner : 0 ms
[OGL LOG] solve : 14 ms
nonecudaGKOBiCGStab:  Solving for Uy, Initial residual = 0.249956, Final residual = 9.67086e-07, No Iterations 37
[OGL LOG] init_host_sparsity_pattern : 33 ms
[OGL LOG] matrix not stored update host matrix
[OGL LOG] update_host_mtx : 15 ms
[OGL LOG] matrix is not yet sorted, sorting host matrix
[OGL LOG] sort_host_mtx_sparsity_pattern : 21 ms
[OGL LOG] sort_host_mtx : 12 ms
[OGL LOG] init_preconditioner : 0 ms
[OGL LOG] solve : 15 ms
nonecudaGKOBiCGStab:  Solving for Uz, Initial residual = 0.541245, Final residual = 9.22666e-07, No Iterations 40
[OGL LOG] init_preconditioner : 0 ms
[OGL LOG] solve : 120 ms
nonecudaGKOBiCGStab:  Solving for p, Initial residual = 0.60689, Final residual = 7.85264e-07, No Iterations 360
time step continuity errors : sum local = 2.67398e-09, global = 1.11189e-20, cumulative = -2.2612e-20
[OGL LOG] init_preconditioner : 0 ms
[OGL LOG] solve : 126 ms
nonecudaGKOBiCGStab:  Solving for p, Initial residual = 0.560836, Final residual = 1.94248e-07, No Iterations 377
time step continuity errors : sum local = 6.39398e-10, global = -3.08272e-20, cumulative = -5.34392e-20
ExecutionTime = 4.36 s  ClockTime = 4 s

Time = 0.008

Courant Number mean: 0.123244 max: 0.890102
[OGL LOG] init_host_sparsity_pattern : 34 ms
[OGL LOG] matrix not stored update host matrix
[OGL LOG] update_host_mtx : 15 ms
[OGL LOG] matrix is not yet sorted, sorting host matrix
[OGL LOG] sort_host_mtx_sparsity_pattern : 21 ms
[OGL LOG] sort_host_mtx : 12 ms
[OGL LOG] init_preconditioner : 0 ms
[OGL LOG] solve : 12 ms
nonecudaGKOBiCGStab:  Solving for Ux, Initial residual = 0.0341441, Final residual = 8.33894e-07, No Iterations 31
[OGL LOG] init_host_sparsity_pattern : 32 ms
[OGL LOG] matrix not stored update host matrix
[OGL LOG] update_host_mtx : 15 ms
[OGL LOG] matrix is not yet sorted, sorting host matrix
[OGL LOG] sort_host_mtx_sparsity_pattern : 21 ms
[OGL LOG] sort_host_mtx : 12 ms
[OGL LOG] init_preconditioner : 0 ms
[OGL LOG] solve : 14 ms
nonecudaGKOBiCGStab:  Solving for Uy, Initial residual = 0.13238, Final residual = 7.91393e-07, No Iterations 36
[OGL LOG] init_host_sparsity_pattern : 33 ms
[OGL LOG] matrix not stored update host matrix
[OGL LOG] update_host_mtx : 15 ms
[OGL LOG] matrix is not yet sorted, sorting host matrix
[OGL LOG] sort_host_mtx_sparsity_pattern : 21 ms
[OGL LOG] sort_host_mtx : 12 ms
[OGL LOG] init_preconditioner : 0 ms
[OGL LOG] solve : 15 ms
nonecudaGKOBiCGStab:  Solving for Uz, Initial residual = 0.472203, Final residual = 8.6363e-07, No Iterations 40
[OGL LOG] init_preconditioner : 0 ms
[OGL LOG] solve : 122 ms
nonecudaGKOBiCGStab:  Solving for p, Initial residual = 0.423044, Final residual = 9.64449e-07, No Iterations 367
time step continuity errors : sum local = 3.04524e-09, global = -1.5015e-20, cumulative = -6.84542e-20
[OGL LOG] init_preconditioner : 0 ms
[OGL LOG] solve : 125 ms
nonecudaGKOBiCGStab:  Solving for p, Initial residual = 0.368385, Final residual = 9.36268e-07, No Iterations 375
time step continuity errors : sum local = 2.99928e-09, global = -1.48046e-20, cumulative = -8.32589e-20
ExecutionTime = 4.99 s  ClockTime = 5 s

Time = 0.01

Courant Number mean: 0.136096 max: 0.906942
[OGL LOG] init_host_sparsity_pattern : 33 ms
[OGL LOG] matrix not stored update host matrix
[OGL LOG] update_host_mtx : 15 ms
[OGL LOG] matrix is not yet sorted, sorting host matrix
[OGL LOG] sort_host_mtx_sparsity_pattern : 21 ms
[OGL LOG] sort_host_mtx : 12 ms
[OGL LOG] init_preconditioner : 0 ms
[OGL LOG] solve : 11 ms
nonecudaGKOBiCGStab:  Solving for Ux, Initial residual = 0.0230729, Final residual = 9.72898e-07, No Iterations 29
[OGL LOG] init_host_sparsity_pattern : 33 ms
[OGL LOG] matrix not stored update host matrix
[OGL LOG] update_host_mtx : 15 ms
[OGL LOG] matrix is not yet sorted, sorting host matrix
[OGL LOG] sort_host_mtx_sparsity_pattern : 21 ms
[OGL LOG] sort_host_mtx : 12 ms
[OGL LOG] init_preconditioner : 0 ms
[OGL LOG] solve : 12 ms
nonecudaGKOBiCGStab:  Solving for Uy, Initial residual = 0.0484162, Final residual = 8.1071e-07, No Iterations 32
[OGL LOG] init_host_sparsity_pattern : 33 ms
[OGL LOG] matrix not stored update host matrix
[OGL LOG] update_host_mtx : 15 ms
[OGL LOG] matrix is not yet sorted, sorting host matrix
[OGL LOG] sort_host_mtx_sparsity_pattern : 24 ms
[OGL LOG] sort_host_mtx : 12 ms
[OGL LOG] init_preconditioner : 0 ms
[OGL LOG] solve : 13 ms
nonecudaGKOBiCGStab:  Solving for Uz, Initial residual = 0.158971, Final residual = 9.86443e-07, No Iterations 35
[OGL LOG] init_preconditioner : 0 ms
[OGL LOG] solve : 115 ms
nonecudaGKOBiCGStab:  Solving for p, Initial residual = 0.361665, Final residual = 8.99716e-07, No Iterations 343
time step continuity errors : sum local = 2.45787e-09, global = 1.34431e-20, cumulative = -6.98157e-20
[OGL LOG] init_preconditioner : 0 ms
[OGL LOG] solve : 108 ms
nonecudaGKOBiCGStab:  Solving for p, Initial residual = 0.333161, Final residual = 8.47597e-07, No Iterations 324
time step continuity errors : sum local = 2.19713e-09, global = -1.36128e-20, cumulative = -8.34286e-20
ExecutionTime = 5.62 s  ClockTime = 5 s

End

