/*---------------------------------------------------------------------------*\
  =========                 |
  \\      /  F ield         | OpenFOAM: The Open Source CFD Toolbox
   \\    /   O peration     | Website:  https://openfoam.org
    \\  /    A nd           | Version:  8
     \\/     M anipulation  |
\*---------------------------------------------------------------------------*/
Build  : 8-13d66902f78c
Exec   : icoFoam
Date   : Jul 13 2021
Time   : 22:22:31
Host   : "uc2n485.localdomain"
PID    : 530350
I/O    : uncollated
Case   : /pfs/data5/home/kit/scc/nq7776/code/OGL_DATA/lidDrivenCavity3D/v0.1-136-g40fef35/f584ccac99/TeslaV100-SXM2-32GB/Test_2021-07-13-22:21:04/50/p-BiCGStab-GKO-BJ-cuda/lidDrivenCavity3D
nProcs : 1
sigFpe : Enabling floating point exception trapping (FOAM_SIGFPE).
fileModificationChecking : Monitoring run-time modified files using timeStampMaster (fileModificationSkew 10)
allowSystemOperations : Allowing user-supplied system call operations

// * * * * * * * * * * * * * * * * * * * * * * * * * * * * * * * * * * * * * //
Create time

Create mesh for time = 0

Reading transportProperties

Reading field p

Reading field U

Reading/calculating face flux field phi


Starting time loop

Time = 0.002

Courant Number mean: 0 max: 0
nonePBiCGStab:  Solving for Ux, Initial residual = 1, Final residual = 0.0592055, No Iterations 5
nonePBiCGStab:  Solving for Uy, Initial residual = 0, Final residual = 0, No Iterations 0
nonePBiCGStab:  Solving for Uz, Initial residual = 0, Final residual = 0, No Iterations 0
[OGL LOG] init_host_sparsity_pattern : 34 ms
[OGL LOG] matrix not stored update host matrix
[OGL LOG] update_host_mtx : 17 ms
[OGL LOG] matrix is not yet sorted, compute sorting idxs
[OGL LOG] compute_sort : 967 ms
[OGL LOG] matrix is not yet sorted, sorting host matrix
[OGL LOG] sort_host_mtx_sparsity_pattern : 25 ms
[OGL LOG] sort_host_mtx : 13 ms
[OGL LOG] init_preconditioner : 14 ms
[OGL LOG] solve : 127 ms
BJcudaGKOBiCGStab:  Solving for p, Initial residual = 1, Final residual = 4.4153e-07, No Iterations 324
time step continuity errors : sum local = 9.29937e-10, global = 6.01143e-21, cumulative = 6.01143e-21
[OGL LOG] init_preconditioner : 0 ms
[OGL LOG] solve : 119 ms
BJcudaGKOBiCGStab:  Solving for p, Initial residual = 0.67673, Final residual = 7.46711e-07, No Iterations 318
time step continuity errors : sum local = 2.37462e-09, global = 2.19436e-20, cumulative = 2.7955e-20
ExecutionTime = 2.87 s  ClockTime = 3 s

Time = 0.004

Courant Number mean: 0.0636233 max: 0.723792
nonePBiCGStab:  Solving for Ux, Initial residual = 0.144136, Final residual = 0.0219205, No Iterations 5
nonePBiCGStab:  Solving for Uy, Initial residual = 0.363931, Final residual = 0.0522818, No Iterations 5
nonePBiCGStab:  Solving for Uz, Initial residual = 0.973654, Final residual = 0.158937, No Iterations 5
[OGL LOG] init_preconditioner : 0 ms
[OGL LOG] solve : 117 ms
BJcudaGKOBiCGStab:  Solving for p, Initial residual = 0.66851, Final residual = 7.32528e-07, No Iterations 312
time step continuity errors : sum local = 2.92838e-09, global = 1.66221e-20, cumulative = 4.45771e-20
[OGL LOG] init_preconditioner : 0 ms
[OGL LOG] solve : 123 ms
BJcudaGKOBiCGStab:  Solving for p, Initial residual = 0.584661, Final residual = 8.39446e-07, No Iterations 319
time step continuity errors : sum local = 2.63148e-09, global = 1.68715e-20, cumulative = 6.14486e-20
ExecutionTime = 3.27 s  ClockTime = 4 s

Time = 0.006

Courant Number mean: 0.0972275 max: 0.862515
nonePBiCGStab:  Solving for Ux, Initial residual = 0.0524174, Final residual = 0.00685512, No Iterations 5
nonePBiCGStab:  Solving for Uy, Initial residual = 0.12705, Final residual = 0.0201188, No Iterations 5
nonePBiCGStab:  Solving for Uz, Initial residual = 0.366657, Final residual = 0.0530561, No Iterations 5
[OGL LOG] init_preconditioner : 0 ms
[OGL LOG] solve : 120 ms
BJcudaGKOBiCGStab:  Solving for p, Initial residual = 0.594544, Final residual = 5.78065e-07, No Iterations 327
time step continuity errors : sum local = 9.29681e-10, global = 1.95019e-20, cumulative = 8.09505e-20
[OGL LOG] init_preconditioner : 0 ms
[OGL LOG] solve : 121 ms
BJcudaGKOBiCGStab:  Solving for p, Initial residual = 0.528703, Final residual = 8.80444e-07, No Iterations 330
time step continuity errors : sum local = 2.1141e-09, global = -3.59442e-21, cumulative = 7.73561e-20
ExecutionTime = 3.64 s  ClockTime = 4 s

Time = 0.008

Courant Number mean: 0.113794 max: 0.88248
nonePBiCGStab:  Solving for Ux, Initial residual = 0.0289577, Final residual = 0.00344479, No Iterations 5
nonePBiCGStab:  Solving for Uy, Initial residual = 0.0844244, Final residual = 0.0109194, No Iterations 5
nonePBiCGStab:  Solving for Uz, Initial residual = 0.229155, Final residual = 0.0297621, No Iterations 5
[OGL LOG] init_preconditioner : 0 ms
[OGL LOG] solve : 138 ms
BJcudaGKOBiCGStab:  Solving for p, Initial residual = 0.41143, Final residual = 7.53382e-07, No Iterations 377
time step continuity errors : sum local = 1.14814e-09, global = 1.05549e-20, cumulative = 8.7911e-20
[OGL LOG] init_preconditioner : 0 ms
[OGL LOG] solve : 115 ms
BJcudaGKOBiCGStab:  Solving for p, Initial residual = 0.342687, Final residual = 6.77172e-07, No Iterations 316
time step continuity errors : sum local = 1.15005e-09, global = 1.78e-20, cumulative = 1.05711e-19
ExecutionTime = 4.03 s  ClockTime = 4 s

Time = 0.01

Courant Number mean: 0.127339 max: 0.898877
nonePBiCGStab:  Solving for Ux, Initial residual = 0.0202775, Final residual = 0.00208489, No Iterations 5
nonePBiCGStab:  Solving for Uy, Initial residual = 0.0505568, Final residual = 0.00623588, No Iterations 5
nonePBiCGStab:  Solving for Uz, Initial residual = 0.112909, Final residual = 0.0180698, No Iterations 5
[OGL LOG] init_preconditioner : 0 ms
[OGL LOG] solve : 108 ms
BJcudaGKOBiCGStab:  Solving for p, Initial residual = 0.354043, Final residual = 7.69947e-07, No Iterations 294
time step continuity errors : sum local = 9.81061e-10, global = 1.01795e-20, cumulative = 1.1589e-19
[OGL LOG] init_preconditioner : 0 ms
[OGL LOG] solve : 119 ms
BJcudaGKOBiCGStab:  Solving for p, Initial residual = 0.302212, Final residual = 1.53158e-07, No Iterations 324
time step continuity errors : sum local = 2.14969e-10, global = 6.48368e-20, cumulative = 1.80727e-19
ExecutionTime = 4.38 s  ClockTime = 5 s

End

