/*---------------------------------------------------------------------------*\
  =========                 |
  \\      /  F ield         | OpenFOAM: The Open Source CFD Toolbox
   \\    /   O peration     | Website:  https://openfoam.org
    \\  /    A nd           | Version:  8
     \\/     M anipulation  |
\*---------------------------------------------------------------------------*/
Build  : 8-13d66902f78c
Exec   : icoFoam
Date   : Jul 13 2021
Time   : 21:57:32
Host   : "uc2n485.localdomain"
PID    : 501040
I/O    : uncollated
Case   : /pfs/data5/home/kit/scc/nq7776/code/OGL_DATA/lidDrivenCavity3D/v0.1-136-g40fef35/f584ccac99/TeslaV100-SXM2-32GB/Test_2021-07-13-21:53:48/75/p-BiCGStab-GKO-none-cuda/lidDrivenCavity3D
nProcs : 1
sigFpe : Enabling floating point exception trapping (FOAM_SIGFPE).
fileModificationChecking : Monitoring run-time modified files using timeStampMaster (fileModificationSkew 10)
allowSystemOperations : Allowing user-supplied system call operations

// * * * * * * * * * * * * * * * * * * * * * * * * * * * * * * * * * * * * * //
Create time

Create mesh for time = 0

Reading transportProperties

Reading field p

Reading field U

Reading/calculating face flux field phi


Starting time loop

Time = 0.00133333

Courant Number mean: 0 max: 0
nonePBiCGStab:  Solving for Ux, Initial residual = 1, Final residual = 0.0730209, No Iterations 5
nonePBiCGStab:  Solving for Uy, Initial residual = 0, Final residual = 0, No Iterations 0
nonePBiCGStab:  Solving for Uz, Initial residual = 0, Final residual = 0, No Iterations 0
[OGL LOG] init_host_sparsity_pattern : 124 ms
[OGL LOG] matrix not stored update host matrix
[OGL LOG] update_host_mtx : 66 ms
[OGL LOG] matrix is not yet sorted, compute sorting idxs
[OGL LOG] compute_sort : 3368 ms
[OGL LOG] matrix is not yet sorted, sorting host matrix
[OGL LOG] sort_host_mtx_sparsity_pattern : 83 ms
[OGL LOG] sort_host_mtx : 45 ms
[OGL LOG] init_preconditioner : 0 ms
[OGL LOG] solve : 689 ms
nonecudaGKOBiCGStab:  Solving for p, Initial residual = 1, Final residual = 4.25588e-07, No Iterations 544
time step continuity errors : sum local = 4.28356e-05, global = 2.45266e-21, cumulative = 2.45266e-21
[OGL LOG] init_preconditioner : 0 ms
[OGL LOG] solve : 698 ms
nonecudaGKOBiCGStab:  Solving for p, Initial residual = 0.713465, Final residual = 8.74434e-07, No Iterations 549
time step continuity errors : sum local = 1.64808e-05, global = 2.94175e-20, cumulative = 3.18701e-20
ExecutionTime = 8.26 s  ClockTime = 8 s

Time = 0.00266667

Courant Number mean: 0.0508118 max: 0.767258
nonePBiCGStab:  Solving for Ux, Initial residual = 0.141191, Final residual = 0.0327876, No Iterations 5
nonePBiCGStab:  Solving for Uy, Initial residual = 0.413803, Final residual = 0.0983392, No Iterations 5
nonePBiCGStab:  Solving for Uz, Initial residual = 0.904235, Final residual = 0.253756, No Iterations 5
[OGL LOG] init_preconditioner : 0 ms
[OGL LOG] solve : 654 ms
nonecudaGKOBiCGStab:  Solving for p, Initial residual = 0.768821, Final residual = 6.10074e-07, No Iterations 516
time step continuity errors : sum local = 9.13403e-05, global = 8.24791e-20, cumulative = 1.14349e-19
[OGL LOG] init_preconditioner : 0 ms
[OGL LOG] solve : 689 ms
nonecudaGKOBiCGStab:  Solving for p, Initial residual = 0.680092, Final residual = 1.94737e-07, No Iterations 539
time step continuity errors : sum local = 0.000137402, global = 4.01536e-20, cumulative = 1.54503e-19
ExecutionTime = 10.16 s  ClockTime = 10 s

Time = 0.004

Courant Number mean: 0.079459 max: 0.888134
nonePBiCGStab:  Solving for Ux, Initial residual = 0.0600416, Final residual = 0.011273, No Iterations 5
nonePBiCGStab:  Solving for Uy, Initial residual = 0.188844, Final residual = 0.0464182, No Iterations 5
nonePBiCGStab:  Solving for Uz, Initial residual = 0.577711, Final residual = 0.190393, No Iterations 5
[OGL LOG] init_preconditioner : 0 ms
[OGL LOG] solve : 764 ms
nonecudaGKOBiCGStab:  Solving for p, Initial residual = 0.849124, Final residual = 6.02858e-07, No Iterations 589
time step continuity errors : sum local = 0.000524653, global = 1.65684e-20, cumulative = 1.71071e-19
[OGL LOG] init_preconditioner : 0 ms
[OGL LOG] solve : 687 ms
nonecudaGKOBiCGStab:  Solving for p, Initial residual = 0.842754, Final residual = 8.41418e-07, No Iterations 530
time step continuity errors : sum local = 0.00010591, global = -8.05129e-20, cumulative = 9.05584e-20
ExecutionTime = 12.17 s  ClockTime = 12 s

Time = 0.00533333

Courant Number mean: 0.0946749 max: 0.902528
nonePBiCGStab:  Solving for Ux, Initial residual = 0.0390842, Final residual = 0.00809933, No Iterations 5
nonePBiCGStab:  Solving for Uy, Initial residual = 0.145441, Final residual = 0.0395081, No Iterations 5
nonePBiCGStab:  Solving for Uz, Initial residual = 0.669109, Final residual = 0.188855, No Iterations 5
[OGL LOG] init_preconditioner : 0 ms
[OGL LOG] solve : 691 ms
nonecudaGKOBiCGStab:  Solving for p, Initial residual = 0.773478, Final residual = 8.90858e-07, No Iterations 530
time step continuity errors : sum local = 0.000215455, global = -2.85021e-19, cumulative = -1.94463e-19
[OGL LOG] init_preconditioner : 0 ms
[OGL LOG] solve : 712 ms
nonecudaGKOBiCGStab:  Solving for p, Initial residual = 0.70462, Final residual = 8.09498e-07, No Iterations 545
time step continuity errors : sum local = 7.7611e-05, global = -1.44063e-19, cumulative = -3.38526e-19
ExecutionTime = 14.14 s  ClockTime = 14 s

Time = 0.00666667

Courant Number mean: 0.106627 max: 0.916351
nonePBiCGStab:  Solving for Ux, Initial residual = 0.0289002, Final residual = 0.00676269, No Iterations 5
nonePBiCGStab:  Solving for Uy, Initial residual = 0.0911103, Final residual = 0.0269039, No Iterations 5
nonePBiCGStab:  Solving for Uz, Initial residual = 0.500264, Final residual = 0.131661, No Iterations 5
[OGL LOG] init_preconditioner : 0 ms
[OGL LOG] solve : 646 ms
nonecudaGKOBiCGStab:  Solving for p, Initial residual = 0.77159, Final residual = 8.88816e-07, No Iterations 507
time step continuity errors : sum local = 2.50514e-05, global = 6.92182e-20, cumulative = -2.69308e-19
[OGL LOG] init_preconditioner : 0 ms
[OGL LOG] solve : 669 ms
nonecudaGKOBiCGStab:  Solving for p, Initial residual = 0.712709, Final residual = 8.10378e-07, No Iterations 529
time step continuity errors : sum local = 1.43561e-05, global = -1.85922e-21, cumulative = -2.71167e-19
ExecutionTime = 16.01 s  ClockTime = 16 s

End

