/*---------------------------------------------------------------------------*\
  =========                 |
  \\      /  F ield         | OpenFOAM: The Open Source CFD Toolbox
   \\    /   O peration     | Website:  https://openfoam.org
    \\  /    A nd           | Version:  8
     \\/     M anipulation  |
\*---------------------------------------------------------------------------*/
Build  : 8-13d66902f78c
Exec   : icoFoam
Date   : Jul 13 2021
Time   : 23:04:43
Host   : "uc2n485.localdomain"
PID    : 584857
I/O    : uncollated
Case   : /pfs/data5/home/kit/scc/nq7776/code/OGL_DATA/lidDrivenCavity3D/v0.1-136-g40fef35/f584ccac99/TeslaV100-SXM2-32GB/Test_2021-07-13-23:03:13/50/p-U-BiCGStab-GKO-BJ-cuda/lidDrivenCavity3D
nProcs : 1
sigFpe : Enabling floating point exception trapping (FOAM_SIGFPE).
fileModificationChecking : Monitoring run-time modified files using timeStampMaster (fileModificationSkew 10)
allowSystemOperations : Allowing user-supplied system call operations

// * * * * * * * * * * * * * * * * * * * * * * * * * * * * * * * * * * * * * //
Create time

Create mesh for time = 0

Reading transportProperties

Reading field p

Reading field U

Reading/calculating face flux field phi


Starting time loop

Time = 0.002

Courant Number mean: 0 max: 0
[OGL LOG] init_host_sparsity_pattern : 35 ms
[OGL LOG] matrix not stored update host matrix
[OGL LOG] update_host_mtx : 20 ms
[OGL LOG] matrix is not yet sorted, compute sorting idxs
[OGL LOG] compute_sort : 947 ms
[OGL LOG] matrix is not yet sorted, sorting host matrix
[OGL LOG] sort_host_mtx_sparsity_pattern : 24 ms
[OGL LOG] sort_host_mtx : 13 ms
[OGL LOG] init_preconditioner : 14 ms
[OGL LOG] solve : 18 ms
BJcudaGKOBiCGStab:  Solving for Ux, Initial residual = 1, Final residual = 3.80766e-07, No Iterations 41
[OGL LOG] init_host_sparsity_pattern : 33 ms
[OGL LOG] matrix not stored update host matrix
[OGL LOG] update_host_mtx : 16 ms
[OGL LOG] matrix is not yet sorted, sorting host matrix
[OGL LOG] sort_host_mtx_sparsity_pattern : 25 ms
[OGL LOG] sort_host_mtx : 13 ms
[OGL LOG] init_preconditioner : 15 ms
[OGL LOG] solve : 3 ms
BJcudaGKOBiCGStab:  Solving for Uy, Initial residual = 0, Final residual = 0, No Iterations 0
[OGL LOG] init_host_sparsity_pattern : 33 ms
[OGL LOG] matrix not stored update host matrix
[OGL LOG] update_host_mtx : 16 ms
[OGL LOG] matrix is not yet sorted, sorting host matrix
[OGL LOG] sort_host_mtx_sparsity_pattern : 21 ms
[OGL LOG] sort_host_mtx : 12 ms
[OGL LOG] init_preconditioner : 13 ms
[OGL LOG] solve : 4 ms
BJcudaGKOBiCGStab:  Solving for Uz, Initial residual = 0, Final residual = 0, No Iterations 0
[OGL LOG] init_host_sparsity_pattern : 33 ms
[OGL LOG] matrix not stored update host matrix
[OGL LOG] update_host_mtx : 16 ms
[OGL LOG] matrix is not yet sorted, sorting host matrix
[OGL LOG] sort_host_mtx_sparsity_pattern : 25 ms
[OGL LOG] sort_host_mtx : 12 ms
[OGL LOG] init_preconditioner : 13 ms
[OGL LOG] solve : 126 ms
BJcudaGKOBiCGStab:  Solving for p, Initial residual = 1, Final residual = 6.91612e-07, No Iterations 335
time step continuity errors : sum local = 2.05009e-09, global = -3.27512e-21, cumulative = -3.27512e-21
[OGL LOG] init_preconditioner : 0 ms
[OGL LOG] solve : 116 ms
BJcudaGKOBiCGStab:  Solving for p, Initial residual = 0.721579, Final residual = 2.39015e-07, No Iterations 314
time step continuity errors : sum local = 1.02359e-09, global = -2.09715e-20, cumulative = -2.42466e-20
ExecutionTime = 3.16 s  ClockTime = 3 s

Time = 0.004

Courant Number mean: 0.0720722 max: 0.726639
[OGL LOG] init_host_sparsity_pattern : 33 ms
[OGL LOG] matrix not stored update host matrix
[OGL LOG] update_host_mtx : 16 ms
[OGL LOG] matrix is not yet sorted, sorting host matrix
[OGL LOG] sort_host_mtx_sparsity_pattern : 30 ms
[OGL LOG] sort_host_mtx : 14 ms
[OGL LOG] init_preconditioner : 0 ms
[OGL LOG] solve : 13 ms
BJcudaGKOBiCGStab:  Solving for Ux, Initial residual = 0.203464, Final residual = 8.90883e-07, No Iterations 30
[OGL LOG] init_host_sparsity_pattern : 33 ms
[OGL LOG] matrix not stored update host matrix
[OGL LOG] update_host_mtx : 15 ms
[OGL LOG] matrix is not yet sorted, sorting host matrix
[OGL LOG] sort_host_mtx_sparsity_pattern : 21 ms
[OGL LOG] sort_host_mtx : 12 ms
[OGL LOG] init_preconditioner : 0 ms
[OGL LOG] solve : 16 ms
BJcudaGKOBiCGStab:  Solving for Uy, Initial residual = 0.618432, Final residual = 5.64314e-07, No Iterations 41
[OGL LOG] init_host_sparsity_pattern : 33 ms
[OGL LOG] matrix not stored update host matrix
[OGL LOG] update_host_mtx : 15 ms
[OGL LOG] matrix is not yet sorted, sorting host matrix
[OGL LOG] sort_host_mtx_sparsity_pattern : 21 ms
[OGL LOG] sort_host_mtx : 12 ms
[OGL LOG] init_preconditioner : 0 ms
[OGL LOG] solve : 16 ms
BJcudaGKOBiCGStab:  Solving for Uz, Initial residual = 0.536218, Final residual = 9.95007e-07, No Iterations 39
[OGL LOG] init_preconditioner : 0 ms
[OGL LOG] solve : 116 ms
BJcudaGKOBiCGStab:  Solving for p, Initial residual = 0.673319, Final residual = 7.78879e-07, No Iterations 316
time step continuity errors : sum local = 3.21433e-09, global = -1.28799e-20, cumulative = -3.71265e-20
[OGL LOG] init_preconditioner : 0 ms
[OGL LOG] solve : 116 ms
BJcudaGKOBiCGStab:  Solving for p, Initial residual = 0.598888, Final residual = 8.65735e-07, No Iterations 313
time step continuity errors : sum local = 4.21408e-09, global = 1.42846e-20, cumulative = -2.28419e-20
ExecutionTime = 3.81 s  ClockTime = 4 s

Time = 0.006

Courant Number mean: 0.107408 max: 0.881754
[OGL LOG] init_host_sparsity_pattern : 33 ms
[OGL LOG] matrix not stored update host matrix
[OGL LOG] update_host_mtx : 16 ms
[OGL LOG] matrix is not yet sorted, sorting host matrix
[OGL LOG] sort_host_mtx_sparsity_pattern : 21 ms
[OGL LOG] sort_host_mtx : 12 ms
[OGL LOG] init_preconditioner : 0 ms
[OGL LOG] solve : 14 ms
BJcudaGKOBiCGStab:  Solving for Ux, Initial residual = 0.0995629, Final residual = 9.15778e-07, No Iterations 34
[OGL LOG] init_host_sparsity_pattern : 33 ms
[OGL LOG] matrix not stored update host matrix
[OGL LOG] update_host_mtx : 16 ms
[OGL LOG] matrix is not yet sorted, sorting host matrix
[OGL LOG] sort_host_mtx_sparsity_pattern : 21 ms
[OGL LOG] sort_host_mtx : 12 ms
[OGL LOG] init_preconditioner : 0 ms
[OGL LOG] solve : 13 ms
BJcudaGKOBiCGStab:  Solving for Uy, Initial residual = 0.249987, Final residual = 8.86433e-07, No Iterations 30
[OGL LOG] init_host_sparsity_pattern : 33 ms
[OGL LOG] matrix not stored update host matrix
[OGL LOG] update_host_mtx : 16 ms
[OGL LOG] matrix is not yet sorted, sorting host matrix
[OGL LOG] sort_host_mtx_sparsity_pattern : 21 ms
[OGL LOG] sort_host_mtx : 12 ms
[OGL LOG] init_preconditioner : 0 ms
[OGL LOG] solve : 16 ms
BJcudaGKOBiCGStab:  Solving for Uz, Initial residual = 0.540873, Final residual = 7.76916e-07, No Iterations 39
[OGL LOG] init_preconditioner : 0 ms
[OGL LOG] solve : 121 ms
BJcudaGKOBiCGStab:  Solving for p, Initial residual = 0.606888, Final residual = 8.55598e-07, No Iterations 324
time step continuity errors : sum local = 1.61762e-09, global = -2.38422e-20, cumulative = -4.66841e-20
[OGL LOG] init_preconditioner : 0 ms
[OGL LOG] solve : 110 ms
BJcudaGKOBiCGStab:  Solving for p, Initial residual = 0.560864, Final residual = 9.32815e-07, No Iterations 295
time step continuity errors : sum local = 2.83455e-09, global = 2.06789e-20, cumulative = -2.60052e-20
ExecutionTime = 4.44 s  ClockTime = 4 s

Time = 0.008

Courant Number mean: 0.123244 max: 0.890102
[OGL LOG] init_host_sparsity_pattern : 33 ms
[OGL LOG] matrix not stored update host matrix
[OGL LOG] update_host_mtx : 16 ms
[OGL LOG] matrix is not yet sorted, sorting host matrix
[OGL LOG] sort_host_mtx_sparsity_pattern : 21 ms
[OGL LOG] sort_host_mtx : 12 ms
[OGL LOG] init_preconditioner : 0 ms
[OGL LOG] solve : 14 ms
BJcudaGKOBiCGStab:  Solving for Ux, Initial residual = 0.0341405, Final residual = 9.03794e-07, No Iterations 30
[OGL LOG] init_host_sparsity_pattern : 33 ms
[OGL LOG] matrix not stored update host matrix
[OGL LOG] update_host_mtx : 15 ms
[OGL LOG] matrix is not yet sorted, sorting host matrix
[OGL LOG] sort_host_mtx_sparsity_pattern : 21 ms
[OGL LOG] sort_host_mtx : 12 ms
[OGL LOG] init_preconditioner : 0 ms
[OGL LOG] solve : 15 ms
BJcudaGKOBiCGStab:  Solving for Uy, Initial residual = 0.132382, Final residual = 9.63124e-07, No Iterations 35
[OGL LOG] init_host_sparsity_pattern : 33 ms
[OGL LOG] matrix not stored update host matrix
[OGL LOG] update_host_mtx : 15 ms
[OGL LOG] matrix is not yet sorted, sorting host matrix
[OGL LOG] sort_host_mtx_sparsity_pattern : 21 ms
[OGL LOG] sort_host_mtx : 12 ms
[OGL LOG] init_preconditioner : 0 ms
[OGL LOG] solve : 16 ms
BJcudaGKOBiCGStab:  Solving for Uz, Initial residual = 0.471901, Final residual = 8.37167e-07, No Iterations 39
[OGL LOG] init_preconditioner : 0 ms
[OGL LOG] solve : 77 ms
BJcudaGKOBiCGStab:  Solving for p, Initial residual = 0.423034, Final residual = 9.60554e-07, No Iterations 206
time step continuity errors : sum local = 1.83695e-09, global = -1.68055e-20, cumulative = -4.28107e-20
[OGL LOG] init_preconditioner : 0 ms
[OGL LOG] solve : 124 ms
BJcudaGKOBiCGStab:  Solving for p, Initial residual = 0.368375, Final residual = 5.33704e-07, No Iterations 334
time step continuity errors : sum local = 8.5495e-10, global = 2.70475e-20, cumulative = -1.57632e-20
ExecutionTime = 5.04 s  ClockTime = 5 s

Time = 0.01

Courant Number mean: 0.136096 max: 0.906942
[OGL LOG] init_host_sparsity_pattern : 33 ms
[OGL LOG] matrix not stored update host matrix
[OGL LOG] update_host_mtx : 16 ms
[OGL LOG] matrix is not yet sorted, sorting host matrix
[OGL LOG] sort_host_mtx_sparsity_pattern : 21 ms
[OGL LOG] sort_host_mtx : 12 ms
[OGL LOG] init_preconditioner : 0 ms
[OGL LOG] solve : 14 ms
BJcudaGKOBiCGStab:  Solving for Ux, Initial residual = 0.0230737, Final residual = 8.47127e-07, No Iterations 29
[OGL LOG] init_host_sparsity_pattern : 33 ms
[OGL LOG] matrix not stored update host matrix
[OGL LOG] update_host_mtx : 16 ms
[OGL LOG] matrix is not yet sorted, sorting host matrix
[OGL LOG] sort_host_mtx_sparsity_pattern : 21 ms
[OGL LOG] sort_host_mtx : 12 ms
[OGL LOG] init_preconditioner : 0 ms
[OGL LOG] solve : 13 ms
BJcudaGKOBiCGStab:  Solving for Uy, Initial residual = 0.0484104, Final residual = 9.83093e-07, No Iterations 31
[OGL LOG] init_host_sparsity_pattern : 33 ms
[OGL LOG] matrix not stored update host matrix
[OGL LOG] update_host_mtx : 15 ms
[OGL LOG] matrix is not yet sorted, sorting host matrix
[OGL LOG] sort_host_mtx_sparsity_pattern : 21 ms
[OGL LOG] sort_host_mtx : 16 ms
[OGL LOG] init_preconditioner : 0 ms
[OGL LOG] solve : 15 ms
BJcudaGKOBiCGStab:  Solving for Uz, Initial residual = 0.159068, Final residual = 9.0378e-07, No Iterations 34
[OGL LOG] init_preconditioner : 0 ms
[OGL LOG] solve : 115 ms
BJcudaGKOBiCGStab:  Solving for p, Initial residual = 0.361666, Final residual = 8.48821e-07, No Iterations 309
time step continuity errors : sum local = 1.17502e-09, global = -1.24482e-20, cumulative = -2.82114e-20
[OGL LOG] init_preconditioner : 0 ms
[OGL LOG] solve : 105 ms
BJcudaGKOBiCGStab:  Solving for p, Initial residual = 0.333161, Final residual = 7.51877e-07, No Iterations 275
time step continuity errors : sum local = 1.04103e-09, global = 4.80235e-21, cumulative = -2.34091e-20
ExecutionTime = 5.66 s  ClockTime = 6 s

End

