/*---------------------------------------------------------------------------*\
  =========                 |
  \\      /  F ield         | OpenFOAM: The Open Source CFD Toolbox
   \\    /   O peration     | Website:  https://openfoam.org
    \\  /    A nd           | Version:  8
     \\/     M anipulation  |
\*---------------------------------------------------------------------------*/
Build  : 8-13d66902f78c
Exec   : icoFoam
Date   : Jun 24 2021
Time   : 16:09:34
Host   : "uc2n478.localdomain"
PID    : 2832860
I/O    : uncollated
Case   : /pfs/data5/home/kit/scc/nq7776/code/OGL_DATA/lidDrivenCavity3D/v0.1-113-g8300f3e/f584ccac99/IntelXeonGold6230CPU@2.10GHz/Test_2021-06-24-15:31:59/50/p-BiCGStab-GKO-BJ-omp/lidDrivenCavity3D
nProcs : 1
sigFpe : Enabling floating point exception trapping (FOAM_SIGFPE).
fileModificationChecking : Monitoring run-time modified files using timeStampMaster (fileModificationSkew 10)
allowSystemOperations : Allowing user-supplied system call operations

// * * * * * * * * * * * * * * * * * * * * * * * * * * * * * * * * * * * * * //
Create time

Create mesh for time = 0

Reading transportProperties

Reading field p

Reading field U

Reading/calculating face flux field phi


Starting time loop

Time = 0.002

Courant Number mean: 0 max: 0
nonePBiCGStab:  Solving for Ux, Initial residual = 1, Final residual = 0.0592055, No Iterations 5
nonePBiCGStab:  Solving for Uy, Initial residual = 0, Final residual = 0, No Iterations 0
nonePBiCGStab:  Solving for Uz, Initial residual = 0, Final residual = 0, No Iterations 0
Gingko init_host_sparsity_pattern : 35 ms
 matrix not stored update host matrix 
Gingko update_host_mtx : 18 ms
matrix is not yet sorted, compute sorting idxs 
 compute sorting idxs 860000
Gingko compute_sort : 999 ms
matrix is not yet sorted,  sorting host matrix 
Gingko sort_host_mtx_sparsity_pattern : 24 ms
Gingko sort_host_mtx : 15 ms
Gingko init_preconditioner : 10 ms
Gingko solve : 2051 ms
 copy back
 get iters 
BJompGKOBiCGStab:  Solving for p, Initial residual = 0, Final residual = 9.53558e-07, No Iterations 281
time step continuity errors : sum local = 2.92948e-09, global = -7.52993e-21, cumulative = -7.52993e-21
 found preconditioner 
Gingko init_preconditioner : 0 ms
Gingko solve : 1959 ms
 copy back
 get iters 
BJompGKOBiCGStab:  Solving for p, Initial residual = 1, Final residual = 9.28234e-07, No Iterations 269
time step continuity errors : sum local = 1.05291e-08, global = 2.10194e-20, cumulative = 1.34895e-20
ExecutionTime = 17.81 s  ClockTime = 6 s

Time = 0.004

Courant Number mean: 0.0636233 max: 0.723792
nonePBiCGStab:  Solving for Ux, Initial residual = 0.144135, Final residual = 0.02192, No Iterations 5
nonePBiCGStab:  Solving for Uy, Initial residual = 0.363931, Final residual = 0.052282, No Iterations 5
nonePBiCGStab:  Solving for Uz, Initial residual = 0.97361, Final residual = 0.15892, No Iterations 5
 found preconditioner 
Gingko init_preconditioner : 0 ms
Gingko solve : 1993 ms
 copy back
 get iters 
BJompGKOBiCGStab:  Solving for p, Initial residual = 0.676727, Final residual = 9.12452e-07, No Iterations 273
time step continuity errors : sum local = 8.96621e-09, global = 3.13804e-20, cumulative = 4.48699e-20
 found preconditioner 
Gingko init_preconditioner : 0 ms
Gingko solve : 1826 ms
 copy back
 get iters 
BJompGKOBiCGStab:  Solving for p, Initial residual = 0.668513, Final residual = 8.79247e-07, No Iterations 253
time step continuity errors : sum local = 2.61741e-08, global = 6.19943e-21, cumulative = 5.10694e-20
ExecutionTime = 33.23 s  ClockTime = 10 s

Time = 0.006

Courant Number mean: 0.0972275 max: 0.862514
nonePBiCGStab:  Solving for Ux, Initial residual = 0.0524144, Final residual = 0.00685461, No Iterations 5
nonePBiCGStab:  Solving for Uy, Initial residual = 0.12706, Final residual = 0.0201207, No Iterations 5
nonePBiCGStab:  Solving for Uz, Initial residual = 0.366435, Final residual = 0.0530134, No Iterations 5
 found preconditioner 
Gingko init_preconditioner : 0 ms
Gingko solve : 2004 ms
 copy back
 get iters 
BJompGKOBiCGStab:  Solving for p, Initial residual = 0.584669, Final residual = 8.0777e-07, No Iterations 278
time step continuity errors : sum local = 2.66996e-09, global = -2.65218e-20, cumulative = 2.45476e-20
 found preconditioner 
Gingko init_preconditioner : 0 ms
Gingko solve : 1924 ms
 copy back
 get iters 
BJompGKOBiCGStab:  Solving for p, Initial residual = 0.594547, Final residual = 8.99246e-07, No Iterations 269
time step continuity errors : sum local = 1.07058e-08, global = -7.32889e-21, cumulative = 1.72187e-20
ExecutionTime = 49.06 s  ClockTime = 14 s

Time = 0.008

Courant Number mean: 0.113794 max: 0.88248
nonePBiCGStab:  Solving for Ux, Initial residual = 0.0289572, Final residual = 0.00344494, No Iterations 5
nonePBiCGStab:  Solving for Uy, Initial residual = 0.0844245, Final residual = 0.0109194, No Iterations 5
nonePBiCGStab:  Solving for Uz, Initial residual = 0.22919, Final residual = 0.0297644, No Iterations 5
 found preconditioner 
Gingko init_preconditioner : 0 ms
Gingko solve : 1898 ms
 copy back
 get iters 
BJompGKOBiCGStab:  Solving for p, Initial residual = 0.52871, Final residual = 8.52072e-07, No Iterations 263
time step continuity errors : sum local = 1.42384e-09, global = -5.14305e-21, cumulative = 1.20756e-20
 found preconditioner 
Gingko init_preconditioner : 0 ms
Gingko solve : 1931 ms
 copy back
 get iters 
BJompGKOBiCGStab:  Solving for p, Initial residual = 0.411426, Final residual = 7.90671e-07, No Iterations 270
time step continuity errors : sum local = 3.23142e-09, global = 3.64263e-20, cumulative = 4.85019e-20
ExecutionTime = 64.49 s  ClockTime = 18 s

Time = 0.01

Courant Number mean: 0.127339 max: 0.898877
nonePBiCGStab:  Solving for Ux, Initial residual = 0.0202778, Final residual = 0.0020849, No Iterations 5
nonePBiCGStab:  Solving for Uy, Initial residual = 0.0505572, Final residual = 0.00623588, No Iterations 5
nonePBiCGStab:  Solving for Uz, Initial residual = 0.11289, Final residual = 0.0180678, No Iterations 5
 found preconditioner 
Gingko init_preconditioner : 0 ms
Gingko solve : 1845 ms
 copy back
 get iters 
BJompGKOBiCGStab:  Solving for p, Initial residual = 0.342684, Final residual = 9.56877e-07, No Iterations 254
time step continuity errors : sum local = 2.69919e-09, global = -3.00285e-21, cumulative = 4.5499e-20
 found preconditioner 
Gingko init_preconditioner : 0 ms
Gingko solve : 1820 ms
 copy back
 get iters 
BJompGKOBiCGStab:  Solving for p, Initial residual = 0.354038, Final residual = 8.3105e-07, No Iterations 254
time step continuity errors : sum local = 2.30239e-09, global = -1.53201e-20, cumulative = 3.01789e-20
ExecutionTime = 79.28 s  ClockTime = 22 s

End

