/*---------------------------------------------------------------------------*\
  =========                 |
  \\      /  F ield         | OpenFOAM: The Open Source CFD Toolbox
   \\    /   O peration     | Website:  https://openfoam.org
    \\  /    A nd           | Version:  8
     \\/     M anipulation  |
\*---------------------------------------------------------------------------*/
Build  : 8-ef60d22ea792
Exec   : icoFoam
Date   : Sep 11 2021
Time   : 14:33:42
Host   : "uc2n513.localdomain"
PID    : 228659
I/O    : uncollated
Case   : /pfs/data5/home/kit/scc/nq7776/data/code/OBR/lidDrivenCavity3D/Variation_init/100/Variation_mesh/85/Variation_matrix_solver/IR_NoPrecond_CUDA/1631363599
nProcs : 1
sigFpe : Enabling floating point exception trapping (FOAM_SIGFPE).
fileModificationChecking : Monitoring run-time modified files using timeStampMaster (fileModificationSkew 10)
allowSystemOperations : Allowing user-supplied system call operations

// * * * * * * * * * * * * * * * * * * * * * * * * * * * * * * * * * * * * * //
Create time

Create mesh for time = 0

Reading transportProperties

Reading field p

Reading field U

Reading/calculating face flux field phi


Starting time loop

Time = 0.00117647

Courant Number mean: 0.19128 max: 0.963498
DILUPBiCGStab:  Solving for Ux, Initial residual = 0.0801002, Final residual = 3.10838e-05, No Iterations 5
DILUPBiCGStab:  Solving for Uy, Initial residual = 0.15471, Final residual = 7.99938e-05, No Iterations 5
DILUPBiCGStab:  Solving for Uz, Initial residual = 0.204787, Final residual = 0.000190775, No Iterations 5
linear solve U 653931
[OGL LOG] init_host_sparsity_pattern : 173 ms
[OGL LOG] matrix not stored update host matrix
[OGL LOG] update_host_mtx : 90 ms
[OGL LOG] matrix is not yet sorted, compute sorting idxs
[OGL LOG] compute_sort : 5456 ms
[OGL LOG] matrix is not yet sorted, sorting host matrix
[OGL LOG] sort_host_mtx_sparsity_pattern : 116 ms
[OGL LOG] sort_host_mtx : 71 ms
[OGL LOG] init_preconditioner : 0 ms
[OGL LOG] solve : 323 ms
nonecudaGKOIR:  Solving for p, Initial residual = 0.639229, Final residual = 2.80461e-08, No Iterations 4
linear solve p 7018331
time step continuity errors : sum local = 2.23447e-11, global = 3.12168e-20, cumulative = 3.12168e-20
[OGL LOG] init_preconditioner : 0 ms
[OGL LOG] solve : 334 ms
nonecudaGKOIR:  Solving for p, Initial residual = 0.354968, Final residual = 1.61207e-08, No Iterations 4
linear solve p 354231
time step continuity errors : sum local = 1.143e-11, global = -2.27198e-20, cumulative = 8.49699e-21
ExecutionTime = 11.23 s  ClockTime = 11 s

Time = 0.00235294

Courant Number mean: 0.191423 max: 0.964029
DILUPBiCGStab:  Solving for Ux, Initial residual = 0.00592858, Final residual = 2.11088e-05, No Iterations 5
DILUPBiCGStab:  Solving for Uy, Initial residual = 0.013936, Final residual = 6.02582e-05, No Iterations 5
DILUPBiCGStab:  Solving for Uz, Initial residual = 0.0246997, Final residual = 0.000175786, No Iterations 5
linear solve U 611592
[OGL LOG] init_preconditioner : 0 ms
[OGL LOG] solve : 467 ms
nonecudaGKOIR:  Solving for p, Initial residual = 0.425045, Final residual = 1.21253e-08, No Iterations 4
linear solve p 487030
time step continuity errors : sum local = 8.1375e-08, global = -9.81987e-21, cumulative = -1.32288e-21
[OGL LOG] init_preconditioner : 0 ms
[OGL LOG] solve : 303 ms
nonecudaGKOIR:  Solving for p, Initial residual = 0.285915, Final residual = 8.51919e-07, No Iterations 3
linear solve p 322557
time step continuity errors : sum local = 7.03686e-08, global = 2.93787e-21, cumulative = 1.615e-21
ExecutionTime = 13.01 s  ClockTime = 13 s

Time = 0.00352941

Courant Number mean: 0.19141 max: 0.963513
DILUPBiCGStab:  Solving for Ux, Initial residual = 0.00217468, Final residual = 1.17806e-05, No Iterations 5
DILUPBiCGStab:  Solving for Uy, Initial residual = 0.00584957, Final residual = 3.04239e-05, No Iterations 5
DILUPBiCGStab:  Solving for Uz, Initial residual = 0.0146171, Final residual = 0.000111303, No Iterations 5
linear solve U 593645
[OGL LOG] init_preconditioner : 0 ms
[OGL LOG] solve : 297 ms
nonecudaGKOIR:  Solving for p, Initial residual = 0.285944, Final residual = 7.1894e-07, No Iterations 3
linear solve p 316617
time step continuity errors : sum local = 6.72844e-08, global = 2.37172e-20, cumulative = 2.53322e-20
[OGL LOG] init_preconditioner : 0 ms
[OGL LOG] solve : 296 ms
nonecudaGKOIR:  Solving for p, Initial residual = 0.198173, Final residual = 5.11666e-07, No Iterations 3
linear solve p 318058
time step continuity errors : sum local = 6.84061e-08, global = 9.25434e-21, cumulative = 3.45865e-20
ExecutionTime = 14.61 s  ClockTime = 15 s

Time = 0.00470588

Courant Number mean: 0.191413 max: 0.963513
DILUPBiCGStab:  Solving for Ux, Initial residual = 0.00132462, Final residual = 4.81629e-06, No Iterations 5
DILUPBiCGStab:  Solving for Uy, Initial residual = 0.00353106, Final residual = 1.66502e-05, No Iterations 5
DILUPBiCGStab:  Solving for Uz, Initial residual = 0.00929554, Final residual = 6.98337e-05, No Iterations 5
linear solve U 594124
[OGL LOG] init_preconditioner : 0 ms
[OGL LOG] solve : 280 ms
nonecudaGKOIR:  Solving for p, Initial residual = 0.211306, Final residual = 5.42993e-07, No Iterations 3
linear solve p 299604
time step continuity errors : sum local = 7.06505e-08, global = 3.38775e-20, cumulative = 6.8464e-20
[OGL LOG] init_preconditioner : 0 ms
[OGL LOG] solve : 289 ms
nonecudaGKOIR:  Solving for p, Initial residual = 0.153086, Final residual = 4.0787e-07, No Iterations 3
linear solve p 308536
time step continuity errors : sum local = 6.92204e-08, global = 8.16164e-21, cumulative = 7.66257e-20
ExecutionTime = 16.18 s  ClockTime = 16 s

Time = 0.00588235

Courant Number mean: 0.191429 max: 0.963457
DILUPBiCGStab:  Solving for Ux, Initial residual = 0.000869887, Final residual = 3.81752e-06, No Iterations 5
DILUPBiCGStab:  Solving for Uy, Initial residual = 0.00226521, Final residual = 9.95741e-06, No Iterations 5
DILUPBiCGStab:  Solving for Uz, Initial residual = 0.00700672, Final residual = 5.76699e-05, No Iterations 5
linear solve U 594250
[OGL LOG] init_preconditioner : 0 ms
[OGL LOG] solve : 282 ms
nonecudaGKOIR:  Solving for p, Initial residual = 0.153486, Final residual = 3.71504e-07, No Iterations 3
linear solve p 301718
time step continuity errors : sum local = 6.85167e-08, global = -1.51228e-20, cumulative = 6.15029e-20
[OGL LOG] init_preconditioner : 0 ms
[OGL LOG] solve : 275 ms
nonecudaGKOIR:  Solving for p, Initial residual = 0.114966, Final residual = 2.70585e-07, No Iterations 3
linear solve p 295113
time step continuity errors : sum local = 6.87429e-08, global = -2.3186e-21, cumulative = 5.91843e-20
ExecutionTime = 17.76 s  ClockTime = 18 s

Time = 0.00705882

Courant Number mean: 0.191444 max: 0.963475
DILUPBiCGStab:  Solving for Ux, Initial residual = 0.000604729, Final residual = 2.21961e-06, No Iterations 5
DILUPBiCGStab:  Solving for Uy, Initial residual = 0.00154534, Final residual = 6.55491e-06, No Iterations 5
DILUPBiCGStab:  Solving for Uz, Initial residual = 0.00501421, Final residual = 3.4961e-05, No Iterations 5
linear solve U 598342
[OGL LOG] init_preconditioner : 0 ms
[OGL LOG] solve : 289 ms
nonecudaGKOIR:  Solving for p, Initial residual = 0.118902, Final residual = 2.65199e-07, No Iterations 3
linear solve p 308524
time step continuity errors : sum local = 6.94039e-08, global = 1.43743e-20, cumulative = 7.35586e-20
[OGL LOG] init_preconditioner : 0 ms
[OGL LOG] solve : 285 ms
nonecudaGKOIR:  Solving for p, Initial residual = 0.0918087, Final residual = 2.19539e-07, No Iterations 3
linear solve p 304347
time step continuity errors : sum local = 6.89861e-08, global = 3.52951e-20, cumulative = 1.08854e-19
ExecutionTime = 19.33 s  ClockTime = 19 s

Time = 0.00823529

Courant Number mean: 0.191456 max: 0.963473
DILUPBiCGStab:  Solving for Ux, Initial residual = 0.000439943, Final residual = 1.83313e-06, No Iterations 5
DILUPBiCGStab:  Solving for Uy, Initial residual = 0.00110334, Final residual = 5.58223e-06, No Iterations 5
DILUPBiCGStab:  Solving for Uz, Initial residual = 0.00387039, Final residual = 3.00093e-05, No Iterations 5
linear solve U 598613
[OGL LOG] init_preconditioner : 0 ms
[OGL LOG] solve : 282 ms
nonecudaGKOIR:  Solving for p, Initial residual = 0.0929489, Final residual = 2.04109e-07, No Iterations 3
linear solve p 301452
time step continuity errors : sum local = 6.87218e-08, global = 2.82348e-20, cumulative = 1.37088e-19
[OGL LOG] init_preconditioner : 0 ms
[OGL LOG] solve : 286 ms
nonecudaGKOIR:  Solving for p, Initial residual = 0.0731311, Final residual = 1.54417e-07, No Iterations 3
linear solve p 305427
time step continuity errors : sum local = 6.88235e-08, global = -9.77469e-21, cumulative = 1.27314e-19
ExecutionTime = 20.9 s  ClockTime = 21 s

Time = 0.00941176

Courant Number mean: 0.191468 max: 0.963471
DILUPBiCGStab:  Solving for Ux, Initial residual = 0.000332015, Final residual = 1.53127e-06, No Iterations 5
DILUPBiCGStab:  Solving for Uy, Initial residual = 0.000829566, Final residual = 3.74381e-06, No Iterations 5
DILUPBiCGStab:  Solving for Uz, Initial residual = 0.00286464, Final residual = 1.89018e-05, No Iterations 5
linear solve U 591752
[OGL LOG] init_preconditioner : 0 ms
[OGL LOG] solve : 268 ms
nonecudaGKOIR:  Solving for p, Initial residual = 0.0748803, Final residual = 1.56842e-07, No Iterations 3
linear solve p 288099
time step continuity errors : sum local = 6.91033e-08, global = 1.99884e-20, cumulative = 1.47302e-19
[OGL LOG] init_preconditioner : 0 ms
[OGL LOG] solve : 270 ms
nonecudaGKOIR:  Solving for p, Initial residual = 0.0597827, Final residual = 1.22393e-07, No Iterations 3
linear solve p 291134
time step continuity errors : sum local = 6.89141e-08, global = 2.73647e-20, cumulative = 1.74667e-19
ExecutionTime = 22.45 s  ClockTime = 23 s

Time = 0.0105882

Courant Number mean: 0.191478 max: 0.963481
DILUPBiCGStab:  Solving for Ux, Initial residual = 0.000259252, Final residual = 1.16403e-06, No Iterations 5
DILUPBiCGStab:  Solving for Uy, Initial residual = 0.000639549, Final residual = 4.08509e-06, No Iterations 5
DILUPBiCGStab:  Solving for Uz, Initial residual = 0.00223419, Final residual = 1.60539e-05, No Iterations 5
linear solve U 597039
[OGL LOG] init_preconditioner : 0 ms
[OGL LOG] solve : 253 ms
nonecudaGKOIR:  Solving for p, Initial residual = 0.0608183, Final residual = 1.15746e-07, No Iterations 3
linear solve p 273330
time step continuity errors : sum local = 6.87973e-08, global = 1.20571e-20, cumulative = 1.86724e-19
[OGL LOG] init_preconditioner : 0 ms
[OGL LOG] solve : 270 ms
nonecudaGKOIR:  Solving for p, Initial residual = 0.0489468, Final residual = 9.87909e-08, No Iterations 3
linear solve p 289370
time step continuity errors : sum local = 6.88496e-08, global = 3.97816e-21, cumulative = 1.90702e-19
ExecutionTime = 23.97 s  ClockTime = 24 s

Time = 0.0117647

Courant Number mean: 0.191488 max: 0.963475
DILUPBiCGStab:  Solving for Ux, Initial residual = 0.000206816, Final residual = 1.13226e-06, No Iterations 5
DILUPBiCGStab:  Solving for Uy, Initial residual = 0.000508406, Final residual = 2.72686e-06, No Iterations 5
DILUPBiCGStab:  Solving for Uz, Initial residual = 0.00169823, Final residual = 1.11424e-05, No Iterations 5
linear solve U 598798
[OGL LOG] init_preconditioner : 0 ms
[OGL LOG] solve : 281 ms
nonecudaGKOIR:  Solving for p, Initial residual = 0.0500159, Final residual = 9.01518e-08, No Iterations 3
linear solve p 300117
time step continuity errors : sum local = 6.89814e-08, global = 1.32638e-20, cumulative = 2.03966e-19
[OGL LOG] init_preconditioner : 0 ms
[OGL LOG] solve : 266 ms
nonecudaGKOIR:  Solving for p, Initial residual = 0.0405372, Final residual = 7.69625e-08, No Iterations 3
linear solve p 285645
time step continuity errors : sum local = 6.88877e-08, global = 2.35004e-21, cumulative = 2.06316e-19
ExecutionTime = 25.51 s  ClockTime = 26 s

End

