/*---------------------------------------------------------------------------*\
  =========                 |
  \\      /  F ield         | OpenFOAM: The Open Source CFD Toolbox
   \\    /   O peration     | Website:  https://openfoam.org
    \\  /    A nd           | Version:  8
     \\/     M anipulation  |
\*---------------------------------------------------------------------------*/
Build  : 8-ef60d22ea792
Exec   : icoFoam
Date   : Sep 11 2021
Time   : 14:41:54
Host   : "uc2n513.localdomain"
PID    : 232899
I/O    : uncollated
Case   : /pfs/data5/home/kit/scc/nq7776/data/code/OBR/lidDrivenCavity3D/Variation_init/100/Variation_mesh/60/Variation_matrix_solver/BiCGStab_ILU_CUDA/1631364103
nProcs : 1
sigFpe : Enabling floating point exception trapping (FOAM_SIGFPE).
fileModificationChecking : Monitoring run-time modified files using timeStampMaster (fileModificationSkew 10)
allowSystemOperations : Allowing user-supplied system call operations

// * * * * * * * * * * * * * * * * * * * * * * * * * * * * * * * * * * * * * //
Create time

Create mesh for time = 0

Reading transportProperties

Reading field p

Reading field U

Reading/calculating face flux field phi


Starting time loop

Time = 0.00166667

Courant Number mean: 0.191334 max: 0.95794
DILUPBiCGStab:  Solving for Ux, Initial residual = 0.0784069, Final residual = 7.98028e-06, No Iterations 5
DILUPBiCGStab:  Solving for Uy, Initial residual = 0.151717, Final residual = 1.9553e-05, No Iterations 5
DILUPBiCGStab:  Solving for Uz, Initial residual = 0.170934, Final residual = 5.87202e-05, No Iterations 5
linear solve U 210965
[OGL LOG] init_host_sparsity_pattern : 61 ms
[OGL LOG] matrix not stored update host matrix
[OGL LOG] update_host_mtx : 32 ms
[OGL LOG] matrix is not yet sorted, compute sorting idxs
[OGL LOG] compute_sort : 1760 ms
[OGL LOG] matrix is not yet sorted, sorting host matrix
[OGL LOG] sort_host_mtx_sparsity_pattern : 41 ms
[OGL LOG] sort_host_mtx : 22 ms
[OGL LOG] init_preconditioner : 61 ms
[OGL LOG] solve : 422 ms
ILUcudaGKOBiCGStab:  Solving for p, Initial residual = 0.575692, Final residual = 9.65457e-07, No Iterations 104
linear solve p 3146587
time step continuity errors : sum local = 1.02381e-06, global = 2.28261e-20, cumulative = 2.28261e-20
[OGL LOG] init_preconditioner : 0 ms
[OGL LOG] solve : 447 ms
ILUcudaGKOBiCGStab:  Solving for p, Initial residual = 0.296039, Final residual = 2.60013e-07, No Iterations 111
linear solve p 453746
time step continuity errors : sum local = 2.1157e-10, global = 1.09128e-20, cumulative = 3.3739e-20
ExecutionTime = 4.89 s  ClockTime = 5 s

Time = 0.00333333

Courant Number mean: 0.191279 max: 0.948742
DILUPBiCGStab:  Solving for Ux, Initial residual = 0.0051896, Final residual = 4.53418e-06, No Iterations 5
DILUPBiCGStab:  Solving for Uy, Initial residual = 0.0106552, Final residual = 7.73792e-06, No Iterations 5
DILUPBiCGStab:  Solving for Uz, Initial residual = 0.016614, Final residual = 7.24184e-05, No Iterations 5
linear solve U 198070
[OGL LOG] init_preconditioner : 0 ms
[OGL LOG] solve : 407 ms
ILUcudaGKOBiCGStab:  Solving for p, Initial residual = 0.147451, Final residual = 1.76902e-07, No Iterations 101
linear solve p 413962
time step continuity errors : sum local = 3.00188e-07, global = 5.33928e-21, cumulative = 3.90782e-20
[OGL LOG] init_preconditioner : 0 ms
[OGL LOG] solve : 430 ms
ILUcudaGKOBiCGStab:  Solving for p, Initial residual = 0.0807461, Final residual = 7.36627e-07, No Iterations 107
linear solve p 437146
time step continuity errors : sum local = 2.89379e-07, global = 3.38618e-21, cumulative = 4.24644e-20
ExecutionTime = 6.06 s  ClockTime = 6 s

Time = 0.005

Courant Number mean: 0.191277 max: 0.948279
DILUPBiCGStab:  Solving for Ux, Initial residual = 0.000612522, Final residual = 1.83994e-06, No Iterations 5
DILUPBiCGStab:  Solving for Uy, Initial residual = 0.00141339, Final residual = 3.73091e-06, No Iterations 5
DILUPBiCGStab:  Solving for Uz, Initial residual = 0.00495697, Final residual = 1.92723e-05, No Iterations 5
linear solve U 191497
[OGL LOG] init_preconditioner : 0 ms
[OGL LOG] solve : 399 ms
ILUcudaGKOBiCGStab:  Solving for p, Initial residual = 0.0596245, Final residual = 9.17802e-07, No Iterations 99
linear solve p 405485
time step continuity errors : sum local = 2.86704e-07, global = -1.7244e-20, cumulative = 2.52204e-20
[OGL LOG] init_preconditioner : 0 ms
[OGL LOG] solve : 445 ms
ILUcudaGKOBiCGStab:  Solving for p, Initial residual = 0.042467, Final residual = 7.59371e-07, No Iterations 110
linear solve p 451997
time step continuity errors : sum local = 7.02199e-07, global = -1.9479e-20, cumulative = 5.74139e-21
ExecutionTime = 7.22 s  ClockTime = 7 s

Time = 0.00666667

Courant Number mean: 0.191272 max: 0.94831
DILUPBiCGStab:  Solving for Ux, Initial residual = 0.00027696, Final residual = 8.23847e-07, No Iterations 5
DILUPBiCGStab:  Solving for Uy, Initial residual = 0.000724445, Final residual = 1.54221e-06, No Iterations 5
DILUPBiCGStab:  Solving for Uz, Initial residual = 0.00365705, Final residual = 1.51426e-05, No Iterations 5
linear solve U 198176
[OGL LOG] init_preconditioner : 0 ms
[OGL LOG] solve : 414 ms
ILUcudaGKOBiCGStab:  Solving for p, Initial residual = 0.0405979, Final residual = 6.99747e-07, No Iterations 103
linear solve p 421306
time step continuity errors : sum local = 2.88319e-07, global = 6.51396e-20, cumulative = 7.0881e-20
[OGL LOG] init_preconditioner : 0 ms
[OGL LOG] solve : 403 ms
ILUcudaGKOBiCGStab:  Solving for p, Initial residual = 0.0302961, Final residual = 1.65012e-07, No Iterations 100
linear solve p 409721
time step continuity errors : sum local = 2.87851e-07, global = -1.76886e-20, cumulative = 5.31924e-20
ExecutionTime = 8.38 s  ClockTime = 8 s

Time = 0.00833333

Courant Number mean: 0.191272 max: 0.948269
DILUPBiCGStab:  Solving for Ux, Initial residual = 0.000164855, Final residual = 5.33649e-07, No Iterations 5
DILUPBiCGStab:  Solving for Uy, Initial residual = 0.000457361, Final residual = 1.08162e-06, No Iterations 5
DILUPBiCGStab:  Solving for Uz, Initial residual = 0.00269555, Final residual = 8.23986e-06, No Iterations 5
linear solve U 192147
[OGL LOG] init_preconditioner : 0 ms
[OGL LOG] solve : 382 ms
ILUcudaGKOBiCGStab:  Solving for p, Initial residual = 0.0280296, Final residual = 9.87071e-07, No Iterations 95
linear solve p 389023
time step continuity errors : sum local = 2.88135e-07, global = -4.00603e-20, cumulative = 1.31322e-20
[OGL LOG] init_preconditioner : 0 ms
[OGL LOG] solve : 423 ms
ILUcudaGKOBiCGStab:  Solving for p, Initial residual = 0.0213176, Final residual = 9.27631e-07, No Iterations 105
linear solve p 429825
time step continuity errors : sum local = 2.87964e-07, global = 3.4774e-20, cumulative = 4.79061e-20
ExecutionTime = 9.5 s  ClockTime = 9 s

Time = 0.01

Courant Number mean: 0.191274 max: 0.948301
DILUPBiCGStab:  Solving for Ux, Initial residual = 0.00011615, Final residual = 3.15848e-07, No Iterations 5
DILUPBiCGStab:  Solving for Uy, Initial residual = 0.000325684, Final residual = 6.94883e-07, No Iterations 5
DILUPBiCGStab:  Solving for Uz, Initial residual = 0.00185242, Final residual = 3.3137e-06, No Iterations 5
linear solve U 191580
[OGL LOG] init_preconditioner : 0 ms
[OGL LOG] solve : 390 ms
ILUcudaGKOBiCGStab:  Solving for p, Initial residual = 0.0201313, Final residual = 8.11854e-07, No Iterations 96
linear solve p 397491
time step continuity errors : sum local = 4.34445e-06, global = -5.19938e-20, cumulative = -4.08767e-21
[OGL LOG] init_preconditioner : 0 ms
[OGL LOG] solve : 346 ms
ILUcudaGKOBiCGStab:  Solving for p, Initial residual = 0.0205502, Final residual = 9.50156e-07, No Iterations 86
linear solve p 353119
time step continuity errors : sum local = 2.8845e-07, global = -1.18394e-20, cumulative = -1.5927e-20
ExecutionTime = 10.56 s  ClockTime = 10 s

Time = 0.0116667

Courant Number mean: 0.191275 max: 0.948278
DILUPBiCGStab:  Solving for Ux, Initial residual = 8.09986e-05, Final residual = 1.88435e-07, No Iterations 5
DILUPBiCGStab:  Solving for Uy, Initial residual = 0.000237263, Final residual = 4.75104e-07, No Iterations 5
DILUPBiCGStab:  Solving for Uz, Initial residual = 0.00776518, Final residual = 6.36733e-05, No Iterations 5
linear solve U 192612
[OGL LOG] init_preconditioner : 0 ms
[OGL LOG] solve : 407 ms
ILUcudaGKOBiCGStab:  Solving for p, Initial residual = 0.0351965, Final residual = 9.74671e-07, No Iterations 101
linear solve p 413751
time step continuity errors : sum local = 2.88035e-07, global = -7.872e-22, cumulative = -1.67142e-20
[OGL LOG] init_preconditioner : 0 ms
[OGL LOG] solve : 393 ms
ILUcudaGKOBiCGStab:  Solving for p, Initial residual = 0.029465, Final residual = 8.25029e-07, No Iterations 97
linear solve p 400818
time step continuity errors : sum local = 3.16613e-06, global = -2.541e-21, cumulative = -1.92552e-20
ExecutionTime = 11.7 s  ClockTime = 12 s

Time = 0.0133333

Courant Number mean: 0.191278 max: 0.948302
DILUPBiCGStab:  Solving for Ux, Initial residual = 7.04283e-05, Final residual = 2.06436e-07, No Iterations 5
DILUPBiCGStab:  Solving for Uy, Initial residual = 0.000212914, Final residual = 5.75334e-07, No Iterations 5
DILUPBiCGStab:  Solving for Uz, Initial residual = 0.012426, Final residual = 8.27999e-05, No Iterations 5
linear solve U 192633
[OGL LOG] init_preconditioner : 0 ms
[OGL LOG] solve : 453 ms
ILUcudaGKOBiCGStab:  Solving for p, Initial residual = 0.0421732, Final residual = 5.4662e-07, No Iterations 112
linear solve p 459556
time step continuity errors : sum local = 1.08768e-05, global = 7.80996e-22, cumulative = -1.84742e-20
[OGL LOG] init_preconditioner : 0 ms
[OGL LOG] solve : 400 ms
ILUcudaGKOBiCGStab:  Solving for p, Initial residual = 0.0390065, Final residual = 8.74629e-07, No Iterations 99
linear solve p 407262
time step continuity errors : sum local = 2.13524e-06, global = -8.25897e-21, cumulative = -2.67332e-20
ExecutionTime = 12.88 s  ClockTime = 13 s

Time = 0.015

Courant Number mean: 0.191281 max: 0.948279
DILUPBiCGStab:  Solving for Ux, Initial residual = 5.50496e-05, Final residual = 1.80825e-07, No Iterations 5
DILUPBiCGStab:  Solving for Uy, Initial residual = 0.000189606, Final residual = 8.37883e-07, No Iterations 5
DILUPBiCGStab:  Solving for Uz, Initial residual = 0.0293265, Final residual = 0.000237765, No Iterations 5
linear solve U 192181
[OGL LOG] init_preconditioner : 0 ms
[OGL LOG] solve : 454 ms
ILUcudaGKOBiCGStab:  Solving for p, Initial residual = 0.0925152, Final residual = 7.65023e-07, No Iterations 112
linear solve p 460697
time step continuity errors : sum local = 8.90166e-06, global = -8.74485e-20, cumulative = -1.14182e-19
[OGL LOG] init_preconditioner : 0 ms
[OGL LOG] solve : 444 ms
ILUcudaGKOBiCGStab:  Solving for p, Initial residual = 0.0726918, Final residual = 5.15875e-07, No Iterations 110
linear solve p 450782
time step continuity errors : sum local = 4.38794e-06, global = -1.86745e-21, cumulative = -1.16049e-19
ExecutionTime = 14.09 s  ClockTime = 14 s

Time = 0.0166667

Courant Number mean: 0.191285 max: 0.948311
DILUPBiCGStab:  Solving for Ux, Initial residual = 9.24635e-05, Final residual = 3.71851e-07, No Iterations 5
DILUPBiCGStab:  Solving for Uy, Initial residual = 0.000313532, Final residual = 1.54169e-06, No Iterations 5
DILUPBiCGStab:  Solving for Uz, Initial residual = 0.0478313, Final residual = 0.000325875, No Iterations 5
linear solve U 191679
[OGL LOG] init_preconditioner : 0 ms
[OGL LOG] solve : 445 ms
ILUcudaGKOBiCGStab:  Solving for p, Initial residual = 0.123685, Final residual = 3.43402e-07, No Iterations 110
linear solve p 452143
time step continuity errors : sum local = 1.57402e-05, global = -5.03029e-20, cumulative = -1.66352e-19
[OGL LOG] init_preconditioner : 0 ms
[OGL LOG] solve : 444 ms
ILUcudaGKOBiCGStab:  Solving for p, Initial residual = 0.0987588, Final residual = 4.86505e-08, No Iterations 110
linear solve p 451050
time step continuity errors : sum local = 9.62121e-06, global = 3.6576e-21, cumulative = -1.62694e-19
ExecutionTime = 15.32 s  ClockTime = 15 s

End

