/*---------------------------------------------------------------------------*\
  =========                 |
  \\      /  F ield         | OpenFOAM: The Open Source CFD Toolbox
   \\    /   O peration     | Website:  https://openfoam.org
    \\  /    A nd           | Version:  8
     \\/     M anipulation  |
\*---------------------------------------------------------------------------*/
Build  : 8-ef60d22ea792
Exec   : icoFoam
Date   : Sep 11 2021
Time   : 14:55:32
Host   : "uc2n442.localdomain"
PID    : 3724350
I/O    : uncollated
Case   : /pfs/data5/home/kit/scc/nq7776/data/code/OBR/lidDrivenCavity3D/Variation_init/100/Variation_mesh/55/Variation_matrix_solver/BiCGStab_NoPrecond_Serial/1631364924
nProcs : 1
sigFpe : Enabling floating point exception trapping (FOAM_SIGFPE).
fileModificationChecking : Monitoring run-time modified files using timeStampMaster (fileModificationSkew 10)
allowSystemOperations : Allowing user-supplied system call operations

// * * * * * * * * * * * * * * * * * * * * * * * * * * * * * * * * * * * * * //
Create time

Create mesh for time = 0

Reading transportProperties

Reading field p

Reading field U

Reading/calculating face flux field phi


Starting time loop

Time = 0.00181818

Courant Number mean: 0.191368 max: 0.957571
DILUPBiCGStab:  Solving for Ux, Initial residual = 0.060281, Final residual = 1.19981e-05, No Iterations 5
DILUPBiCGStab:  Solving for Uy, Initial residual = 0.121009, Final residual = 2.40294e-05, No Iterations 5
DILUPBiCGStab:  Solving for Uz, Initial residual = 0.150024, Final residual = 8.14301e-05, No Iterations 5
linear solve U 157361
nonePBiCGStab:  Solving for p, Initial residual = 0.606676, Final residual = 9.99049e-07, No Iterations 340
linear solve p 1349965
time step continuity errors : sum local = 2.98091e-09, global = -1.84197e-21, cumulative = -1.84197e-21
nonePBiCGStab:  Solving for p, Initial residual = 0.416238, Final residual = 9.32678e-07, No Iterations 352
linear solve p 1364697
time step continuity errors : sum local = 1.37607e-09, global = 2.97413e-20, cumulative = 2.78993e-20
ExecutionTime = 3.7 s  ClockTime = 3 s

Time = 0.00363636

Courant Number mean: 0.191352 max: 0.944825
DILUPBiCGStab:  Solving for Ux, Initial residual = 0.0067044, Final residual = 6.32424e-06, No Iterations 5
DILUPBiCGStab:  Solving for Uy, Initial residual = 0.0143962, Final residual = 1.49671e-05, No Iterations 5
DILUPBiCGStab:  Solving for Uz, Initial residual = 0.0279522, Final residual = 5.03017e-05, No Iterations 5
linear solve U 136515
nonePBiCGStab:  Solving for p, Initial residual = 0.305566, Final residual = 4.52231e-07, No Iterations 345
linear solve p 1347814
time step continuity errors : sum local = 9.66298e-10, global = -3.59059e-20, cumulative = -8.00652e-21
nonePBiCGStab:  Solving for p, Initial residual = 0.191042, Final residual = 9.63135e-07, No Iterations 351
linear solve p 1366628
time step continuity errors : sum local = 2.13867e-09, global = 2.93435e-20, cumulative = 2.1337e-20
ExecutionTime = 6.62 s  ClockTime = 6 s

Time = 0.00545455

Courant Number mean: 0.191294 max: 0.943842
DILUPBiCGStab:  Solving for Ux, Initial residual = 0.00199589, Final residual = 3.94819e-06, No Iterations 5
DILUPBiCGStab:  Solving for Uy, Initial residual = 0.00440359, Final residual = 8.35249e-06, No Iterations 5
DILUPBiCGStab:  Solving for Uz, Initial residual = 0.0117255, Final residual = 2.2636e-05, No Iterations 5
linear solve U 135739
nonePBiCGStab:  Solving for p, Initial residual = 0.167162, Final residual = 9.59169e-07, No Iterations 371
linear solve p 1457350
time step continuity errors : sum local = 1.95825e-09, global = -2.19344e-20, cumulative = -5.97431e-22
nonePBiCGStab:  Solving for p, Initial residual = 0.111665, Final residual = 8.80818e-07, No Iterations 371
linear solve p 1446326
time step continuity errors : sum local = 1.7747e-09, global = -3.75015e-20, cumulative = -3.80989e-20
ExecutionTime = 9.74 s  ClockTime = 9 s

Time = 0.00727273

Courant Number mean: 0.191239 max: 0.94364
DILUPBiCGStab:  Solving for Ux, Initial residual = 0.00100442, Final residual = 1.23887e-06, No Iterations 5
DILUPBiCGStab:  Solving for Uy, Initial residual = 0.00220716, Final residual = 2.52423e-06, No Iterations 5
DILUPBiCGStab:  Solving for Uz, Initial residual = 0.0055714, Final residual = 8.47843e-06, No Iterations 5
linear solve U 136369
nonePBiCGStab:  Solving for p, Initial residual = 0.0998682, Final residual = 5.43404e-07, No Iterations 325
linear solve p 1263941
time step continuity errors : sum local = 6.47747e-10, global = -5.50133e-21, cumulative = -4.36002e-20
nonePBiCGStab:  Solving for p, Initial residual = 0.06881, Final residual = 8.62394e-07, No Iterations 327
linear solve p 1265821
time step continuity errors : sum local = 1.65216e-09, global = -2.20889e-20, cumulative = -6.56892e-20
ExecutionTime = 12.48 s  ClockTime = 12 s

Time = 0.00909091

Courant Number mean: 0.191228 max: 0.943571
DILUPBiCGStab:  Solving for Ux, Initial residual = 0.000570617, Final residual = 8.11395e-07, No Iterations 5
DILUPBiCGStab:  Solving for Uy, Initial residual = 0.00123022, Final residual = 1.48872e-06, No Iterations 5
DILUPBiCGStab:  Solving for Uz, Initial residual = 0.00326035, Final residual = 6.67396e-06, No Iterations 5
linear solve U 136220
nonePBiCGStab:  Solving for p, Initial residual = 0.0620693, Final residual = 9.88859e-07, No Iterations 323
linear solve p 1262488
time step continuity errors : sum local = 1.16077e-09, global = 1.81066e-20, cumulative = -4.75826e-20
nonePBiCGStab:  Solving for p, Initial residual = 0.0442319, Final residual = 9.24276e-07, No Iterations 321
linear solve p 1248530
time step continuity errors : sum local = 1.35153e-09, global = 1.97488e-21, cumulative = -4.56077e-20
ExecutionTime = 15.2 s  ClockTime = 15 s

Time = 0.0109091

Courant Number mean: 0.191215 max: 0.943612
DILUPBiCGStab:  Solving for Ux, Initial residual = 0.000342667, Final residual = 4.33315e-07, No Iterations 5
DILUPBiCGStab:  Solving for Uy, Initial residual = 0.000743004, Final residual = 8.35358e-07, No Iterations 5
DILUPBiCGStab:  Solving for Uz, Initial residual = 0.00185179, Final residual = 3.02255e-06, No Iterations 5
linear solve U 135975
nonePBiCGStab:  Solving for p, Initial residual = 0.0402351, Final residual = 9.94469e-07, No Iterations 290
linear solve p 1135933
time step continuity errors : sum local = 1.2869e-09, global = 2.28181e-20, cumulative = -2.27897e-20
nonePBiCGStab:  Solving for p, Initial residual = 0.0294681, Final residual = 9.82986e-07, No Iterations 285
linear solve p 1103566
time step continuity errors : sum local = 1.55699e-09, global = -9.14655e-21, cumulative = -3.19362e-20
ExecutionTime = 17.65 s  ClockTime = 17 s

Time = 0.0127273

Courant Number mean: 0.191209 max: 0.943562
DILUPBiCGStab:  Solving for Ux, Initial residual = 0.000216019, Final residual = 2.92102e-07, No Iterations 5
DILUPBiCGStab:  Solving for Uy, Initial residual = 0.000462204, Final residual = 5.69232e-07, No Iterations 5
DILUPBiCGStab:  Solving for Uz, Initial residual = 0.00121225, Final residual = 2.27193e-06, No Iterations 5
linear solve U 135936
nonePBiCGStab:  Solving for p, Initial residual = 0.0268681, Final residual = 9.12599e-07, No Iterations 274
linear solve p 1065152
time step continuity errors : sum local = 1.68304e-09, global = 5.43919e-20, cumulative = 2.24556e-20
nonePBiCGStab:  Solving for p, Initial residual = 0.0200687, Final residual = 9.76635e-07, No Iterations 274
linear solve p 1068464
time step continuity errors : sum local = 1.79894e-09, global = -3.98073e-20, cumulative = -1.73517e-20
ExecutionTime = 20 s  ClockTime = 20 s

Time = 0.0145455

Courant Number mean: 0.191205 max: 0.943588
DILUPBiCGStab:  Solving for Ux, Initial residual = 0.000143083, Final residual = 1.79121e-07, No Iterations 5
DILUPBiCGStab:  Solving for Uy, Initial residual = 0.000307209, Final residual = 4.4187e-07, No Iterations 5
DILUPBiCGStab:  Solving for Uz, Initial residual = 0.000828663, Final residual = 1.69468e-06, No Iterations 5
linear solve U 135913
nonePBiCGStab:  Solving for p, Initial residual = 0.0183475, Final residual = 8.66166e-07, No Iterations 318
linear solve p 1236914
time step continuity errors : sum local = 8.20443e-10, global = -5.83938e-20, cumulative = -7.57455e-20
nonePBiCGStab:  Solving for p, Initial residual = 0.0139275, Final residual = 9.99064e-07, No Iterations 286
linear solve p 1116640
time step continuity errors : sum local = 1.07424e-09, global = -3.78884e-20, cumulative = -1.13634e-19
ExecutionTime = 22.56 s  ClockTime = 22 s

Time = 0.0163636

Courant Number mean: 0.191203 max: 0.943562
DILUPBiCGStab:  Solving for Ux, Initial residual = 9.72409e-05, Final residual = 1.16791e-07, No Iterations 5
DILUPBiCGStab:  Solving for Uy, Initial residual = 0.000204994, Final residual = 2.81047e-07, No Iterations 5
DILUPBiCGStab:  Solving for Uz, Initial residual = 0.000608634, Final residual = 1.2808e-06, No Iterations 5
linear solve U 137466
nonePBiCGStab:  Solving for p, Initial residual = 0.0127276, Final residual = 8.32862e-07, No Iterations 264
linear solve p 1026526
time step continuity errors : sum local = 1.52881e-09, global = 7.53983e-21, cumulative = -1.06094e-19
nonePBiCGStab:  Solving for p, Initial residual = 0.00976132, Final residual = 9.83555e-07, No Iterations 252
linear solve p 977169
time step continuity errors : sum local = 1.80566e-09, global = 7.22914e-21, cumulative = -9.88649e-20
ExecutionTime = 24.78 s  ClockTime = 24 s

Time = 0.0181818

Courant Number mean: 0.191202 max: 0.943575
DILUPBiCGStab:  Solving for Ux, Initial residual = 6.82087e-05, Final residual = 8.19568e-08, No Iterations 5
DILUPBiCGStab:  Solving for Uy, Initial residual = 0.000145211, Final residual = 1.88396e-07, No Iterations 5
DILUPBiCGStab:  Solving for Uz, Initial residual = 0.000465645, Final residual = 1.23885e-06, No Iterations 5
linear solve U 135888
nonePBiCGStab:  Solving for p, Initial residual = 0.00897463, Final residual = 3.48875e-07, No Iterations 260
linear solve p 1008435
time step continuity errors : sum local = 4.98218e-10, global = 8.22789e-21, cumulative = -9.0637e-20
nonePBiCGStab:  Solving for p, Initial residual = 0.00694175, Final residual = 8.74405e-07, No Iterations 259
linear solve p 1010533
time step continuity errors : sum local = 1.56512e-09, global = -5.36232e-20, cumulative = -1.4426e-19
ExecutionTime = 27.01 s  ClockTime = 27 s

End

