/*---------------------------------------------------------------------------*\
  =========                 |
  \\      /  F ield         | OpenFOAM: The Open Source CFD Toolbox
   \\    /   O peration     | Website:  https://openfoam.org
    \\  /    A nd           | Version:  8
     \\/     M anipulation  |
\*---------------------------------------------------------------------------*/
Build  : 8-ef60d22ea792
Exec   : icoFoam
Date   : Sep 11 2021
Time   : 14:36:53
Host   : "uc2n513.localdomain"
PID    : 229800
I/O    : uncollated
Case   : /pfs/data5/home/kit/scc/nq7776/data/code/OBR/lidDrivenCavity3D/Variation_init/100/Variation_mesh/50/Variation_matrix_solver/CG_BJ_CUDA/1631363806
nProcs : 1
sigFpe : Enabling floating point exception trapping (FOAM_SIGFPE).
fileModificationChecking : Monitoring run-time modified files using timeStampMaster (fileModificationSkew 10)
allowSystemOperations : Allowing user-supplied system call operations

// * * * * * * * * * * * * * * * * * * * * * * * * * * * * * * * * * * * * * //
Create time

Create mesh for time = 0

Reading transportProperties

Reading field p

Reading field U

Reading/calculating face flux field phi


Starting time loop

Time = 0.002

Courant Number mean: 0.192148 max: 0.956831
DILUPBiCGStab:  Solving for Ux, Initial residual = 0.172561, Final residual = 2.46398e-05, No Iterations 5
DILUPBiCGStab:  Solving for Uy, Initial residual = 0.345881, Final residual = 4.22593e-05, No Iterations 5
DILUPBiCGStab:  Solving for Uz, Initial residual = 0.516458, Final residual = 7.14476e-05, No Iterations 5
linear solve U 115047
[OGL LOG] init_host_sparsity_pattern : 33 ms
[OGL LOG] matrix not stored update host matrix
[OGL LOG] update_host_mtx : 18 ms
[OGL LOG] matrix is not yet sorted, compute sorting idxs
[OGL LOG] compute_sort : 982 ms
[OGL LOG] matrix is not yet sorted, sorting host matrix
[OGL LOG] sort_host_mtx_sparsity_pattern : 23 ms
[OGL LOG] sort_host_mtx : 12 ms
[OGL LOG] init_preconditioner : 13 ms
[OGL LOG] solve : 69 ms
BJcudaGKOCG:  Solving for p, Initial residual = 0.676582, Final residual = 9.62682e-07, No Iterations 371
linear solve p 1891120
time step continuity errors : sum local = 2.88183e-09, global = -9.69232e-21, cumulative = -9.69232e-21
[OGL LOG] init_preconditioner : 0 ms
[OGL LOG] solve : 69 ms
BJcudaGKOCG:  Solving for p, Initial residual = 0.411256, Final residual = 9.8448e-07, No Iterations 381
linear solve p 73492
time step continuity errors : sum local = 1.51293e-09, global = 4.07343e-21, cumulative = -5.61889e-21
ExecutionTime = 2.68 s  ClockTime = 3 s

Time = 0.004

Courant Number mean: 0.192597 max: 0.939084
DILUPBiCGStab:  Solving for Ux, Initial residual = 0.0107652, Final residual = 2.47591e-05, No Iterations 5
DILUPBiCGStab:  Solving for Uy, Initial residual = 0.0214039, Final residual = 3.55404e-05, No Iterations 5
DILUPBiCGStab:  Solving for Uz, Initial residual = 0.0908845, Final residual = 0.000102249, No Iterations 5
linear solve U 105512
[OGL LOG] init_preconditioner : 0 ms
[OGL LOG] solve : 72 ms
BJcudaGKOCG:  Solving for p, Initial residual = 0.329321, Final residual = 9.60729e-07, No Iterations 396
linear solve p 75984
time step continuity errors : sum local = 7.26384e-07, global = 1.20004e-20, cumulative = 6.38153e-21
[OGL LOG] init_preconditioner : 0 ms
[OGL LOG] solve : 72 ms
BJcudaGKOCG:  Solving for p, Initial residual = 0.245937, Final residual = 9.95543e-07, No Iterations 393
linear solve p 75754
time step continuity errors : sum local = 6.32961e-07, global = 2.19797e-20, cumulative = 2.83613e-20
ExecutionTime = 3 s  ClockTime = 3 s

Time = 0.006

Courant Number mean: 0.192342 max: 0.940635
DILUPBiCGStab:  Solving for Ux, Initial residual = 0.00352109, Final residual = 6.70763e-06, No Iterations 5
DILUPBiCGStab:  Solving for Uy, Initial residual = 0.00758726, Final residual = 1.70043e-05, No Iterations 5
DILUPBiCGStab:  Solving for Uz, Initial residual = 0.0401303, Final residual = 6.16276e-05, No Iterations 5
linear solve U 107639
[OGL LOG] init_preconditioner : 0 ms
[OGL LOG] solve : 68 ms
BJcudaGKOCG:  Solving for p, Initial residual = 0.174833, Final residual = 9.89874e-07, No Iterations 373
linear solve p 72400
time step continuity errors : sum local = 6.74292e-07, global = -5.30502e-20, cumulative = -2.46889e-20
[OGL LOG] init_preconditioner : 0 ms
[OGL LOG] solve : 68 ms
BJcudaGKOCG:  Solving for p, Initial residual = 0.135101, Final residual = 9.40144e-07, No Iterations 372
linear solve p 72001
time step continuity errors : sum local = 6.31841e-07, global = -1.26941e-20, cumulative = -3.7383e-20
ExecutionTime = 3.32 s  ClockTime = 3 s

Time = 0.008

Courant Number mean: 0.191845 max: 0.938398
DILUPBiCGStab:  Solving for Ux, Initial residual = 0.00145257, Final residual = 1.8524e-06, No Iterations 5
DILUPBiCGStab:  Solving for Uy, Initial residual = 0.00279584, Final residual = 4.22066e-06, No Iterations 5
DILUPBiCGStab:  Solving for Uz, Initial residual = 0.0155926, Final residual = 2.27269e-05, No Iterations 5
linear solve U 104855
[OGL LOG] init_preconditioner : 0 ms
[OGL LOG] solve : 65 ms
BJcudaGKOCG:  Solving for p, Initial residual = 0.104348, Final residual = 9.67605e-07, No Iterations 358
linear solve p 69101
time step continuity errors : sum local = 6.24496e-07, global = 2.79397e-20, cumulative = -9.44336e-21
[OGL LOG] init_preconditioner : 0 ms
[OGL LOG] solve : 65 ms
BJcudaGKOCG:  Solving for p, Initial residual = 0.0812706, Final residual = 9.86485e-07, No Iterations 356
linear solve p 68804
time step continuity errors : sum local = 6.31947e-07, global = 2.59383e-21, cumulative = -6.84953e-21
ExecutionTime = 3.63 s  ClockTime = 4 s

Time = 0.01

Courant Number mean: 0.191684 max: 0.938454
DILUPBiCGStab:  Solving for Ux, Initial residual = 0.000754523, Final residual = 1.39884e-06, No Iterations 5
DILUPBiCGStab:  Solving for Uy, Initial residual = 0.00149101, Final residual = 3.19755e-06, No Iterations 5
DILUPBiCGStab:  Solving for Uz, Initial residual = 0.00883495, Final residual = 1.12451e-05, No Iterations 5
linear solve U 109084
[OGL LOG] init_preconditioner : 0 ms
[OGL LOG] solve : 59 ms
BJcudaGKOCG:  Solving for p, Initial residual = 0.0660486, Final residual = 9.90472e-07, No Iterations 325
linear solve p 63371
time step continuity errors : sum local = 6.36792e-07, global = -6.51506e-20, cumulative = -7.20001e-20
[OGL LOG] init_preconditioner : 0 ms
[OGL LOG] solve : 59 ms
BJcudaGKOCG:  Solving for p, Initial residual = 0.05112, Final residual = 9.91456e-07, No Iterations 323
linear solve p 62904
time step continuity errors : sum local = 6.31982e-07, global = -1.37905e-20, cumulative = -8.57907e-20
ExecutionTime = 3.93 s  ClockTime = 4 s

Time = 0.012

Courant Number mean: 0.191526 max: 0.938315
DILUPBiCGStab:  Solving for Ux, Initial residual = 0.000475218, Final residual = 6.5281e-07, No Iterations 5
DILUPBiCGStab:  Solving for Uy, Initial residual = 0.00080109, Final residual = 1.2365e-06, No Iterations 5
DILUPBiCGStab:  Solving for Uz, Initial residual = 0.00455783, Final residual = 4.76502e-06, No Iterations 5
linear solve U 104498
[OGL LOG] init_preconditioner : 0 ms
[OGL LOG] solve : 57 ms
BJcudaGKOCG:  Solving for p, Initial residual = 0.0433095, Final residual = 9.67924e-07, No Iterations 316
linear solve p 61606
time step continuity errors : sum local = 6.31269e-07, global = -5.73944e-20, cumulative = -1.43185e-19
[OGL LOG] init_preconditioner : 0 ms
[OGL LOG] solve : 57 ms
BJcudaGKOCG:  Solving for p, Initial residual = 0.0334565, Final residual = 9.29612e-07, No Iterations 315
linear solve p 61646
time step continuity errors : sum local = 6.31967e-07, global = 1.39531e-20, cumulative = -1.29232e-19
ExecutionTime = 4.23 s  ClockTime = 4 s

Time = 0.014

Courant Number mean: 0.191434 max: 0.93818
DILUPBiCGStab:  Solving for Ux, Initial residual = 0.000304684, Final residual = 5.3812e-07, No Iterations 5
DILUPBiCGStab:  Solving for Uy, Initial residual = 0.000506227, Final residual = 8.00948e-07, No Iterations 5
DILUPBiCGStab:  Solving for Uz, Initial residual = 0.00278995, Final residual = 2.91831e-06, No Iterations 5
linear solve U 104805
[OGL LOG] init_preconditioner : 0 ms
[OGL LOG] solve : 35 ms
BJcudaGKOCG:  Solving for p, Initial residual = 0.0289386, Final residual = 9.8518e-07, No Iterations 182
linear solve p 38999
time step continuity errors : sum local = 6.32743e-07, global = 1.20535e-20, cumulative = -1.17179e-19
[OGL LOG] init_preconditioner : 0 ms
[OGL LOG] solve : 33 ms
BJcudaGKOCG:  Solving for p, Initial residual = 0.0222914, Final residual = 9.73902e-07, No Iterations 180
linear solve p 37554
time step continuity errors : sum local = 6.31963e-07, global = -2.06099e-20, cumulative = -1.37788e-19
ExecutionTime = 4.48 s  ClockTime = 4 s

Time = 0.016

Courant Number mean: 0.191359 max: 0.938152
DILUPBiCGStab:  Solving for Ux, Initial residual = 0.000210223, Final residual = 2.60943e-07, No Iterations 5
DILUPBiCGStab:  Solving for Uy, Initial residual = 0.000325462, Final residual = 3.73985e-07, No Iterations 5
DILUPBiCGStab:  Solving for Uz, Initial residual = 0.00161211, Final residual = 1.61602e-06, No Iterations 5
linear solve U 105277
[OGL LOG] init_preconditioner : 0 ms
[OGL LOG] solve : 28 ms
BJcudaGKOCG:  Solving for p, Initial residual = 0.0195884, Final residual = 9.11706e-07, No Iterations 153
linear solve p 32646
time step continuity errors : sum local = 6.32075e-07, global = 6.62055e-21, cumulative = -1.31168e-19
[OGL LOG] init_preconditioner : 0 ms
[OGL LOG] solve : 28 ms
BJcudaGKOCG:  Solving for p, Initial residual = 0.0150569, Final residual = 9.76079e-07, No Iterations 148
linear solve p 31703
time step continuity errors : sum local = 6.32003e-07, global = 1.60113e-20, cumulative = -1.15157e-19
ExecutionTime = 4.71 s  ClockTime = 5 s

Time = 0.018

Courant Number mean: 0.191306 max: 0.938082
DILUPBiCGStab:  Solving for Ux, Initial residual = 0.000145964, Final residual = 1.49327e-07, No Iterations 5
DILUPBiCGStab:  Solving for Uy, Initial residual = 0.000222239, Final residual = 1.9336e-07, No Iterations 5
DILUPBiCGStab:  Solving for Uz, Initial residual = 0.00106818, Final residual = 9.88756e-07, No Iterations 5
linear solve U 104372
[OGL LOG] init_preconditioner : 0 ms
[OGL LOG] solve : 26 ms
BJcudaGKOCG:  Solving for p, Initial residual = 0.0133824, Final residual = 9.54895e-07, No Iterations 140
linear solve p 30362
time step continuity errors : sum local = 6.32199e-07, global = 3.14628e-20, cumulative = -8.36938e-20
[OGL LOG] init_preconditioner : 0 ms
[OGL LOG] solve : 25 ms
BJcudaGKOCG:  Solving for p, Initial residual = 0.0102849, Final residual = 9.76325e-07, No Iterations 135
linear solve p 29395
time step continuity errors : sum local = 6.32007e-07, global = 2.19844e-20, cumulative = -6.17094e-20
ExecutionTime = 4.94 s  ClockTime = 5 s

Time = 0.02

Courant Number mean: 0.191264 max: 0.938065
DILUPBiCGStab:  Solving for Ux, Initial residual = 0.00010528, Final residual = 1.00148e-07, No Iterations 5
DILUPBiCGStab:  Solving for Uy, Initial residual = 0.000156086, Final residual = 1.07374e-07, No Iterations 5
DILUPBiCGStab:  Solving for Uz, Initial residual = 0.000682578, Final residual = 6.67611e-07, No Iterations 5
linear solve U 108063
[OGL LOG] init_preconditioner : 0 ms
[OGL LOG] solve : 26 ms
BJcudaGKOCG:  Solving for p, Initial residual = 0.00919725, Final residual = 9.58233e-07, No Iterations 140
linear solve p 30685
time step continuity errors : sum local = 6.32082e-07, global = 8.19308e-20, cumulative = 2.02214e-20
[OGL LOG] init_preconditioner : 0 ms
[OGL LOG] solve : 26 ms
BJcudaGKOCG:  Solving for p, Initial residual = 0.00706461, Final residual = 9.35519e-07, No Iterations 139
linear solve p 30345
time step continuity errors : sum local = 6.31988e-07, global = -2.1923e-20, cumulative = -1.70157e-21
ExecutionTime = 5.18 s  ClockTime = 5 s

End

