/*---------------------------------------------------------------------------*\
  =========                 |
  \\      /  F ield         | OpenFOAM: The Open Source CFD Toolbox
   \\    /   O peration     | Website:  https://openfoam.org
    \\  /    A nd           | Version:  8
     \\/     M anipulation  |
\*---------------------------------------------------------------------------*/
Build  : 8-ef60d22ea792
Exec   : icoFoam
Date   : Sep 11 2021
Time   : 13:35:43
Host   : "uc2n442.localdomain"
PID    : 3705148
I/O    : uncollated
Case   : /pfs/data5/home/kit/scc/nq7776/data/code/OBR/lidDrivenCavity3D/Variation_init/100/Variation_mesh/15/Variation_matrix_solver/CG_DIC_Serial/1631360143
nProcs : 1
sigFpe : Enabling floating point exception trapping (FOAM_SIGFPE).
fileModificationChecking : Monitoring run-time modified files using timeStampMaster (fileModificationSkew 10)
allowSystemOperations : Allowing user-supplied system call operations

// * * * * * * * * * * * * * * * * * * * * * * * * * * * * * * * * * * * * * //
Create time

Create mesh for time = 0

Reading transportProperties

Reading field p

Reading field U

Reading/calculating face flux field phi


Starting time loop

Time = 0.00666667

Courant Number mean: 0.187217 max: 0.790057
DILUPBiCGStab:  Solving for Ux, Initial residual = 0.0835146, Final residual = 3.83698e-08, No Iterations 5
DILUPBiCGStab:  Solving for Uy, Initial residual = 0.111321, Final residual = 3.87051e-08, No Iterations 5
DILUPBiCGStab:  Solving for Uz, Initial residual = 0.145849, Final residual = 7.53903e-08, No Iterations 5
linear solve U 2301
DICPCG:  Solving for p, Initial residual = 0.518065, Final residual = 5.38105e-07, No Iterations 39
linear solve p 2090
time step continuity errors : sum local = 7.53806e-09, global = -1.94785e-19, cumulative = -1.94785e-19
DICPCG:  Solving for p, Initial residual = 0.278331, Final residual = 3.96388e-07, No Iterations 39
linear solve p 2083
time step continuity errors : sum local = 3.85091e-09, global = -2.99325e-19, cumulative = -4.9411e-19
ExecutionTime = 0.06 s  ClockTime = 0 s

Time = 0.0133333

Courant Number mean: 0.185914 max: 0.794343
DILUPBiCGStab:  Solving for Ux, Initial residual = 0.0162421, Final residual = 5.69331e-08, No Iterations 5
DILUPBiCGStab:  Solving for Uy, Initial residual = 0.0262103, Final residual = 4.98219e-08, No Iterations 5
DILUPBiCGStab:  Solving for Uz, Initial residual = 0.0639927, Final residual = 6.16193e-08, No Iterations 5
linear solve U 1837
DICPCG:  Solving for p, Initial residual = 0.140438, Final residual = 5.7505e-07, No Iterations 38
linear solve p 1997
time step continuity errors : sum local = 5.77347e-09, global = -1.34056e-19, cumulative = -6.28166e-19
DICPCG:  Solving for p, Initial residual = 0.0811085, Final residual = 8.65706e-07, No Iterations 37
linear solve p 1910
time step continuity errors : sum local = 8.99589e-09, global = -1.08788e-19, cumulative = -7.36954e-19
ExecutionTime = 0.07 s  ClockTime = 0 s

Time = 0.02

Courant Number mean: 0.185268 max: 0.792428
DILUPBiCGStab:  Solving for Ux, Initial residual = 0.00200566, Final residual = 2.68659e-09, No Iterations 5
DILUPBiCGStab:  Solving for Uy, Initial residual = 0.00389307, Final residual = 2.40611e-09, No Iterations 5
DILUPBiCGStab:  Solving for Uz, Initial residual = 0.0127568, Final residual = 2.65331e-08, No Iterations 5
linear solve U 1818
DICPCG:  Solving for p, Initial residual = 0.0223524, Final residual = 9.87604e-07, No Iterations 35
linear solve p 1807
time step continuity errors : sum local = 1.01118e-08, global = -2.94855e-19, cumulative = -1.03181e-18
DICPCG:  Solving for p, Initial residual = 0.0134873, Final residual = 5.87417e-07, No Iterations 35
linear solve p 1845
time step continuity errors : sum local = 6.01974e-09, global = -1.64226e-19, cumulative = -1.19603e-18
ExecutionTime = 0.08 s  ClockTime = 0 s

Time = 0.0266667

Courant Number mean: 0.185122 max: 0.79228
DILUPBiCGStab:  Solving for Ux, Initial residual = 0.000634835, Final residual = 1.1926e-09, No Iterations 5
DILUPBiCGStab:  Solving for Uy, Initial residual = 0.000907133, Final residual = 1.52728e-09, No Iterations 5
DILUPBiCGStab:  Solving for Uz, Initial residual = 0.00476356, Final residual = 7.28106e-09, No Iterations 5
linear solve U 1947
DICPCG:  Solving for p, Initial residual = 0.00546439, Final residual = 5.10299e-07, No Iterations 34
linear solve p 1903
time step continuity errors : sum local = 5.22183e-09, global = 5.6373e-20, cumulative = -1.13966e-18
DICPCG:  Solving for p, Initial residual = 0.00358904, Final residual = 7.02756e-07, No Iterations 33
linear solve p 1784
time step continuity errors : sum local = 7.18917e-09, global = -2.89313e-19, cumulative = -1.42897e-18
ExecutionTime = 0.09 s  ClockTime = 0 s

Time = 0.0333333

Courant Number mean: 0.185035 max: 0.792188
DILUPBiCGStab:  Solving for Ux, Initial residual = 0.000242017, Final residual = 3.27872e-10, No Iterations 5
DILUPBiCGStab:  Solving for Uy, Initial residual = 0.000421345, Final residual = 8.17835e-10, No Iterations 5
DILUPBiCGStab:  Solving for Uz, Initial residual = 0.0023008, Final residual = 3.83315e-09, No Iterations 5
linear solve U 1928
DICPCG:  Solving for p, Initial residual = 0.00188565, Final residual = 7.76039e-07, No Iterations 16
linear solve p 914
time step continuity errors : sum local = 1.00369e-08, global = -5.43306e-20, cumulative = -1.48331e-18
DICPCG:  Solving for p, Initial residual = 0.0012531, Final residual = 4.70084e-07, No Iterations 16
linear solve p 912
time step continuity errors : sum local = 5.29613e-09, global = -3.561e-19, cumulative = -1.83941e-18
ExecutionTime = 0.09 s  ClockTime = 0 s

Time = 0.04

Courant Number mean: 0.184989 max: 0.792067
DILUPBiCGStab:  Solving for Ux, Initial residual = 0.000127957, Final residual = 1.4881e-10, No Iterations 5
DILUPBiCGStab:  Solving for Uy, Initial residual = 0.000188, Final residual = 2.49236e-10, No Iterations 5
DILUPBiCGStab:  Solving for Uz, Initial residual = 0.00135439, Final residual = 2.57824e-09, No Iterations 5
linear solve U 1913
DICPCG:  Solving for p, Initial residual = 0.000629352, Final residual = 7.21031e-07, No Iterations 29
linear solve p 1527
time step continuity errors : sum local = 7.388e-09, global = 4.97411e-20, cumulative = -1.78966e-18
DICPCG:  Solving for p, Initial residual = 0.000411477, Final residual = 8.78787e-07, No Iterations 15
linear solve p 869
time step continuity errors : sum local = 1.35904e-08, global = -1.21066e-19, cumulative = -1.91073e-18
ExecutionTime = 0.1 s  ClockTime = 0 s

Time = 0.0466667

Courant Number mean: 0.184967 max: 0.792015
DILUPBiCGStab:  Solving for Ux, Initial residual = 6.79474e-05, Final residual = 6.50558e-11, No Iterations 5
DILUPBiCGStab:  Solving for Uy, Initial residual = 0.000104365, Final residual = 1.27998e-10, No Iterations 5
DILUPBiCGStab:  Solving for Uz, Initial residual = 0.000804926, Final residual = 1.56525e-09, No Iterations 5
linear solve U 1856
DICPCG:  Solving for p, Initial residual = 0.000263461, Final residual = 5.42936e-07, No Iterations 29
linear solve p 1506
time step continuity errors : sum local = 5.56291e-09, global = -2.31139e-19, cumulative = -2.14187e-18
DICPCG:  Solving for p, Initial residual = 0.00018225, Final residual = 7.23621e-07, No Iterations 13
linear solve p 724
time step continuity errors : sum local = 8.16165e-09, global = -5.64103e-20, cumulative = -2.19828e-18
ExecutionTime = 0.1 s  ClockTime = 0 s

Time = 0.0533333

Courant Number mean: 0.184955 max: 0.791982
DILUPBiCGStab:  Solving for Ux, Initial residual = 3.94447e-05, Final residual = 3.1752e-11, No Iterations 5
DILUPBiCGStab:  Solving for Uy, Initial residual = 5.75586e-05, Final residual = 2.58634e-11, No Iterations 5
DILUPBiCGStab:  Solving for Uz, Initial residual = 0.000497846, Final residual = 6.90126e-10, No Iterations 5
linear solve U 1817
DICPCG:  Solving for p, Initial residual = 0.00011453, Final residual = 9.12836e-07, No Iterations 27
linear solve p 1427
time step continuity errors : sum local = 9.35828e-09, global = 4.16338e-19, cumulative = -1.78194e-18
DICPCG:  Solving for p, Initial residual = 8.01065e-05, Final residual = 8.12691e-07, No Iterations 12
linear solve p 674
time step continuity errors : sum local = 1.16675e-08, global = -5.86809e-20, cumulative = -1.84062e-18
ExecutionTime = 0.11 s  ClockTime = 0 s

Time = 0.06

Courant Number mean: 0.18495 max: 0.791965
DILUPBiCGStab:  Solving for Ux, Initial residual = 2.35523e-05, Final residual = 2.07115e-11, No Iterations 5
DILUPBiCGStab:  Solving for Uy, Initial residual = 3.31904e-05, Final residual = 1.63836e-11, No Iterations 5
DILUPBiCGStab:  Solving for Uz, Initial residual = 0.000303972, Final residual = 5.29444e-10, No Iterations 5
linear solve U 1814
DICPCG:  Solving for p, Initial residual = 6.0568e-05, Final residual = 9.96494e-07, No Iterations 12
linear solve p 681
time step continuity errors : sum local = 1.51175e-08, global = 8.50094e-20, cumulative = -1.75561e-18
DICPCG:  Solving for p, Initial residual = 4.33516e-05, Final residual = 8.22396e-07, No Iterations 11
linear solve p 623
time step continuity errors : sum local = 1.29318e-08, global = -3.30333e-19, cumulative = -2.08595e-18
ExecutionTime = 0.11 s  ClockTime = 0 s

Time = 0.0666667

Courant Number mean: 0.184947 max: 0.791956
DILUPBiCGStab:  Solving for Ux, Initial residual = 1.40541e-05, Final residual = 1.13447e-11, No Iterations 5
DILUPBiCGStab:  Solving for Uy, Initial residual = 1.98343e-05, Final residual = 8.80068e-12, No Iterations 5
DILUPBiCGStab:  Solving for Uz, Initial residual = 0.000189548, Final residual = 2.04662e-10, No Iterations 5
linear solve U 1827
DICPCG:  Solving for p, Initial residual = 3.22952e-05, Final residual = 6.35403e-07, No Iterations 11
linear solve p 630
time step continuity errors : sum local = 9.42809e-09, global = -1.33542e-19, cumulative = -2.21949e-18
DICPCG:  Solving for p, Initial residual = 2.36923e-05, Final residual = 9.46977e-07, No Iterations 10
linear solve p 572
time step continuity errors : sum local = 1.34463e-08, global = -1.14887e-19, cumulative = -2.33437e-18
ExecutionTime = 0.12 s  ClockTime = 0 s

End

