/*---------------------------------------------------------------------------*\
  =========                 |
  \\      /  F ield         | OpenFOAM: The Open Source CFD Toolbox
   \\    /   O peration     | Website:  https://openfoam.org
    \\  /    A nd           | Version:  8
     \\/     M anipulation  |
\*---------------------------------------------------------------------------*/
Build  : 8-ef60d22ea792
Exec   : icoFoam
Date   : Sep 11 2021
Time   : 14:54:16
Host   : "uc2n442.localdomain"
PID    : 3724022
I/O    : uncollated
Case   : /pfs/data5/home/kit/scc/nq7776/data/code/OBR/lidDrivenCavity3D/Variation_init/100/Variation_mesh/50/Variation_matrix_solver/BiCGStab_NoPrecond_Serial/1631364850
nProcs : 1
sigFpe : Enabling floating point exception trapping (FOAM_SIGFPE).
fileModificationChecking : Monitoring run-time modified files using timeStampMaster (fileModificationSkew 10)
allowSystemOperations : Allowing user-supplied system call operations

// * * * * * * * * * * * * * * * * * * * * * * * * * * * * * * * * * * * * * //
Create time

Create mesh for time = 0

Reading transportProperties

Reading field p

Reading field U

Reading/calculating face flux field phi


Starting time loop

Time = 0.002

Courant Number mean: 0.192148 max: 0.956831
DILUPBiCGStab:  Solving for Ux, Initial residual = 0.172561, Final residual = 2.46398e-05, No Iterations 5
DILUPBiCGStab:  Solving for Uy, Initial residual = 0.345881, Final residual = 4.22593e-05, No Iterations 5
DILUPBiCGStab:  Solving for Uz, Initial residual = 0.516458, Final residual = 7.14476e-05, No Iterations 5
linear solve U 109938
nonePBiCGStab:  Solving for p, Initial residual = 0.676582, Final residual = 8.03196e-07, No Iterations 353
linear solve p 992850
time step continuity errors : sum local = 4.80838e-09, global = -3.32822e-20, cumulative = -3.32822e-20
nonePBiCGStab:  Solving for p, Initial residual = 0.411251, Final residual = 9.98304e-07, No Iterations 359
linear solve p 1021631
time step continuity errors : sum local = 3.06814e-09, global = -1.35762e-20, cumulative = -4.68584e-20
ExecutionTime = 2.73 s  ClockTime = 3 s

Time = 0.004

Courant Number mean: 0.192597 max: 0.939084
DILUPBiCGStab:  Solving for Ux, Initial residual = 0.0107651, Final residual = 2.47575e-05, No Iterations 5
DILUPBiCGStab:  Solving for Uy, Initial residual = 0.021404, Final residual = 3.55421e-05, No Iterations 5
DILUPBiCGStab:  Solving for Uz, Initial residual = 0.0908905, Final residual = 0.000102499, No Iterations 5
linear solve U 98874
nonePBiCGStab:  Solving for p, Initial residual = 0.329327, Final residual = 8.46048e-07, No Iterations 344
linear solve p 967455
time step continuity errors : sum local = 2.45032e-09, global = 5.31616e-20, cumulative = 6.30323e-21
nonePBiCGStab:  Solving for p, Initial residual = 0.245949, Final residual = 9.71752e-07, No Iterations 341
linear solve p 963520
time step continuity errors : sum local = 2.6794e-09, global = 6.71947e-21, cumulative = 1.30227e-20
ExecutionTime = 4.81 s  ClockTime = 5 s

Time = 0.006

Courant Number mean: 0.192342 max: 0.940635
DILUPBiCGStab:  Solving for Ux, Initial residual = 0.00352167, Final residual = 6.71171e-06, No Iterations 5
DILUPBiCGStab:  Solving for Uy, Initial residual = 0.00758664, Final residual = 1.70005e-05, No Iterations 5
DILUPBiCGStab:  Solving for Uz, Initial residual = 0.0401313, Final residual = 6.18338e-05, No Iterations 5
linear solve U 99337
nonePBiCGStab:  Solving for p, Initial residual = 0.174827, Final residual = 4.75605e-07, No Iterations 341
linear solve p 961548
time step continuity errors : sum local = 1.17713e-09, global = 3.04701e-20, cumulative = 4.34928e-20
nonePBiCGStab:  Solving for p, Initial residual = 0.135089, Final residual = 6.50836e-07, No Iterations 338
linear solve p 953256
time step continuity errors : sum local = 1.60567e-09, global = 5.16052e-20, cumulative = 9.50979e-20
ExecutionTime = 6.88 s  ClockTime = 7 s

Time = 0.008

Courant Number mean: 0.191845 max: 0.938398
DILUPBiCGStab:  Solving for Ux, Initial residual = 0.00145308, Final residual = 1.86456e-06, No Iterations 5
DILUPBiCGStab:  Solving for Uy, Initial residual = 0.00279415, Final residual = 4.22672e-06, No Iterations 5
DILUPBiCGStab:  Solving for Uz, Initial residual = 0.0155701, Final residual = 2.30296e-05, No Iterations 5
linear solve U 99205
nonePBiCGStab:  Solving for p, Initial residual = 0.104339, Final residual = 8.65202e-07, No Iterations 339
linear solve p 953229
time step continuity errors : sum local = 2.0094e-09, global = 5.76017e-20, cumulative = 1.527e-19
nonePBiCGStab:  Solving for p, Initial residual = 0.0812623, Final residual = 9.24802e-07, No Iterations 342
linear solve p 968738
time step continuity errors : sum local = 2.13607e-09, global = 2.42049e-20, cumulative = 1.76905e-19
ExecutionTime = 8.96 s  ClockTime = 9 s

Time = 0.01

Courant Number mean: 0.191684 max: 0.938455
DILUPBiCGStab:  Solving for Ux, Initial residual = 0.000755445, Final residual = 1.40717e-06, No Iterations 5
DILUPBiCGStab:  Solving for Uy, Initial residual = 0.00148967, Final residual = 3.18265e-06, No Iterations 5
DILUPBiCGStab:  Solving for Uz, Initial residual = 0.00882042, Final residual = 1.17296e-05, No Iterations 5
linear solve U 98647
nonePBiCGStab:  Solving for p, Initial residual = 0.0660556, Final residual = 8.89244e-07, No Iterations 321
linear solve p 905434
time step continuity errors : sum local = 2.02419e-09, global = -1.19521e-20, cumulative = 1.64952e-19
nonePBiCGStab:  Solving for p, Initial residual = 0.0511232, Final residual = 8.17788e-07, No Iterations 359
linear solve p 1012513
time step continuity errors : sum local = 1.79463e-09, global = -3.57904e-21, cumulative = 1.61373e-19
ExecutionTime = 11.03 s  ClockTime = 11 s

Time = 0.012

Courant Number mean: 0.191526 max: 0.938315
DILUPBiCGStab:  Solving for Ux, Initial residual = 0.000475532, Final residual = 6.51328e-07, No Iterations 5
DILUPBiCGStab:  Solving for Uy, Initial residual = 0.000800708, Final residual = 1.24612e-06, No Iterations 5
DILUPBiCGStab:  Solving for Uz, Initial residual = 0.00457494, Final residual = 4.98949e-06, No Iterations 5
linear solve U 98974
nonePBiCGStab:  Solving for p, Initial residual = 0.0433177, Final residual = 8.9392e-07, No Iterations 146
linear solve p 413707
time step continuity errors : sum local = 1.73745e-09, global = 7.89612e-20, cumulative = 2.40335e-19
nonePBiCGStab:  Solving for p, Initial residual = 0.0334632, Final residual = 9.94343e-07, No Iterations 143
linear solve p 405781
time step continuity errors : sum local = 1.33759e-09, global = 1.89239e-20, cumulative = 2.59258e-19
ExecutionTime = 12 s  ClockTime = 12 s

Time = 0.014

Courant Number mean: 0.191434 max: 0.93818
DILUPBiCGStab:  Solving for Ux, Initial residual = 0.000305324, Final residual = 5.45325e-07, No Iterations 5
DILUPBiCGStab:  Solving for Uy, Initial residual = 0.00050658, Final residual = 7.97389e-07, No Iterations 5
DILUPBiCGStab:  Solving for Uz, Initial residual = 0.00279503, Final residual = 3.05741e-06, No Iterations 5
linear solve U 99886
nonePBiCGStab:  Solving for p, Initial residual = 0.0289514, Final residual = 9.91004e-07, No Iterations 287
linear solve p 809397
time step continuity errors : sum local = 2.20416e-09, global = 2.83221e-20, cumulative = 2.87581e-19
nonePBiCGStab:  Solving for p, Initial residual = 0.0223019, Final residual = 9.87415e-07, No Iterations 131
linear solve p 371348
time step continuity errors : sum local = 1.75252e-09, global = 7.08312e-20, cumulative = 3.58412e-19
ExecutionTime = 13.35 s  ClockTime = 14 s

Time = 0.016

Courant Number mean: 0.191359 max: 0.938152
DILUPBiCGStab:  Solving for Ux, Initial residual = 0.000211234, Final residual = 2.58407e-07, No Iterations 5
DILUPBiCGStab:  Solving for Uy, Initial residual = 0.000326851, Final residual = 3.82622e-07, No Iterations 5
DILUPBiCGStab:  Solving for Uz, Initial residual = 0.00168053, Final residual = 2.01208e-06, No Iterations 5
linear solve U 98436
nonePBiCGStab:  Solving for p, Initial residual = 0.0196146, Final residual = 9.88452e-07, No Iterations 250
linear solve p 706409
time step continuity errors : sum local = 2.18791e-09, global = 2.21896e-20, cumulative = 3.80601e-19
nonePBiCGStab:  Solving for p, Initial residual = 0.015081, Final residual = 9.54204e-07, No Iterations 249
linear solve p 701970
time step continuity errors : sum local = 1.83964e-09, global = 3.16613e-20, cumulative = 4.12263e-19
ExecutionTime = 14.91 s  ClockTime = 15 s

Time = 0.018

Courant Number mean: 0.191306 max: 0.938082
DILUPBiCGStab:  Solving for Ux, Initial residual = 0.000147346, Final residual = 1.56656e-07, No Iterations 5
DILUPBiCGStab:  Solving for Uy, Initial residual = 0.000226128, Final residual = 2.09381e-07, No Iterations 5
DILUPBiCGStab:  Solving for Uz, Initial residual = 0.0011699, Final residual = 1.37367e-06, No Iterations 5
linear solve U 98553
nonePBiCGStab:  Solving for p, Initial residual = 0.013421, Final residual = 9.38198e-07, No Iterations 281
linear solve p 793184
time step continuity errors : sum local = 1.24351e-09, global = -5.55287e-20, cumulative = 3.56734e-19
nonePBiCGStab:  Solving for p, Initial residual = 0.0103205, Final residual = 3.99645e-07, No Iterations 293
linear solve p 827220
time step continuity errors : sum local = 5.66712e-10, global = 2.97077e-20, cumulative = 3.86442e-19
ExecutionTime = 16.69 s  ClockTime = 17 s

Time = 0.02

Courant Number mean: 0.191264 max: 0.938064
DILUPBiCGStab:  Solving for Ux, Initial residual = 0.000106727, Final residual = 1.00536e-07, No Iterations 5
DILUPBiCGStab:  Solving for Uy, Initial residual = 0.000158176, Final residual = 1.20023e-07, No Iterations 5
DILUPBiCGStab:  Solving for Uz, Initial residual = 0.000771646, Final residual = 9.3893e-07, No Iterations 5
linear solve U 98472
nonePBiCGStab:  Solving for p, Initial residual = 0.00922405, Final residual = 9.954e-07, No Iterations 245
linear solve p 692426
time step continuity errors : sum local = 1.54996e-09, global = 5.46874e-20, cumulative = 4.41129e-19
nonePBiCGStab:  Solving for p, Initial residual = 0.00708879, Final residual = 9.67948e-07, No Iterations 286
linear solve p 805948
time step continuity errors : sum local = 1.15158e-09, global = -2.23145e-20, cumulative = 4.18815e-19
ExecutionTime = 18.34 s  ClockTime = 19 s

End

