/*---------------------------------------------------------------------------*\
  =========                 |
  \\      /  F ield         | OpenFOAM: The Open Source CFD Toolbox
   \\    /   O peration     | Website:  https://openfoam.org
    \\  /    A nd           | Version:  8
     \\/     M anipulation  |
\*---------------------------------------------------------------------------*/
Build  : 8-ef60d22ea792
Exec   : icoFoam
Date   : Sep 11 2021
Time   : 14:40:03
Host   : "uc2n513.localdomain"
PID    : 231231
I/O    : uncollated
Case   : /pfs/data5/home/kit/scc/nq7776/data/code/OBR/lidDrivenCavity3D/Variation_init/100/Variation_mesh/55/Variation_matrix_solver/BiCGStab_BJ_CUDA/1631363995
nProcs : 1
sigFpe : Enabling floating point exception trapping (FOAM_SIGFPE).
fileModificationChecking : Monitoring run-time modified files using timeStampMaster (fileModificationSkew 10)
allowSystemOperations : Allowing user-supplied system call operations

// * * * * * * * * * * * * * * * * * * * * * * * * * * * * * * * * * * * * * //
Create time

Create mesh for time = 0

Reading transportProperties

Reading field p

Reading field U

Reading/calculating face flux field phi


Starting time loop

Time = 0.00181818

Courant Number mean: 0.191368 max: 0.957571
DILUPBiCGStab:  Solving for Ux, Initial residual = 0.060281, Final residual = 1.19981e-05, No Iterations 5
DILUPBiCGStab:  Solving for Uy, Initial residual = 0.121009, Final residual = 2.40294e-05, No Iterations 5
DILUPBiCGStab:  Solving for Uz, Initial residual = 0.150024, Final residual = 8.14301e-05, No Iterations 5
linear solve U 163336
[OGL LOG] init_host_sparsity_pattern : 44 ms
[OGL LOG] matrix not stored update host matrix
[OGL LOG] update_host_mtx : 24 ms
[OGL LOG] matrix is not yet sorted, compute sorting idxs
[OGL LOG] compute_sort : 1351 ms
[OGL LOG] matrix is not yet sorted, sorting host matrix
[OGL LOG] sort_host_mtx_sparsity_pattern : 30 ms
[OGL LOG] sort_host_mtx : 19 ms
[OGL LOG] init_preconditioner : 18 ms
[OGL LOG] solve : 190 ms
BJcudaGKOBiCGStab:  Solving for p, Initial residual = 0.606676, Final residual = 6.48436e-07, No Iterations 265
linear solve p 2429572
time step continuity errors : sum local = 2.30355e-06, global = 3.79601e-20, cumulative = 3.79601e-20
[OGL LOG] init_preconditioner : 0 ms
[OGL LOG] solve : 188 ms
BJcudaGKOBiCGStab:  Solving for p, Initial residual = 0.417126, Final residual = 9.85605e-07, No Iterations 267
linear solve p 193565
time step continuity errors : sum local = 2.69408e-06, global = -5.80526e-21, cumulative = 3.21548e-20
ExecutionTime = 3.63 s  ClockTime = 4 s

Time = 0.00363636

Courant Number mean: 0.191352 max: 0.944825
DILUPBiCGStab:  Solving for Ux, Initial residual = 0.00670446, Final residual = 6.3463e-06, No Iterations 5
DILUPBiCGStab:  Solving for Uy, Initial residual = 0.0144021, Final residual = 1.51963e-05, No Iterations 5
DILUPBiCGStab:  Solving for Uz, Initial residual = 0.0331629, Final residual = 6.63805e-05, No Iterations 5
linear solve U 149341
[OGL LOG] init_preconditioner : 0 ms
[OGL LOG] solve : 187 ms
BJcudaGKOBiCGStab:  Solving for p, Initial residual = 0.309786, Final residual = 3.42926e-07, No Iterations 262
linear solve p 192042
time step continuity errors : sum local = 2.08997e-06, global = -2.70744e-20, cumulative = 5.08044e-21
[OGL LOG] init_preconditioner : 0 ms
[OGL LOG] solve : 195 ms
BJcudaGKOBiCGStab:  Solving for p, Initial residual = 0.19552, Final residual = 7.03617e-07, No Iterations 276
linear solve p 200100
time step continuity errors : sum local = 3.65349e-07, global = -3.663e-21, cumulative = 1.41744e-21
ExecutionTime = 4.27 s  ClockTime = 4 s

Time = 0.00545455

Courant Number mean: 0.191294 max: 0.943843
DILUPBiCGStab:  Solving for Ux, Initial residual = 0.00199675, Final residual = 3.95332e-06, No Iterations 5
DILUPBiCGStab:  Solving for Uy, Initial residual = 0.00441, Final residual = 8.33523e-06, No Iterations 5
DILUPBiCGStab:  Solving for Uz, Initial residual = 0.0141844, Final residual = 2.3893e-05, No Iterations 5
linear solve U 148820
[OGL LOG] init_preconditioner : 0 ms
[OGL LOG] solve : 180 ms
BJcudaGKOBiCGStab:  Solving for p, Initial residual = 0.169292, Final residual = 9.42008e-07, No Iterations 256
linear solve p 185648
time step continuity errors : sum local = 1.3622e-06, global = -2.77331e-21, cumulative = -1.35587e-21
[OGL LOG] init_preconditioner : 0 ms
[OGL LOG] solve : 192 ms
BJcudaGKOBiCGStab:  Solving for p, Initial residual = 0.113986, Final residual = 9.85224e-07, No Iterations 274
linear solve p 197295
time step continuity errors : sum local = 5.33227e-07, global = 4.34834e-21, cumulative = 2.99247e-21
ExecutionTime = 4.89 s  ClockTime = 5 s

Time = 0.00727273

Courant Number mean: 0.191239 max: 0.94364
DILUPBiCGStab:  Solving for Ux, Initial residual = 0.00100392, Final residual = 1.25189e-06, No Iterations 5
DILUPBiCGStab:  Solving for Uy, Initial residual = 0.00220747, Final residual = 2.54727e-06, No Iterations 5
DILUPBiCGStab:  Solving for Uz, Initial residual = 0.00607243, Final residual = 1.10614e-05, No Iterations 5
linear solve U 153095
[OGL LOG] init_preconditioner : 0 ms
[OGL LOG] solve : 173 ms
BJcudaGKOBiCGStab:  Solving for p, Initial residual = 0.100248, Final residual = 7.73152e-07, No Iterations 245
linear solve p 178609
time step continuity errors : sum local = 6.46876e-05, global = 7.44026e-20, cumulative = 7.73951e-20
[OGL LOG] init_preconditioner : 0 ms
[OGL LOG] solve : 185 ms
BJcudaGKOBiCGStab:  Solving for p, Initial residual = 0.146852, Final residual = 9.83736e-07, No Iterations 264
linear solve p 190858
time step continuity errors : sum local = 3.63918e-07, global = 3.02358e-20, cumulative = 1.07631e-19
ExecutionTime = 5.5 s  ClockTime = 5 s

Time = 0.00909091

Courant Number mean: 0.191228 max: 0.943571
DILUPBiCGStab:  Solving for Ux, Initial residual = 0.000574106, Final residual = 8.19005e-07, No Iterations 5
DILUPBiCGStab:  Solving for Uy, Initial residual = 0.00134763, Final residual = 1.80058e-06, No Iterations 5
DILUPBiCGStab:  Solving for Uz, Initial residual = 0.071917, Final residual = 0.00024025, No Iterations 5
linear solve U 149932
[OGL LOG] init_preconditioner : 0 ms
[OGL LOG] solve : 186 ms
BJcudaGKOBiCGStab:  Solving for p, Initial residual = 0.179483, Final residual = 7.93839e-07, No Iterations 264
linear solve p 191189
time step continuity errors : sum local = 3.73399e-07, global = -7.48432e-20, cumulative = 3.27877e-20
[OGL LOG] init_preconditioner : 0 ms
[OGL LOG] solve : 177 ms
BJcudaGKOBiCGStab:  Solving for p, Initial residual = 0.142421, Final residual = 4.92173e-07, No Iterations 252
linear solve p 182471
time step continuity errors : sum local = 4.24428e-07, global = 1.26976e-20, cumulative = 4.54853e-20
ExecutionTime = 6.12 s  ClockTime = 6 s

Time = 0.0109091

Courant Number mean: 0.191216 max: 0.943612
DILUPBiCGStab:  Solving for Ux, Initial residual = 0.000387058, Final residual = 7.10689e-07, No Iterations 5
DILUPBiCGStab:  Solving for Uy, Initial residual = 0.000967984, Final residual = 1.84175e-06, No Iterations 5
DILUPBiCGStab:  Solving for Uz, Initial residual = 0.0557841, Final residual = 0.000109428, No Iterations 5
linear solve U 148885
[OGL LOG] init_preconditioner : 0 ms
[OGL LOG] solve : 164 ms
BJcudaGKOBiCGStab:  Solving for p, Initial residual = 0.12736, Final residual = 6.81154e-07, No Iterations 230
linear solve p 170338
time step continuity errors : sum local = 4.28179e-07, global = -1.85048e-20, cumulative = 2.69805e-20
[OGL LOG] init_preconditioner : 0 ms
[OGL LOG] solve : 161 ms
BJcudaGKOBiCGStab:  Solving for p, Initial residual = 0.100781, Final residual = 5.17351e-07, No Iterations 227
linear solve p 166337
time step continuity errors : sum local = 4.65675e-07, global = 7.65815e-20, cumulative = 1.03562e-19
ExecutionTime = 6.7 s  ClockTime = 7 s

Time = 0.0127273

Courant Number mean: 0.191209 max: 0.943565
DILUPBiCGStab:  Solving for Ux, Initial residual = 0.000237329, Final residual = 3.96202e-07, No Iterations 5
DILUPBiCGStab:  Solving for Uy, Initial residual = 0.000579468, Final residual = 9.65671e-07, No Iterations 5
DILUPBiCGStab:  Solving for Uz, Initial residual = 0.0391731, Final residual = 4.03655e-05, No Iterations 5
linear solve U 149594
[OGL LOG] init_preconditioner : 0 ms
[OGL LOG] solve : 90 ms
BJcudaGKOBiCGStab:  Solving for p, Initial residual = 0.0927165, Final residual = 9.58471e-07, No Iterations 126
linear solve p 95555
time step continuity errors : sum local = 3.77755e-07, global = -1.09953e-20, cumulative = 9.25667e-20
[OGL LOG] init_preconditioner : 0 ms
[OGL LOG] solve : 85 ms
BJcudaGKOBiCGStab:  Solving for p, Initial residual = 0.0733662, Final residual = 9.18109e-07, No Iterations 119
linear solve p 90397
time step continuity errors : sum local = 3.76953e-07, global = -1.55978e-20, cumulative = 7.69689e-20
ExecutionTime = 7.13 s  ClockTime = 7 s

Time = 0.0145455

Courant Number mean: 0.191205 max: 0.94359
DILUPBiCGStab:  Solving for Ux, Initial residual = 0.00015857, Final residual = 2.88318e-07, No Iterations 5
DILUPBiCGStab:  Solving for Uy, Initial residual = 0.000386257, Final residual = 6.23942e-07, No Iterations 5
DILUPBiCGStab:  Solving for Uz, Initial residual = 0.0285799, Final residual = 1.89593e-05, No Iterations 5
linear solve U 148944
[OGL LOG] init_preconditioner : 0 ms
[OGL LOG] solve : 91 ms
BJcudaGKOBiCGStab:  Solving for p, Initial residual = 0.067926, Final residual = 9.87557e-07, No Iterations 127
linear solve p 96111
time step continuity errors : sum local = 3.64297e-07, global = 2.39215e-21, cumulative = 7.93611e-20
[OGL LOG] init_preconditioner : 0 ms
[OGL LOG] solve : 81 ms
BJcudaGKOBiCGStab:  Solving for p, Initial residual = 0.0540781, Final residual = 9.70378e-07, No Iterations 113
linear solve p 86309
time step continuity errors : sum local = 3.64124e-07, global = 6.02798e-21, cumulative = 8.53891e-20
ExecutionTime = 7.56 s  ClockTime = 7 s

Time = 0.0163636

Courant Number mean: 0.191203 max: 0.943564
DILUPBiCGStab:  Solving for Ux, Initial residual = 0.000107504, Final residual = 1.90963e-07, No Iterations 5
DILUPBiCGStab:  Solving for Uy, Initial residual = 0.000256026, Final residual = 3.78407e-07, No Iterations 5
DILUPBiCGStab:  Solving for Uz, Initial residual = 0.0208758, Final residual = 9.11705e-06, No Iterations 5
linear solve U 149646
[OGL LOG] init_preconditioner : 0 ms
[OGL LOG] solve : 149 ms
BJcudaGKOBiCGStab:  Solving for p, Initial residual = 0.0499657, Final residual = 8.71825e-07, No Iterations 213
linear solve p 154784
time step continuity errors : sum local = 3.64127e-07, global = 1.67028e-20, cumulative = 1.02092e-19
[OGL LOG] init_preconditioner : 0 ms
[OGL LOG] solve : 148 ms
BJcudaGKOBiCGStab:  Solving for p, Initial residual = 0.0399084, Final residual = 9.74764e-07, No Iterations 209
linear solve p 153454
time step continuity errors : sum local = 3.63985e-07, global = -3.33237e-20, cumulative = 6.87681e-20
ExecutionTime = 8.1 s  ClockTime = 8 s

Time = 0.0181818

Courant Number mean: 0.191202 max: 0.943576
DILUPBiCGStab:  Solving for Ux, Initial residual = 7.56396e-05, Final residual = 1.41845e-07, No Iterations 5
DILUPBiCGStab:  Solving for Uy, Initial residual = 0.000178538, Final residual = 2.58762e-07, No Iterations 5
DILUPBiCGStab:  Solving for Uz, Initial residual = 0.0153563, Final residual = 5.16628e-06, No Iterations 5
linear solve U 148977
[OGL LOG] init_preconditioner : 0 ms
[OGL LOG] solve : 83 ms
BJcudaGKOBiCGStab:  Solving for p, Initial residual = 0.0368855, Final residual = 5.53462e-07, No Iterations 115
linear solve p 88185
time step continuity errors : sum local = 3.69062e-07, global = 1.01433e-21, cumulative = 6.97824e-20
[OGL LOG] init_preconditioner : 0 ms
[OGL LOG] solve : 91 ms
BJcudaGKOBiCGStab:  Solving for p, Initial residual = 0.0294927, Final residual = 9.20658e-07, No Iterations 127
linear solve p 96012
time step continuity errors : sum local = 3.66392e-07, global = -1.20863e-20, cumulative = 5.76961e-20
ExecutionTime = 8.53 s  ClockTime = 8 s

End

