/*---------------------------------------------------------------------------*\
  =========                 |
  \\      /  F ield         | OpenFOAM: The Open Source CFD Toolbox
   \\    /   O peration     | Website:  https://openfoam.org
    \\  /    A nd           | Version:  8
     \\/     M anipulation  |
\*---------------------------------------------------------------------------*/
Build  : 8-ef60d22ea792
Exec   : icoFoam
Date   : Sep 11 2021
Time   : 14:23:02
Host   : "uc2n513.localdomain"
PID    : 227018
I/O    : uncollated
Case   : /pfs/data5/home/kit/scc/nq7776/data/code/OBR/lidDrivenCavity3D/Variation_init/100/Variation_mesh/80/Variation_matrix_solver/CG_BJ_CUDA/1631362962
nProcs : 1
sigFpe : Enabling floating point exception trapping (FOAM_SIGFPE).
fileModificationChecking : Monitoring run-time modified files using timeStampMaster (fileModificationSkew 10)
allowSystemOperations : Allowing user-supplied system call operations

// * * * * * * * * * * * * * * * * * * * * * * * * * * * * * * * * * * * * * //
Create time

Create mesh for time = 0

Reading transportProperties

Reading field p

Reading field U

Reading/calculating face flux field phi


Starting time loop

Time = 0.00125

Courant Number mean: 0.191396 max: 0.961531
DILUPBiCGStab:  Solving for Ux, Initial residual = 0.0903312, Final residual = 1.56905e-05, No Iterations 5
DILUPBiCGStab:  Solving for Uy, Initial residual = 0.170741, Final residual = 4.42871e-05, No Iterations 5
DILUPBiCGStab:  Solving for Uz, Initial residual = 0.209354, Final residual = 0.0001275, No Iterations 5
linear solve U 540901
[OGL LOG] init_host_sparsity_pattern : 146 ms
[OGL LOG] matrix not stored update host matrix
[OGL LOG] update_host_mtx : 76 ms
[OGL LOG] matrix is not yet sorted, compute sorting idxs
[OGL LOG] compute_sort : 4408 ms
[OGL LOG] matrix is not yet sorted, sorting host matrix
[OGL LOG] sort_host_mtx_sparsity_pattern : 97 ms
[OGL LOG] sort_host_mtx : 59 ms
[OGL LOG] init_preconditioner : 55 ms
[OGL LOG] solve : 446 ms
BJcudaGKOCG:  Solving for p, Initial residual = 0.614031, Final residual = 9.68546e-07, No Iterations 529
linear solve p 6068586
time step continuity errors : sum local = 7.86316e-10, global = -2.33961e-20, cumulative = -2.33961e-20
[OGL LOG] init_preconditioner : 0 ms
[OGL LOG] solve : 438 ms
BJcudaGKOCG:  Solving for p, Initial residual = 0.278622, Final residual = 9.79226e-07, No Iterations 528
linear solve p 454159
time step continuity errors : sum local = 6.33621e-10, global = 3.02381e-20, cumulative = 6.84194e-21
ExecutionTime = 9.56 s  ClockTime = 10 s

Time = 0.0025

Courant Number mean: 0.19147 max: 0.961377
DILUPBiCGStab:  Solving for Ux, Initial residual = 0.00522743, Final residual = 1.34963e-05, No Iterations 5
DILUPBiCGStab:  Solving for Uy, Initial residual = 0.011848, Final residual = 4.13051e-05, No Iterations 5
DILUPBiCGStab:  Solving for Uz, Initial residual = 0.0160839, Final residual = 8.98055e-05, No Iterations 5
linear solve U 502543
[OGL LOG] init_preconditioner : 0 ms
[OGL LOG] solve : 440 ms
BJcudaGKOCG:  Solving for p, Initial residual = 0.280793, Final residual = 9.91825e-07, No Iterations 532
linear solve p 456684
time step continuity errors : sum local = 8.04451e-08, global = -4.77105e-21, cumulative = 2.07088e-21
[OGL LOG] init_preconditioner : 0 ms
[OGL LOG] solve : 497 ms
BJcudaGKOCG:  Solving for p, Initial residual = 0.149925, Final residual = 9.37807e-07, No Iterations 531
linear solve p 514502
time step continuity errors : sum local = 7.6979e-08, global = -6.51952e-21, cumulative = -4.44864e-21
ExecutionTime = 11.34 s  ClockTime = 11 s

Time = 0.00375

Courant Number mean: 0.19147 max: 0.961236
DILUPBiCGStab:  Solving for Ux, Initial residual = 0.00110796, Final residual = 5.95393e-06, No Iterations 5
DILUPBiCGStab:  Solving for Uy, Initial residual = 0.00325803, Final residual = 1.71427e-05, No Iterations 5
DILUPBiCGStab:  Solving for Uz, Initial residual = 0.0057328, Final residual = 4.75679e-05, No Iterations 5
linear solve U 498928
[OGL LOG] init_preconditioner : 0 ms
[OGL LOG] solve : 648 ms
BJcudaGKOCG:  Solving for p, Initial residual = 0.139939, Final residual = 9.57542e-07, No Iterations 528
linear solve p 665531
time step continuity errors : sum local = 7.74218e-08, global = 7.70475e-21, cumulative = 3.25611e-21
[OGL LOG] init_preconditioner : 0 ms
[OGL LOG] solve : 636 ms
BJcudaGKOCG:  Solving for p, Initial residual = 0.0905421, Final residual = 9.54356e-07, No Iterations 526
linear solve p 652410
time step continuity errors : sum local = 7.66741e-08, global = 9.57342e-21, cumulative = 1.28295e-20
ExecutionTime = 13.46 s  ClockTime = 13 s

Time = 0.005

Courant Number mean: 0.191473 max: 0.961205
DILUPBiCGStab:  Solving for Ux, Initial residual = 0.00049371, Final residual = 2.42555e-06, No Iterations 5
DILUPBiCGStab:  Solving for Uy, Initial residual = 0.00163682, Final residual = 9.14988e-06, No Iterations 5
DILUPBiCGStab:  Solving for Uz, Initial residual = 0.00336367, Final residual = 2.52751e-05, No Iterations 5
linear solve U 507089
[OGL LOG] init_preconditioner : 0 ms
[OGL LOG] solve : 632 ms
BJcudaGKOCG:  Solving for p, Initial residual = 0.0901001, Final residual = 9.66921e-07, No Iterations 521
linear solve p 648291
time step continuity errors : sum local = 7.65744e-08, global = -5.36449e-21, cumulative = 7.46504e-21
[OGL LOG] init_preconditioner : 0 ms
[OGL LOG] solve : 633 ms
BJcudaGKOCG:  Solving for p, Initial residual = 0.0667948, Final residual = 9.56245e-07, No Iterations 519
linear solve p 649196
time step continuity errors : sum local = 7.68094e-08, global = -2.82592e-20, cumulative = -2.07941e-20
ExecutionTime = 15.58 s  ClockTime = 16 s

Time = 0.00625

Courant Number mean: 0.191476 max: 0.961192
DILUPBiCGStab:  Solving for Ux, Initial residual = 0.000286411, Final residual = 1.82131e-06, No Iterations 5
DILUPBiCGStab:  Solving for Uy, Initial residual = 0.00102449, Final residual = 5.34983e-06, No Iterations 5
DILUPBiCGStab:  Solving for Uz, Initial residual = 0.00244389, Final residual = 1.96243e-05, No Iterations 5
linear solve U 499465
[OGL LOG] init_preconditioner : 0 ms
[OGL LOG] solve : 620 ms
BJcudaGKOCG:  Solving for p, Initial residual = 0.0650538, Final residual = 9.66707e-07, No Iterations 516
linear solve p 636780
time step continuity errors : sum local = 7.69805e-08, global = 1.08344e-20, cumulative = -9.9597e-21
[OGL LOG] init_preconditioner : 0 ms
[OGL LOG] solve : 626 ms
BJcudaGKOCG:  Solving for p, Initial residual = 0.050389, Final residual = 9.56061e-07, No Iterations 515
linear solve p 643060
time step continuity errors : sum local = 7.67306e-08, global = 3.81157e-21, cumulative = -6.14813e-21
ExecutionTime = 17.66 s  ClockTime = 18 s

Time = 0.0075

Courant Number mean: 0.191483 max: 0.96121
DILUPBiCGStab:  Solving for Ux, Initial residual = 0.000201137, Final residual = 1.22902e-06, No Iterations 5
DILUPBiCGStab:  Solving for Uy, Initial residual = 0.000728394, Final residual = 2.99203e-06, No Iterations 5
DILUPBiCGStab:  Solving for Uz, Initial residual = 0.00170452, Final residual = 1.17517e-05, No Iterations 5
linear solve U 499385
[OGL LOG] init_preconditioner : 0 ms
[OGL LOG] solve : 626 ms
BJcudaGKOCG:  Solving for p, Initial residual = 0.0505951, Final residual = 9.74116e-07, No Iterations 509
linear solve p 642870
time step continuity errors : sum local = 7.67157e-08, global = 2.90274e-21, cumulative = -3.24539e-21
[OGL LOG] init_preconditioner : 0 ms
[OGL LOG] solve : 619 ms
BJcudaGKOCG:  Solving for p, Initial residual = 0.040324, Final residual = 9.43726e-07, No Iterations 508
linear solve p 635409
time step continuity errors : sum local = 7.67705e-08, global = -2.9239e-20, cumulative = -3.24844e-20
ExecutionTime = 19.74 s  ClockTime = 20 s

Time = 0.00875

Courant Number mean: 0.191486 max: 0.961199
DILUPBiCGStab:  Solving for Ux, Initial residual = 0.000149364, Final residual = 8.31169e-07, No Iterations 5
DILUPBiCGStab:  Solving for Uy, Initial residual = 0.000560337, Final residual = 2.91503e-06, No Iterations 5
DILUPBiCGStab:  Solving for Uz, Initial residual = 0.00131887, Final residual = 1.00477e-05, No Iterations 5
linear solve U 498013
[OGL LOG] init_preconditioner : 0 ms
[OGL LOG] solve : 607 ms
BJcudaGKOCG:  Solving for p, Initial residual = 0.0400488, Final residual = 9.86285e-07, No Iterations 498
linear solve p 625086
time step continuity errors : sum local = 7.68043e-08, global = -5.57059e-21, cumulative = -3.8055e-20
[OGL LOG] init_preconditioner : 0 ms
[OGL LOG] solve : 598 ms
BJcudaGKOCG:  Solving for p, Initial residual = 0.0321744, Final residual = 9.57821e-07, No Iterations 497
linear solve p 615375
time step continuity errors : sum local = 7.67471e-08, global = -2.12928e-21, cumulative = -4.01843e-20
ExecutionTime = 21.8 s  ClockTime = 22 s

Time = 0.01

Courant Number mean: 0.191493 max: 0.961207
DILUPBiCGStab:  Solving for Ux, Initial residual = 0.000118779, Final residual = 8.13486e-07, No Iterations 5
DILUPBiCGStab:  Solving for Uy, Initial residual = 0.000428059, Final residual = 1.69412e-06, No Iterations 5
DILUPBiCGStab:  Solving for Uz, Initial residual = 0.000956019, Final residual = 6.07089e-06, No Iterations 5
linear solve U 498107
[OGL LOG] init_preconditioner : 0 ms
[OGL LOG] solve : 590 ms
BJcudaGKOCG:  Solving for p, Initial residual = 0.0323052, Final residual = 9.78495e-07, No Iterations 484
linear solve p 606906
time step continuity errors : sum local = 7.67736e-08, global = -1.37593e-20, cumulative = -5.39436e-20
[OGL LOG] init_preconditioner : 0 ms
[OGL LOG] solve : 583 ms
BJcudaGKOCG:  Solving for p, Initial residual = 0.0261701, Final residual = 9.84014e-07, No Iterations 480
linear solve p 600233
time step continuity errors : sum local = 7.677e-08, global = -8.88227e-21, cumulative = -6.28259e-20
ExecutionTime = 23.8 s  ClockTime = 24 s

Time = 0.01125

Courant Number mean: 0.191496 max: 0.961203
DILUPBiCGStab:  Solving for Ux, Initial residual = 9.23934e-05, Final residual = 5.4444e-07, No Iterations 5
DILUPBiCGStab:  Solving for Uy, Initial residual = 0.000347682, Final residual = 1.97948e-06, No Iterations 5
DILUPBiCGStab:  Solving for Uz, Initial residual = 0.000752233, Final residual = 5.50112e-06, No Iterations 5
linear solve U 498592
[OGL LOG] init_preconditioner : 0 ms
[OGL LOG] solve : 555 ms
BJcudaGKOCG:  Solving for p, Initial residual = 0.026176, Final residual = 9.62109e-07, No Iterations 453
linear solve p 570808
time step continuity errors : sum local = 7.67438e-08, global = -2.60109e-20, cumulative = -8.88368e-20
[OGL LOG] init_preconditioner : 0 ms
[OGL LOG] solve : 550 ms
BJcudaGKOCG:  Solving for p, Initial residual = 0.0212465, Final residual = 9.7097e-07, No Iterations 451
linear solve p 566519
time step continuity errors : sum local = 7.67542e-08, global = -4.48213e-20, cumulative = -1.33658e-19
ExecutionTime = 25.74 s  ClockTime = 26 s

Time = 0.0125

Courant Number mean: 0.191501 max: 0.961206
DILUPBiCGStab:  Solving for Ux, Initial residual = 7.52652e-05, Final residual = 5.27818e-07, No Iterations 5
DILUPBiCGStab:  Solving for Uy, Initial residual = 0.000273779, Final residual = 1.26368e-06, No Iterations 5
DILUPBiCGStab:  Solving for Uz, Initial residual = 0.000568286, Final residual = 3.47042e-06, No Iterations 5
linear solve U 497981
[OGL LOG] init_preconditioner : 0 ms
[OGL LOG] solve : 583 ms
BJcudaGKOCG:  Solving for p, Initial residual = 0.0213467, Final residual = 9.33019e-07, No Iterations 479
linear solve p 600715
time step continuity errors : sum local = 7.67701e-08, global = -2.42277e-20, cumulative = -1.57886e-19
[OGL LOG] init_preconditioner : 0 ms
[OGL LOG] solve : 585 ms
BJcudaGKOCG:  Solving for p, Initial residual = 0.0173892, Final residual = 9.44668e-07, No Iterations 478
linear solve p 601313
time step continuity errors : sum local = 7.67538e-08, global = -1.79138e-20, cumulative = -1.758e-19
ExecutionTime = 27.76 s  ClockTime = 28 s

End

