/*---------------------------------------------------------------------------*\
  =========                 |
  \\      /  F ield         | OpenFOAM: The Open Source CFD Toolbox
   \\    /   O peration     | Website:  https://openfoam.org
    \\  /    A nd           | Version:  8
     \\/     M anipulation  |
\*---------------------------------------------------------------------------*/
Build  : 8-ef60d22ea792
Exec   : icoFoam
Date   : Sep 11 2021
Time   : 14:58:27
Host   : "uc2n442.localdomain"
PID    : 3725345
I/O    : uncollated
Case   : /pfs/data5/home/kit/scc/nq7776/data/code/OBR/lidDrivenCavity3D/Variation_init/100/Variation_mesh/60/Variation_matrix_solver/CG_NoPrecond_Serial/1631365099
nProcs : 1
sigFpe : Enabling floating point exception trapping (FOAM_SIGFPE).
fileModificationChecking : Monitoring run-time modified files using timeStampMaster (fileModificationSkew 10)
allowSystemOperations : Allowing user-supplied system call operations

// * * * * * * * * * * * * * * * * * * * * * * * * * * * * * * * * * * * * * //
Create time

Create mesh for time = 0

Reading transportProperties

Reading field p

Reading field U

Reading/calculating face flux field phi


Starting time loop

Time = 0.00166667

Courant Number mean: 0.191334 max: 0.95794
DILUPBiCGStab:  Solving for Ux, Initial residual = 0.0784069, Final residual = 7.98028e-06, No Iterations 5
DILUPBiCGStab:  Solving for Uy, Initial residual = 0.151717, Final residual = 1.9553e-05, No Iterations 5
DILUPBiCGStab:  Solving for Uz, Initial residual = 0.170934, Final residual = 5.87202e-05, No Iterations 5
linear solve U 206280
nonePCG:  Solving for p, Initial residual = 0.575692, Final residual = 9.73603e-07, No Iterations 491
linear solve p 1197694
time step continuity errors : sum local = 1.25192e-09, global = -4.81393e-20, cumulative = -4.81393e-20
nonePCG:  Solving for p, Initial residual = 0.295463, Final residual = 9.55892e-07, No Iterations 492
linear solve p 1204345
time step continuity errors : sum local = 7.74386e-10, global = -4.65704e-20, cumulative = -9.47097e-20
ExecutionTime = 3.7 s  ClockTime = 4 s

Time = 0.00333333

Courant Number mean: 0.191279 max: 0.948742
DILUPBiCGStab:  Solving for Ux, Initial residual = 0.00518961, Final residual = 4.53456e-06, No Iterations 5
DILUPBiCGStab:  Solving for Uy, Initial residual = 0.0106552, Final residual = 7.70426e-06, No Iterations 5
DILUPBiCGStab:  Solving for Uz, Initial residual = 0.0155439, Final residual = 4.40748e-05, No Iterations 5
linear solve U 189499
nonePCG:  Solving for p, Initial residual = 0.146154, Final residual = 9.78581e-07, No Iterations 481
linear solve p 1177679
time step continuity errors : sum local = 7.92241e-10, global = 3.03259e-20, cumulative = -6.43838e-20
nonePCG:  Solving for p, Initial residual = 0.0786005, Final residual = 9.47564e-07, No Iterations 479
linear solve p 1171667
time step continuity errors : sum local = 7.58396e-10, global = 6.86657e-21, cumulative = -5.75173e-20
ExecutionTime = 6.35 s  ClockTime = 6 s

Time = 0.005

Courant Number mean: 0.191277 max: 0.948279
DILUPBiCGStab:  Solving for Ux, Initial residual = 0.000612485, Final residual = 1.84425e-06, No Iterations 5
DILUPBiCGStab:  Solving for Uy, Initial residual = 0.00141223, Final residual = 3.73742e-06, No Iterations 5
DILUPBiCGStab:  Solving for Uz, Initial residual = 0.00368139, Final residual = 1.37664e-05, No Iterations 5
linear solve U 186520
nonePCG:  Solving for p, Initial residual = 0.0578477, Final residual = 9.5825e-07, No Iterations 462
linear solve p 1134892
time step continuity errors : sum local = 7.56487e-10, global = 7.15238e-21, cumulative = -5.03649e-20
nonePCG:  Solving for p, Initial residual = 0.0407993, Final residual = 9.09886e-07, No Iterations 460
linear solve p 1124546
time step continuity errors : sum local = 7.18628e-10, global = 8.06883e-21, cumulative = -4.22961e-20
ExecutionTime = 8.9 s  ClockTime = 9 s

Time = 0.00666667

Courant Number mean: 0.191272 max: 0.948309
DILUPBiCGStab:  Solving for Ux, Initial residual = 0.000276771, Final residual = 8.17398e-07, No Iterations 5
DILUPBiCGStab:  Solving for Uy, Initial residual = 0.00072448, Final residual = 1.5466e-06, No Iterations 5
DILUPBiCGStab:  Solving for Uz, Initial residual = 0.00213014, Final residual = 6.08702e-06, No Iterations 5
linear solve U 187310
nonePCG:  Solving for p, Initial residual = 0.0370797, Final residual = 9.69371e-07, No Iterations 455
linear solve p 1111294
time step continuity errors : sum local = 7.54432e-10, global = 6.63463e-20, cumulative = 2.40503e-20
nonePCG:  Solving for p, Initial residual = 0.0275088, Final residual = 9.41632e-07, No Iterations 450
linear solve p 1097321
time step continuity errors : sum local = 7.31096e-10, global = -1.3637e-21, cumulative = 2.26866e-20
ExecutionTime = 11.4 s  ClockTime = 11 s

Time = 0.00833333

Courant Number mean: 0.191272 max: 0.948269
DILUPBiCGStab:  Solving for Ux, Initial residual = 0.000164936, Final residual = 5.37753e-07, No Iterations 5
DILUPBiCGStab:  Solving for Uy, Initial residual = 0.00045597, Final residual = 1.06015e-06, No Iterations 5
DILUPBiCGStab:  Solving for Uz, Initial residual = 0.00120507, Final residual = 3.80336e-06, No Iterations 5
linear solve U 187810
nonePCG:  Solving for p, Initial residual = 0.0256058, Final residual = 9.59833e-07, No Iterations 444
linear solve p 1085676
time step continuity errors : sum local = 7.47109e-10, global = -6.49936e-21, cumulative = 1.61872e-20
nonePCG:  Solving for p, Initial residual = 0.0193288, Final residual = 9.67153e-07, No Iterations 442
linear solve p 1079502
time step continuity errors : sum local = 7.53924e-10, global = -4.1797e-21, cumulative = 1.20075e-20
ExecutionTime = 13.87 s  ClockTime = 14 s

Time = 0.01

Courant Number mean: 0.191274 max: 0.948301
DILUPBiCGStab:  Solving for Ux, Initial residual = 0.00011603, Final residual = 3.15479e-07, No Iterations 5
DILUPBiCGStab:  Solving for Uy, Initial residual = 0.000325679, Final residual = 7.0128e-07, No Iterations 5
DILUPBiCGStab:  Solving for Uz, Initial residual = 0.000785349, Final residual = 2.08362e-06, No Iterations 5
linear solve U 187040
nonePCG:  Solving for p, Initial residual = 0.0183679, Final residual = 9.9953e-07, No Iterations 411
linear solve p 1003511
time step continuity errors : sum local = 7.75527e-10, global = 5.16749e-20, cumulative = 6.36824e-20
nonePCG:  Solving for p, Initial residual = 0.0140932, Final residual = 9.72379e-07, No Iterations 409
linear solve p 1005346
time step continuity errors : sum local = 7.53566e-10, global = -3.20609e-20, cumulative = 3.16216e-20
ExecutionTime = 16.17 s  ClockTime = 16 s

Time = 0.0116667

Courant Number mean: 0.191275 max: 0.948277
DILUPBiCGStab:  Solving for Ux, Initial residual = 8.07435e-05, Final residual = 1.87756e-07, No Iterations 5
DILUPBiCGStab:  Solving for Uy, Initial residual = 0.000231126, Final residual = 4.34571e-07, No Iterations 5
DILUPBiCGStab:  Solving for Uz, Initial residual = 0.000524522, Final residual = 1.41393e-06, No Iterations 5
linear solve U 186411
nonePCG:  Solving for p, Initial residual = 0.0133589, Final residual = 9.02727e-07, No Iterations 406
linear solve p 992849
time step continuity errors : sum local = 7.00289e-10, global = -6.00571e-21, cumulative = 2.56159e-20
nonePCG:  Solving for p, Initial residual = 0.010325, Final residual = 9.84814e-07, No Iterations 403
linear solve p 986850
time step continuity errors : sum local = 7.64496e-10, global = 3.58919e-20, cumulative = 6.15078e-20
ExecutionTime = 18.44 s  ClockTime = 19 s

Time = 0.0133333

Courant Number mean: 0.191278 max: 0.948293
DILUPBiCGStab:  Solving for Ux, Initial residual = 6.06253e-05, Final residual = 1.13644e-07, No Iterations 5
DILUPBiCGStab:  Solving for Uy, Initial residual = 0.000170495, Final residual = 2.44612e-07, No Iterations 5
DILUPBiCGStab:  Solving for Uz, Initial residual = 0.000365074, Final residual = 9.34758e-07, No Iterations 5
linear solve U 188317
nonePCG:  Solving for p, Initial residual = 0.00984384, Final residual = 9.52822e-07, No Iterations 427
linear solve p 1042085
time step continuity errors : sum local = 7.3797e-10, global = 5.89531e-21, cumulative = 6.74031e-20
nonePCG:  Solving for p, Initial residual = 0.00765628, Final residual = 9.85765e-07, No Iterations 425
linear solve p 1035851
time step continuity errors : sum local = 7.63177e-10, global = 1.70711e-20, cumulative = 8.44741e-20
ExecutionTime = 20.81 s  ClockTime = 21 s

Time = 0.015

Courant Number mean: 0.19128 max: 0.94828
DILUPBiCGStab:  Solving for Ux, Initial residual = 4.43223e-05, Final residual = 6.9052e-08, No Iterations 5
DILUPBiCGStab:  Solving for Uy, Initial residual = 0.000127662, Final residual = 1.58465e-07, No Iterations 5
DILUPBiCGStab:  Solving for Uz, Initial residual = 0.000265593, Final residual = 6.18231e-07, No Iterations 5
linear solve U 187428
nonePCG:  Solving for p, Initial residual = 0.00729335, Final residual = 9.58544e-07, No Iterations 395
linear solve p 968662
time step continuity errors : sum local = 7.42822e-10, global = 2.12873e-20, cumulative = 1.05761e-19
nonePCG:  Solving for p, Initial residual = 0.00569341, Final residual = 9.39817e-07, No Iterations 393
linear solve p 962664
time step continuity errors : sum local = 7.28445e-10, global = 1.41857e-21, cumulative = 1.0718e-19
ExecutionTime = 23.04 s  ClockTime = 23 s

Time = 0.0166667

Courant Number mean: 0.191283 max: 0.948289
DILUPBiCGStab:  Solving for Ux, Initial residual = 3.41727e-05, Final residual = 4.116e-08, No Iterations 5
DILUPBiCGStab:  Solving for Uy, Initial residual = 9.57777e-05, Final residual = 1.01545e-07, No Iterations 5
DILUPBiCGStab:  Solving for Uz, Initial residual = 0.000192637, Final residual = 4.61772e-07, No Iterations 5
linear solve U 186305
nonePCG:  Solving for p, Initial residual = 0.00543477, Final residual = 9.35002e-07, No Iterations 190
linear solve p 467829
time step continuity errors : sum local = 8.29637e-10, global = 1.88574e-20, cumulative = 1.26037e-19
nonePCG:  Solving for p, Initial residual = 0.00426022, Final residual = 9.53283e-07, No Iterations 186
linear solve p 455208
time step continuity errors : sum local = 7.76912e-10, global = 5.61137e-20, cumulative = 1.82151e-19
ExecutionTime = 24.26 s  ClockTime = 24 s

End

