/*---------------------------------------------------------------------------*\
  =========                 |
  \\      /  F ield         | OpenFOAM: The Open Source CFD Toolbox
   \\    /   O peration     | Website:  https://openfoam.org
    \\  /    A nd           | Version:  8
     \\/     M anipulation  |
\*---------------------------------------------------------------------------*/
Build  : 8-ef60d22ea792
Exec   : icoFoam
Date   : Sep 11 2021
Time   : 13:40:06
Host   : "uc2n513.localdomain"
PID    : 215853
I/O    : uncollated
Case   : /pfs/data5/home/kit/scc/nq7776/data/code/OBR/lidDrivenCavity3D/Variation_init/100/Variation_mesh/90/Variation_matrix_solver/BiCGStab_NoPrecond_CUDA/1631360376
nProcs : 1
sigFpe : Enabling floating point exception trapping (FOAM_SIGFPE).
fileModificationChecking : Monitoring run-time modified files using timeStampMaster (fileModificationSkew 10)
allowSystemOperations : Allowing user-supplied system call operations

// * * * * * * * * * * * * * * * * * * * * * * * * * * * * * * * * * * * * * //
Create time

Create mesh for time = 0

Reading transportProperties

Reading field p

Reading field U

Reading/calculating face flux field phi


Starting time loop

Time = 0.00111111

Courant Number mean: 0.191271 max: 0.964262
DILUPBiCGStab:  Solving for Ux, Initial residual = 0.0815126, Final residual = 3.69664e-05, No Iterations 5
DILUPBiCGStab:  Solving for Uy, Initial residual = 0.160779, Final residual = 9.81773e-05, No Iterations 5
DILUPBiCGStab:  Solving for Uz, Initial residual = 0.229936, Final residual = 0.000233997, No Iterations 5
linear solve U 770000
[OGL LOG] init_host_sparsity_pattern : 207 ms
[OGL LOG] matrix not stored update host matrix
[OGL LOG] update_host_mtx : 107 ms
[OGL LOG] matrix is not yet sorted, compute sorting idxs
[OGL LOG] compute_sort : 6527 ms
[OGL LOG] matrix is not yet sorted, sorting host matrix
[OGL LOG] sort_host_mtx_sparsity_pattern : 140 ms
[OGL LOG] sort_host_mtx : 85 ms
[OGL LOG] init_preconditioner : 0 ms
[OGL LOG] solve : 1109 ms
nonecudaGKOBiCGStab:  Solving for p, Initial residual = 0.624561, Final residual = 7.46964e-07, No Iterations 599
linear solve p 8970541
time step continuity errors : sum local = 3.48889e-05, global = -2.93178e-20, cumulative = -2.93178e-20
[OGL LOG] init_preconditioner : 0 ms
[OGL LOG] solve : 1102 ms
nonecudaGKOBiCGStab:  Solving for p, Initial residual = 0.439637, Final residual = 8.37747e-07, No Iterations 605
linear solve p 1125160
time step continuity errors : sum local = 1.04897e-09, global = -9.36776e-23, cumulative = -2.94115e-20
ExecutionTime = 14.54 s  ClockTime = 15 s

Time = 0.00222222

Courant Number mean: 0.191576 max: 0.966096
DILUPBiCGStab:  Solving for Ux, Initial residual = 0.00592498, Final residual = 4.06789e-05, No Iterations 5
DILUPBiCGStab:  Solving for Uy, Initial residual = 0.015117, Final residual = 0.000101051, No Iterations 5
DILUPBiCGStab:  Solving for Uz, Initial residual = 0.11988, Final residual = 0.00294204, No Iterations 5
linear solve U 717187
[OGL LOG] init_preconditioner : 0 ms
[OGL LOG] solve : 1074 ms
nonecudaGKOBiCGStab:  Solving for p, Initial residual = 0.608086, Final residual = 7.69849e-07, No Iterations 591
linear solve p 1098322
time step continuity errors : sum local = 6.82396e-08, global = -3.03659e-22, cumulative = -2.97151e-20
[OGL LOG] init_preconditioner : 0 ms
[OGL LOG] solve : 1241 ms
nonecudaGKOBiCGStab:  Solving for p, Initial residual = 0.523567, Final residual = 5.02983e-07, No Iterations 672
linear solve p 1264958
time step continuity errors : sum local = 5.61345e-08, global = 2.44661e-20, cumulative = -5.24898e-21
ExecutionTime = 18.06 s  ClockTime = 18 s

Time = 0.00333333

Courant Number mean: 0.191564 max: 0.965847
DILUPBiCGStab:  Solving for Ux, Initial residual = 0.00307518, Final residual = 2.2143e-05, No Iterations 5
DILUPBiCGStab:  Solving for Uy, Initial residual = 0.00878344, Final residual = 5.57464e-05, No Iterations 5
DILUPBiCGStab:  Solving for Uz, Initial residual = 0.130294, Final residual = 0.00173291, No Iterations 5
linear solve U 723610
[OGL LOG] init_preconditioner : 0 ms
[OGL LOG] solve : 1122 ms
nonecudaGKOBiCGStab:  Solving for p, Initial residual = 0.514351, Final residual = 8.15851e-07, No Iterations 605
linear solve p 1144691
time step continuity errors : sum local = 2.53642e-06, global = 2.32128e-20, cumulative = 1.79638e-20
[OGL LOG] init_preconditioner : 0 ms
[OGL LOG] solve : 1285 ms
nonecudaGKOBiCGStab:  Solving for p, Initial residual = 0.423812, Final residual = 8.08768e-07, No Iterations 704
linear solve p 1309757
time step continuity errors : sum local = 1.2818e-06, global = 1.94881e-20, cumulative = 3.74519e-20
ExecutionTime = 21.67 s  ClockTime = 22 s

Time = 0.00444444

Courant Number mean: 0.191518 max: 0.965624
DILUPBiCGStab:  Solving for Ux, Initial residual = 0.00225114, Final residual = 1.03233e-05, No Iterations 5
DILUPBiCGStab:  Solving for Uy, Initial residual = 0.00626863, Final residual = 3.01033e-05, No Iterations 5
DILUPBiCGStab:  Solving for Uz, Initial residual = 0.107366, Final residual = 0.00115895, No Iterations 5
linear solve U 712230
[OGL LOG] init_preconditioner : 0 ms
[OGL LOG] solve : 1083 ms
nonecudaGKOBiCGStab:  Solving for p, Initial residual = 0.470641, Final residual = 8.86357e-07, No Iterations 594
linear solve p 1106919
time step continuity errors : sum local = 7.60215e-07, global = -9.62112e-21, cumulative = 2.78308e-20
[OGL LOG] init_preconditioner : 0 ms
[OGL LOG] solve : 1158 ms
nonecudaGKOBiCGStab:  Solving for p, Initial residual = 0.39444, Final residual = 7.64032e-07, No Iterations 625
linear solve p 1180920
time step continuity errors : sum local = 3.073e-07, global = -1.31701e-20, cumulative = 1.46607e-20
ExecutionTime = 25.1 s  ClockTime = 25 s

Time = 0.00555556

Courant Number mean: 0.191523 max: 0.965544
DILUPBiCGStab:  Solving for Ux, Initial residual = 0.00179416, Final residual = 7.54644e-06, No Iterations 5
DILUPBiCGStab:  Solving for Uy, Initial residual = 0.00480101, Final residual = 1.96047e-05, No Iterations 5
DILUPBiCGStab:  Solving for Uz, Initial residual = 0.0977192, Final residual = 0.00079649, No Iterations 5
linear solve U 712602
[OGL LOG] init_preconditioner : 0 ms
[OGL LOG] solve : 1144 ms
nonecudaGKOBiCGStab:  Solving for p, Initial residual = 0.417197, Final residual = 4.83598e-07, No Iterations 616
linear solve p 1169102
time step continuity errors : sum local = 2.15129e-05, global = -6.8072e-21, cumulative = 7.85353e-21
[OGL LOG] init_preconditioner : 0 ms
[OGL LOG] solve : 1018 ms
nonecudaGKOBiCGStab:  Solving for p, Initial residual = 0.386153, Final residual = 9.7139e-07, No Iterations 561
linear solve p 1040997
time step continuity errors : sum local = 2.38194e-06, global = -2.02408e-20, cumulative = -1.23872e-20
ExecutionTime = 28.47 s  ClockTime = 29 s

Time = 0.00666667

Courant Number mean: 0.191521 max: 0.965558
DILUPBiCGStab:  Solving for Ux, Initial residual = 0.00147188, Final residual = 4.76842e-06, No Iterations 5
DILUPBiCGStab:  Solving for Uy, Initial residual = 0.00382164, Final residual = 1.35605e-05, No Iterations 5
DILUPBiCGStab:  Solving for Uz, Initial residual = 0.0716716, Final residual = 0.0011713, No Iterations 5
linear solve U 721198
[OGL LOG] init_preconditioner : 0 ms
[OGL LOG] solve : 1030 ms
nonecudaGKOBiCGStab:  Solving for p, Initial residual = 0.336704, Final residual = 6.90731e-07, No Iterations 564
linear solve p 1052657
time step continuity errors : sum local = 4.12033e-06, global = -1.28515e-21, cumulative = -1.36724e-20
[OGL LOG] init_preconditioner : 0 ms
[OGL LOG] solve : 1040 ms
nonecudaGKOBiCGStab:  Solving for p, Initial residual = 0.289061, Final residual = 6.39577e-07, No Iterations 561
linear solve p 1062936
time step continuity errors : sum local = 1.47381e-05, global = 2.66471e-21, cumulative = -1.10077e-20
ExecutionTime = 31.73 s  ClockTime = 32 s

Time = 0.00777778

Courant Number mean: 0.19153 max: 0.965579
DILUPBiCGStab:  Solving for Ux, Initial residual = 0.00119269, Final residual = 4.571e-06, No Iterations 5
DILUPBiCGStab:  Solving for Uy, Initial residual = 0.00304057, Final residual = 1.33673e-05, No Iterations 5
DILUPBiCGStab:  Solving for Uz, Initial residual = 0.0950602, Final residual = 0.00207389, No Iterations 5
linear solve U 709741
[OGL LOG] init_preconditioner : 0 ms
[OGL LOG] solve : 999 ms
nonecudaGKOBiCGStab:  Solving for p, Initial residual = 0.417373, Final residual = 5.58053e-07, No Iterations 548
linear solve p 1023297
time step continuity errors : sum local = 1.60125e-05, global = 2.87787e-20, cumulative = 1.7771e-20
[OGL LOG] init_preconditioner : 0 ms
[OGL LOG] solve : 950 ms
nonecudaGKOBiCGStab:  Solving for p, Initial residual = 0.342697, Final residual = 7.10975e-07, No Iterations 521
linear solve p 974085
time step continuity errors : sum local = 2.33192e-05, global = -9.21954e-20, cumulative = -7.44244e-20
ExecutionTime = 34.87 s  ClockTime = 35 s

Time = 0.00888889

Courant Number mean: 0.191537 max: 0.96551
DILUPBiCGStab:  Solving for Ux, Initial residual = 0.00105345, Final residual = 4.41223e-06, No Iterations 5
DILUPBiCGStab:  Solving for Uy, Initial residual = 0.00270245, Final residual = 1.25403e-05, No Iterations 5
DILUPBiCGStab:  Solving for Uz, Initial residual = 0.062221, Final residual = 0.000605604, No Iterations 5
linear solve U 713188
[OGL LOG] init_preconditioner : 0 ms
[OGL LOG] solve : 1075 ms
nonecudaGKOBiCGStab:  Solving for p, Initial residual = 0.289398, Final residual = 9.2037e-07, No Iterations 579
linear solve p 1098060
time step continuity errors : sum local = 3.85553e-07, global = 2.99442e-20, cumulative = -4.44802e-20
[OGL LOG] init_preconditioner : 0 ms
[OGL LOG] solve : 920 ms
nonecudaGKOBiCGStab:  Solving for p, Initial residual = 0.213474, Final residual = 9.91447e-07, No Iterations 504
linear solve p 943007
time step continuity errors : sum local = 9.10662e-07, global = 1.88334e-20, cumulative = -2.56468e-20
ExecutionTime = 38.07 s  ClockTime = 38 s

Time = 0.01

Courant Number mean: 0.191537 max: 0.965559
DILUPBiCGStab:  Solving for Ux, Initial residual = 0.000863816, Final residual = 2.30605e-06, No Iterations 5
DILUPBiCGStab:  Solving for Uy, Initial residual = 0.00214307, Final residual = 6.47052e-06, No Iterations 5
DILUPBiCGStab:  Solving for Uz, Initial residual = 0.0352418, Final residual = 0.000289305, No Iterations 5
linear solve U 710164
[OGL LOG] init_preconditioner : 0 ms
[OGL LOG] solve : 967 ms
nonecudaGKOBiCGStab:  Solving for p, Initial residual = 0.212498, Final residual = 8.61281e-07, No Iterations 530
linear solve p 989544
time step continuity errors : sum local = 4.20289e-06, global = 4.80993e-21, cumulative = -2.08369e-20
[OGL LOG] init_preconditioner : 0 ms
[OGL LOG] solve : 1087 ms
nonecudaGKOBiCGStab:  Solving for p, Initial residual = 0.182587, Final residual = 5.45213e-07, No Iterations 587
linear solve p 1109778
time step continuity errors : sum local = 5.54598e-08, global = -1.95835e-21, cumulative = -2.27952e-20
ExecutionTime = 41.3 s  ClockTime = 42 s

Time = 0.0111111

Courant Number mean: 0.191542 max: 0.965528
DILUPBiCGStab:  Solving for Ux, Initial residual = 0.000716753, Final residual = 1.92772e-06, No Iterations 5
DILUPBiCGStab:  Solving for Uy, Initial residual = 0.00174273, Final residual = 4.87543e-06, No Iterations 5
DILUPBiCGStab:  Solving for Uz, Initial residual = 0.0356459, Final residual = 0.000512055, No Iterations 5
linear solve U 714150
[OGL LOG] init_preconditioner : 0 ms
[OGL LOG] solve : 1069 ms
nonecudaGKOBiCGStab:  Solving for p, Initial residual = 0.217871, Final residual = 4.61767e-07, No Iterations 578
linear solve p 1091720
time step continuity errors : sum local = 2.53065e-05, global = -3.48871e-20, cumulative = -5.76824e-20
[OGL LOG] init_preconditioner : 0 ms
[OGL LOG] solve : 996 ms
nonecudaGKOBiCGStab:  Solving for p, Initial residual = 0.248416, Final residual = 7.06261e-07, No Iterations 545
linear solve p 1019587
time step continuity errors : sum local = 4.20792e-06, global = 2.06503e-20, cumulative = -3.70321e-20
ExecutionTime = 44.54 s  ClockTime = 45 s

End

