/*---------------------------------------------------------------------------*\
  =========                 |
  \\      /  F ield         | OpenFOAM: The Open Source CFD Toolbox
   \\    /   O peration     | Website:  https://openfoam.org
    \\  /    A nd           | Version:  8
     \\/     M anipulation  |
\*---------------------------------------------------------------------------*/
Build  : 8-ef60d22ea792
Exec   : icoFoam
Date   : Sep 11 2021
Time   : 14:03:09
Host   : "uc2n513.localdomain"
PID    : 223736
I/O    : uncollated
Case   : /pfs/data5/home/kit/scc/nq7776/data/code/OBR/lidDrivenCavity3D/Variation_init/100/Variation_mesh/95/Variation_matrix_solver/CG_ILU_CUDA/1631361751
nProcs : 1
sigFpe : Enabling floating point exception trapping (FOAM_SIGFPE).
fileModificationChecking : Monitoring run-time modified files using timeStampMaster (fileModificationSkew 10)
allowSystemOperations : Allowing user-supplied system call operations

// * * * * * * * * * * * * * * * * * * * * * * * * * * * * * * * * * * * * * //
Create time

Create mesh for time = 0

Reading transportProperties

Reading field p

Reading field U

Reading/calculating face flux field phi


Starting time loop

Time = 0.00105263

Courant Number mean: 0.191438 max: 0.965363
DILUPBiCGStab:  Solving for Ux, Initial residual = 0.045256, Final residual = 5.87293e-05, No Iterations 5
DILUPBiCGStab:  Solving for Uy, Initial residual = 0.0864075, Final residual = 0.000143638, No Iterations 5
DILUPBiCGStab:  Solving for Uz, Initial residual = 0.119195, Final residual = 0.000245255, No Iterations 5
linear solve U 910973
[OGL LOG] init_host_sparsity_pattern : 243 ms
[OGL LOG] matrix not stored update host matrix
[OGL LOG] update_host_mtx : 127 ms
[OGL LOG] matrix is not yet sorted, compute sorting idxs
[OGL LOG] compute_sort : 7663 ms
[OGL LOG] matrix is not yet sorted, sorting host matrix
[OGL LOG] sort_host_mtx_sparsity_pattern : 163 ms
[OGL LOG] sort_host_mtx : 100 ms
[OGL LOG] init_preconditioner : 297 ms
[OGL LOG] solve : 1739 ms
ILUcudaGKOCG:  Solving for p, Initial residual = 0.553351, Final residual = 8.69363e-07, No Iterations 251
linear solve p 11135612
time step continuity errors : sum local = 5.20206e-10, global = 7.13846e-21, cumulative = 7.13846e-21
[OGL LOG] init_preconditioner : 0 ms
[OGL LOG] solve : 1735 ms
ILUcudaGKOCG:  Solving for p, Initial residual = 0.406397, Final residual = 9.22311e-07, No Iterations 250
linear solve p 1762897
time step continuity errors : sum local = 5.45915e-10, global = 1.72318e-20, cumulative = 2.43703e-20
ExecutionTime = 18.19 s  ClockTime = 18 s

Time = 0.00210526

Courant Number mean: 0.19198 max: 0.967664
DILUPBiCGStab:  Solving for Ux, Initial residual = 0.00523041, Final residual = 7.39267e-05, No Iterations 5
DILUPBiCGStab:  Solving for Uy, Initial residual = 0.0137415, Final residual = 0.000156344, No Iterations 5
DILUPBiCGStab:  Solving for Uz, Initial residual = 0.0306206, Final residual = 0.000346431, No Iterations 5
linear solve U 861162
[OGL LOG] init_preconditioner : 0 ms
[OGL LOG] solve : 1746 ms
ILUcudaGKOCG:  Solving for p, Initial residual = 0.506271, Final residual = 9.90029e-07, No Iterations 252
linear solve p 1773397
time step continuity errors : sum local = 4.68849e-08, global = -1.55559e-20, cumulative = 8.81444e-21
[OGL LOG] init_preconditioner : 0 ms
[OGL LOG] solve : 1746 ms
ILUcudaGKOCG:  Solving for p, Initial residual = 0.465369, Final residual = 9.0198e-07, No Iterations 252
linear solve p 1772530
time step continuity errors : sum local = 4.01841e-08, global = 5.44975e-21, cumulative = 1.42642e-20
ExecutionTime = 23.12 s  ClockTime = 23 s

Time = 0.00315789

Courant Number mean: 0.191927 max: 0.968176
DILUPBiCGStab:  Solving for Ux, Initial residual = 0.00334648, Final residual = 4.80114e-05, No Iterations 5
DILUPBiCGStab:  Solving for Uy, Initial residual = 0.00964345, Final residual = 0.000103263, No Iterations 5
DILUPBiCGStab:  Solving for Uz, Initial residual = 0.0265546, Final residual = 0.000316528, No Iterations 5
linear solve U 844251
[OGL LOG] init_preconditioner : 0 ms
[OGL LOG] solve : 1748 ms
ILUcudaGKOCG:  Solving for p, Initial residual = 0.411414, Final residual = 9.59014e-07, No Iterations 252
linear solve p 1777103
time step continuity errors : sum local = 4.31133e-08, global = 1.64821e-21, cumulative = 1.59124e-20
[OGL LOG] init_preconditioner : 0 ms
[OGL LOG] solve : 1738 ms
ILUcudaGKOCG:  Solving for p, Initial residual = 0.362315, Final residual = 9.88439e-07, No Iterations 251
linear solve p 1764604
time step continuity errors : sum local = 3.98318e-08, global = -4.85099e-21, cumulative = 1.10614e-20
ExecutionTime = 28.03 s  ClockTime = 28 s

Time = 0.00421053

Courant Number mean: 0.191778 max: 0.967735
DILUPBiCGStab:  Solving for Ux, Initial residual = 0.00216246, Final residual = 2.09545e-05, No Iterations 5
DILUPBiCGStab:  Solving for Uy, Initial residual = 0.0063909, Final residual = 4.95205e-05, No Iterations 5
DILUPBiCGStab:  Solving for Uz, Initial residual = 0.0215609, Final residual = 0.000246824, No Iterations 5
linear solve U 846711
[OGL LOG] init_preconditioner : 0 ms
[OGL LOG] solve : 1747 ms
ILUcudaGKOCG:  Solving for p, Initial residual = 0.353499, Final residual = 9.27755e-07, No Iterations 252
linear solve p 1776398
time step continuity errors : sum local = 4.13226e-08, global = 2.38801e-20, cumulative = 3.49415e-20
[OGL LOG] init_preconditioner : 0 ms
[OGL LOG] solve : 1740 ms
ILUcudaGKOCG:  Solving for p, Initial residual = 0.308721, Final residual = 9.85484e-07, No Iterations 251
linear solve p 1767911
time step continuity errors : sum local = 4.00406e-08, global = 8.95099e-21, cumulative = 4.38924e-20
ExecutionTime = 32.93 s  ClockTime = 33 s

Time = 0.00526316

Courant Number mean: 0.191744 max: 0.967373
DILUPBiCGStab:  Solving for Ux, Initial residual = 0.0015536, Final residual = 1.48603e-05, No Iterations 5
DILUPBiCGStab:  Solving for Uy, Initial residual = 0.00470537, Final residual = 3.22539e-05, No Iterations 5
DILUPBiCGStab:  Solving for Uz, Initial residual = 0.019368, Final residual = 0.000209668, No Iterations 5
linear solve U 843387
[OGL LOG] init_preconditioner : 0 ms
[OGL LOG] solve : 1734 ms
ILUcudaGKOCG:  Solving for p, Initial residual = 0.298707, Final residual = 9.52128e-07, No Iterations 250
linear solve p 1760081
time step continuity errors : sum local = 4.0442e-08, global = -2.54209e-20, cumulative = 1.84716e-20
[OGL LOG] init_preconditioner : 0 ms
[OGL LOG] solve : 1726 ms
ILUcudaGKOCG:  Solving for p, Initial residual = 0.254885, Final residual = 9.60257e-07, No Iterations 249
linear solve p 1755146
time step continuity errors : sum local = 3.98188e-08, global = -2.10191e-20, cumulative = -2.54757e-21
ExecutionTime = 37.81 s  ClockTime = 38 s

Time = 0.00631579

Courant Number mean: 0.191698 max: 0.967609
DILUPBiCGStab:  Solving for Ux, Initial residual = 0.00118713, Final residual = 6.9238e-06, No Iterations 5
DILUPBiCGStab:  Solving for Uy, Initial residual = 0.0036263, Final residual = 1.71271e-05, No Iterations 5
DILUPBiCGStab:  Solving for Uz, Initial residual = 0.0158073, Final residual = 0.000158351, No Iterations 5
linear solve U 844866
[OGL LOG] init_preconditioner : 0 ms
[OGL LOG] solve : 1720 ms
ILUcudaGKOCG:  Solving for p, Initial residual = 0.262489, Final residual = 9.63041e-07, No Iterations 248
linear solve p 1746759
time step continuity errors : sum local = 4.05589e-08, global = 6.76163e-21, cumulative = 4.21406e-21
[OGL LOG] init_preconditioner : 0 ms
[OGL LOG] solve : 1721 ms
ILUcudaGKOCG:  Solving for p, Initial residual = 0.2235, Final residual = 8.76605e-07, No Iterations 248
linear solve p 1748516
time step continuity errors : sum local = 3.99233e-08, global = -5.12202e-21, cumulative = -9.07959e-22
ExecutionTime = 42.65 s  ClockTime = 43 s

Time = 0.00736842

Courant Number mean: 0.191678 max: 0.967284
DILUPBiCGStab:  Solving for Ux, Initial residual = 0.000948518, Final residual = 5.43756e-06, No Iterations 5
DILUPBiCGStab:  Solving for Uy, Initial residual = 0.00293458, Final residual = 1.32055e-05, No Iterations 5
DILUPBiCGStab:  Solving for Uz, Initial residual = 0.0131982, Final residual = 0.000126294, No Iterations 5
linear solve U 840531
[OGL LOG] init_preconditioner : 0 ms
[OGL LOG] solve : 1705 ms
ILUcudaGKOCG:  Solving for p, Initial residual = 0.223633, Final residual = 9.7647e-07, No Iterations 246
linear solve p 1732212
time step continuity errors : sum local = 3.98777e-08, global = 1.05038e-21, cumulative = 1.42424e-22
[OGL LOG] init_preconditioner : 0 ms
[OGL LOG] solve : 1707 ms
ILUcudaGKOCG:  Solving for p, Initial residual = 0.187992, Final residual = 8.88883e-07, No Iterations 246
linear solve p 1733178
time step continuity errors : sum local = 3.98001e-08, global = -3.1998e-21, cumulative = -3.05738e-21
ExecutionTime = 47.48 s  ClockTime = 48 s

Time = 0.00842105

Courant Number mean: 0.191661 max: 0.967486
DILUPBiCGStab:  Solving for Ux, Initial residual = 0.000777599, Final residual = 3.62441e-06, No Iterations 5
DILUPBiCGStab:  Solving for Uy, Initial residual = 0.00239947, Final residual = 8.17392e-06, No Iterations 5
DILUPBiCGStab:  Solving for Uz, Initial residual = 0.0105118, Final residual = 9.06421e-05, No Iterations 5
linear solve U 843768
[OGL LOG] init_preconditioner : 0 ms
[OGL LOG] solve : 1697 ms
ILUcudaGKOCG:  Solving for p, Initial residual = 0.197412, Final residual = 9.51631e-07, No Iterations 245
linear solve p 1723759
time step continuity errors : sum local = 4.03124e-08, global = -4.12918e-21, cumulative = -7.18656e-21
[OGL LOG] init_preconditioner : 0 ms
[OGL LOG] solve : 1699 ms
ILUcudaGKOCG:  Solving for p, Initial residual = 0.165831, Final residual = 8.51287e-07, No Iterations 245
linear solve p 1728761
time step continuity errors : sum local = 3.9871e-08, global = 1.40052e-20, cumulative = 6.81865e-21
ExecutionTime = 52.29 s  ClockTime = 53 s

Time = 0.00947368

Courant Number mean: 0.191651 max: 0.967297
DILUPBiCGStab:  Solving for Ux, Initial residual = 0.000646666, Final residual = 2.7044e-06, No Iterations 5
DILUPBiCGStab:  Solving for Uy, Initial residual = 0.00201453, Final residual = 6.95662e-06, No Iterations 5
DILUPBiCGStab:  Solving for Uz, Initial residual = 0.00862117, Final residual = 7.1708e-05, No Iterations 5
linear solve U 844735
[OGL LOG] init_preconditioner : 0 ms
[OGL LOG] solve : 1690 ms
ILUcudaGKOCG:  Solving for p, Initial residual = 0.169129, Final residual = 9.40623e-07, No Iterations 244
linear solve p 1716996
time step continuity errors : sum local = 3.97686e-08, global = 3.89063e-21, cumulative = 1.07093e-20
[OGL LOG] init_preconditioner : 0 ms
[OGL LOG] solve : 1684 ms
ILUcudaGKOCG:  Solving for p, Initial residual = 0.140913, Final residual = 9.84016e-07, No Iterations 243
linear solve p 1710482
time step continuity errors : sum local = 3.98313e-08, global = 3.34677e-20, cumulative = 4.4177e-20
ExecutionTime = 57.05 s  ClockTime = 57 s

Time = 0.0105263

Courant Number mean: 0.191644 max: 0.96742
DILUPBiCGStab:  Solving for Ux, Initial residual = 0.000544285, Final residual = 2.23587e-06, No Iterations 5
DILUPBiCGStab:  Solving for Uy, Initial residual = 0.00169197, Final residual = 4.70208e-06, No Iterations 5
DILUPBiCGStab:  Solving for Uz, Initial residual = 0.00689046, Final residual = 5.16083e-05, No Iterations 5
linear solve U 851344
[OGL LOG] init_preconditioner : 0 ms
[OGL LOG] solve : 1677 ms
ILUcudaGKOCG:  Solving for p, Initial residual = 0.1492, Final residual = 9.66511e-07, No Iterations 242
linear solve p 1703725
time step continuity errors : sum local = 4.01484e-08, global = -1.28408e-21, cumulative = 4.28929e-20
[OGL LOG] init_preconditioner : 0 ms
[OGL LOG] solve : 1677 ms
ILUcudaGKOCG:  Solving for p, Initial residual = 0.124258, Final residual = 8.77283e-07, No Iterations 242
linear solve p 1704637
time step continuity errors : sum local = 3.9848e-08, global = -3.79047e-21, cumulative = 3.91024e-20
ExecutionTime = 61.82 s  ClockTime = 62 s

End

