/*---------------------------------------------------------------------------*\
  =========                 |
  \\      /  F ield         | OpenFOAM: The Open Source CFD Toolbox
   \\    /   O peration     | Website:  https://openfoam.org
    \\  /    A nd           | Version:  8
     \\/     M anipulation  |
\*---------------------------------------------------------------------------*/
Build  : 8-ef60d22ea792
Exec   : icoFoam
Date   : Sep 11 2021
Time   : 13:58:34
Host   : "uc2n442.localdomain"
PID    : 3719265
I/O    : uncollated
Case   : /pfs/data5/home/kit/scc/nq7776/data/code/OBR/lidDrivenCavity3D/Variation_init/100/Variation_mesh/95/Variation_matrix_solver/CG_DIC_Serial/1631361482
nProcs : 1
sigFpe : Enabling floating point exception trapping (FOAM_SIGFPE).
fileModificationChecking : Monitoring run-time modified files using timeStampMaster (fileModificationSkew 10)
allowSystemOperations : Allowing user-supplied system call operations

// * * * * * * * * * * * * * * * * * * * * * * * * * * * * * * * * * * * * * //
Create time

Create mesh for time = 0

Reading transportProperties

Reading field p

Reading field U

Reading/calculating face flux field phi


Starting time loop

Time = 0.00105263

Courant Number mean: 0.191438 max: 0.965363
DILUPBiCGStab:  Solving for Ux, Initial residual = 0.045256, Final residual = 5.87293e-05, No Iterations 5
DILUPBiCGStab:  Solving for Uy, Initial residual = 0.0864075, Final residual = 0.000143638, No Iterations 5
DILUPBiCGStab:  Solving for Uz, Initial residual = 0.119195, Final residual = 0.000245255, No Iterations 5
linear solve U 863863
DICPCG:  Solving for p, Initial residual = 0.553351, Final residual = 9.97045e-07, No Iterations 250
linear solve p 5015908
time step continuity errors : sum local = 5.96607e-10, global = -1.38085e-20, cumulative = -1.38085e-20
DICPCG:  Solving for p, Initial residual = 0.406397, Final residual = 8.78829e-07, No Iterations 250
linear solve p 4993566
time step continuity errors : sum local = 5.20179e-10, global = -2.91121e-21, cumulative = -1.67197e-20
ExecutionTime = 15.18 s  ClockTime = 15 s

Time = 0.00210526

Courant Number mean: 0.19198 max: 0.967664
DILUPBiCGStab:  Solving for Ux, Initial residual = 0.00523041, Final residual = 7.39267e-05, No Iterations 5
DILUPBiCGStab:  Solving for Uy, Initial residual = 0.0137415, Final residual = 0.000156344, No Iterations 5
DILUPBiCGStab:  Solving for Uz, Initial residual = 0.0306206, Final residual = 0.000346431, No Iterations 5
linear solve U 797989
DICPCG:  Solving for p, Initial residual = 0.506271, Final residual = 9.18579e-07, No Iterations 252
linear solve p 5049000
time step continuity errors : sum local = 5.40507e-10, global = 5.42393e-21, cumulative = -1.12957e-20
DICPCG:  Solving for p, Initial residual = 0.465369, Final residual = 9.69121e-07, No Iterations 251
linear solve p 5043087
time step continuity errors : sum local = 5.54714e-10, global = -3.9757e-21, cumulative = -1.52714e-20
ExecutionTime = 26.51 s  ClockTime = 26 s

Time = 0.00315789

Courant Number mean: 0.191927 max: 0.968176
DILUPBiCGStab:  Solving for Ux, Initial residual = 0.00334645, Final residual = 4.80109e-05, No Iterations 5
DILUPBiCGStab:  Solving for Uy, Initial residual = 0.00964347, Final residual = 0.000103261, No Iterations 5
DILUPBiCGStab:  Solving for Uz, Initial residual = 0.0265547, Final residual = 0.000316522, No Iterations 5
linear solve U 792947
DICPCG:  Solving for p, Initial residual = 0.411416, Final residual = 8.91552e-07, No Iterations 252
linear solve p 5049731
time step continuity errors : sum local = 4.48697e-10, global = 2.79901e-21, cumulative = -1.24724e-20
DICPCG:  Solving for p, Initial residual = 0.362315, Final residual = 9.38136e-07, No Iterations 251
linear solve p 5043279
time step continuity errors : sum local = 4.73337e-10, global = -2.19187e-20, cumulative = -3.43911e-20
ExecutionTime = 37.83 s  ClockTime = 38 s

Time = 0.00421053

Courant Number mean: 0.191778 max: 0.967735
DILUPBiCGStab:  Solving for Ux, Initial residual = 0.00216246, Final residual = 2.09542e-05, No Iterations 5
DILUPBiCGStab:  Solving for Uy, Initial residual = 0.00639095, Final residual = 4.95192e-05, No Iterations 5
DILUPBiCGStab:  Solving for Uz, Initial residual = 0.0215611, Final residual = 0.000246826, No Iterations 5
linear solve U 791623
DICPCG:  Solving for p, Initial residual = 0.353503, Final residual = 8.62265e-07, No Iterations 252
linear solve p 5029108
time step continuity errors : sum local = 3.89607e-10, global = 1.55613e-20, cumulative = -1.88299e-20
DICPCG:  Solving for p, Initial residual = 0.308723, Final residual = 9.23147e-07, No Iterations 251
linear solve p 5012585
time step continuity errors : sum local = 4.13211e-10, global = -2.71998e-20, cumulative = -4.60296e-20
ExecutionTime = 49.1 s  ClockTime = 49 s

Time = 0.00526316

Courant Number mean: 0.191744 max: 0.967373
DILUPBiCGStab:  Solving for Ux, Initial residual = 0.00155361, Final residual = 1.48597e-05, No Iterations 5
DILUPBiCGStab:  Solving for Uy, Initial residual = 0.00470538, Final residual = 3.22529e-05, No Iterations 5
DILUPBiCGStab:  Solving for Uz, Initial residual = 0.019368, Final residual = 0.00020967, No Iterations 5
linear solve U 791028
DICPCG:  Solving for p, Initial residual = 0.298712, Final residual = 9.23274e-07, No Iterations 250
linear solve p 4985720
time step continuity errors : sum local = 3.97154e-10, global = 1.23542e-21, cumulative = -4.47942e-20
DICPCG:  Solving for p, Initial residual = 0.254889, Final residual = 9.28109e-07, No Iterations 249
linear solve p 4965792
time step continuity errors : sum local = 3.99425e-10, global = -5.37806e-21, cumulative = -5.01723e-20
ExecutionTime = 60.28 s  ClockTime = 60 s

Time = 0.00631579

Courant Number mean: 0.191698 max: 0.967609
DILUPBiCGStab:  Solving for Ux, Initial residual = 0.00118716, Final residual = 6.92337e-06, No Iterations 5
DILUPBiCGStab:  Solving for Uy, Initial residual = 0.00362629, Final residual = 1.71262e-05, No Iterations 5
DILUPBiCGStab:  Solving for Uz, Initial residual = 0.0158072, Final residual = 0.000158347, No Iterations 5
linear solve U 796420
DICPCG:  Solving for p, Initial residual = 0.262494, Final residual = 8.89515e-07, No Iterations 248
linear solve p 4952741
time step continuity errors : sum local = 3.57592e-10, global = -2.86257e-21, cumulative = -5.30348e-20
DICPCG:  Solving for p, Initial residual = 0.223504, Final residual = 9.69605e-07, No Iterations 247
linear solve p 4922968
time step continuity errors : sum local = 3.87474e-10, global = -2.79257e-21, cumulative = -5.58274e-20
ExecutionTime = 71.39 s  ClockTime = 71 s

Time = 0.00736842

Courant Number mean: 0.191678 max: 0.967284
DILUPBiCGStab:  Solving for Ux, Initial residual = 0.000948555, Final residual = 5.43711e-06, No Iterations 5
DILUPBiCGStab:  Solving for Uy, Initial residual = 0.00293457, Final residual = 1.32053e-05, No Iterations 5
DILUPBiCGStab:  Solving for Uz, Initial residual = 0.0131982, Final residual = 0.000126293, No Iterations 5
linear solve U 798021
DICPCG:  Solving for p, Initial residual = 0.223638, Final residual = 9.17873e-07, No Iterations 246
linear solve p 4916053
time step continuity errors : sum local = 3.60434e-10, global = 1.82489e-20, cumulative = -3.75785e-20
DICPCG:  Solving for p, Initial residual = 0.187996, Final residual = 9.91928e-07, No Iterations 245
linear solve p 5096280
time step continuity errors : sum local = 3.8961e-10, global = 9.67247e-21, cumulative = -2.7906e-20
ExecutionTime = 82.63 s  ClockTime = 83 s

Time = 0.00842105

Courant Number mean: 0.191661 max: 0.967486
DILUPBiCGStab:  Solving for Ux, Initial residual = 0.000777642, Final residual = 3.6244e-06, No Iterations 5
DILUPBiCGStab:  Solving for Uy, Initial residual = 0.00239945, Final residual = 8.17364e-06, No Iterations 5
DILUPBiCGStab:  Solving for Uz, Initial residual = 0.0105119, Final residual = 9.0638e-05, No Iterations 5
linear solve U 795185
DICPCG:  Solving for p, Initial residual = 0.197417, Final residual = 8.56798e-07, No Iterations 245
linear solve p 4893888
time step continuity errors : sum local = 3.20255e-10, global = 1.57348e-20, cumulative = -1.21712e-20
DICPCG:  Solving for p, Initial residual = 0.165835, Final residual = 9.71511e-07, No Iterations 244
linear solve p 4869040
time step continuity errors : sum local = 3.61627e-10, global = 8.04412e-21, cumulative = -4.12704e-21
ExecutionTime = 93.62 s  ClockTime = 94 s

Time = 0.00947368

Courant Number mean: 0.191651 max: 0.967297
DILUPBiCGStab:  Solving for Ux, Initial residual = 0.000646715, Final residual = 2.70422e-06, No Iterations 5
DILUPBiCGStab:  Solving for Uy, Initial residual = 0.00201451, Final residual = 6.95702e-06, No Iterations 5
DILUPBiCGStab:  Solving for Uz, Initial residual = 0.00862122, Final residual = 7.17077e-05, No Iterations 5
linear solve U 798194
DICPCG:  Solving for p, Initial residual = 0.169135, Final residual = 8.36986e-07, No Iterations 244
linear solve p 4874626
time step continuity errors : sum local = 3.0893e-10, global = 1.5395e-20, cumulative = 1.1268e-20
DICPCG:  Solving for p, Initial residual = 0.140917, Final residual = 9.33592e-07, No Iterations 243
linear solve p 5058373
time step continuity errors : sum local = 3.4463e-10, global = -1.03106e-20, cumulative = 9.57422e-22
ExecutionTime = 104.79 s  ClockTime = 105 s

Time = 0.0105263

Courant Number mean: 0.191644 max: 0.96742
DILUPBiCGStab:  Solving for Ux, Initial residual = 0.000544336, Final residual = 2.23602e-06, No Iterations 5
DILUPBiCGStab:  Solving for Uy, Initial residual = 0.00169194, Final residual = 4.70202e-06, No Iterations 5
DILUPBiCGStab:  Solving for Uz, Initial residual = 0.00689047, Final residual = 5.16032e-05, No Iterations 5
linear solve U 795940
DICPCG:  Solving for p, Initial residual = 0.149204, Final residual = 9.01897e-07, No Iterations 242
linear solve p 4831562
time step continuity errors : sum local = 3.21253e-10, global = 1.0666e-20, cumulative = 1.16234e-20
DICPCG:  Solving for p, Initial residual = 0.124262, Final residual = 9.68871e-07, No Iterations 241
linear solve p 4804357
time step continuity errors : sum local = 3.44105e-10, global = -1.24923e-20, cumulative = -8.68862e-22
ExecutionTime = 115.66 s  ClockTime = 116 s

End

