/*---------------------------------------------------------------------------*\
  =========                 |
  \\      /  F ield         | OpenFOAM: The Open Source CFD Toolbox
   \\    /   O peration     | Website:  https://openfoam.org
    \\  /    A nd           | Version:  8
     \\/     M anipulation  |
\*---------------------------------------------------------------------------*/
Build  : 8-ef60d22ea792
Exec   : icoFoam
Date   : Sep 11 2021
Time   : 13:35:42
Host   : "uc2n442.localdomain"
PID    : 3704951
I/O    : uncollated
Case   : /pfs/data5/home/kit/scc/nq7776/data/code/OBR/lidDrivenCavity3D/Variation_init/100/Variation_mesh/5/Variation_matrix_solver/BiCGStab_DIC_Serial/1631360142
nProcs : 1
sigFpe : Enabling floating point exception trapping (FOAM_SIGFPE).
fileModificationChecking : Monitoring run-time modified files using timeStampMaster (fileModificationSkew 10)
allowSystemOperations : Allowing user-supplied system call operations

// * * * * * * * * * * * * * * * * * * * * * * * * * * * * * * * * * * * * * //
Create time

Create mesh for time = 0

Reading transportProperties

Reading field p

Reading field U

Reading/calculating face flux field phi


Starting time loop

Time = 0.02

Courant Number mean: 0.165966 max: 0.393736
DILUPBiCGStab:  Solving for Ux, Initial residual = 0.257055, Final residual = 2.34833e-13, No Iterations 5
DILUPBiCGStab:  Solving for Uy, Initial residual = 0.188796, Final residual = 5.98254e-14, No Iterations 5
DILUPBiCGStab:  Solving for Uz, Initial residual = 0.171115, Final residual = 6.75568e-14, No Iterations 5
linear solve U 167
DICPBiCGStab:  Solving for p, Initial residual = 0.607222, Final residual = 1.64607e-07, No Iterations 10
linear solve p 67
time step continuity errors : sum local = 1.82021e-08, global = -1.39522e-18, cumulative = -1.39522e-18
DICPBiCGStab:  Solving for p, Initial residual = 0.279374, Final residual = 4.89437e-07, No Iterations 9
linear solve p 56
time step continuity errors : sum local = 4.40669e-08, global = 1.7662e-19, cumulative = -1.2186e-18
ExecutionTime = 0.03 s  ClockTime = 0 s

Time = 0.04

Courant Number mean: 0.153195 max: 0.395566
DILUPBiCGStab:  Solving for Ux, Initial residual = 0.0697041, Final residual = 3.44956e-14, No Iterations 5
DILUPBiCGStab:  Solving for Uy, Initial residual = 0.0816976, Final residual = 4.41332e-14, No Iterations 5
DILUPBiCGStab:  Solving for Uz, Initial residual = 0.163157, Final residual = 1.8333e-13, No Iterations 5
linear solve U 96
DICPBiCGStab:  Solving for p, Initial residual = 0.204315, Final residual = 5.21222e-07, No Iterations 9
linear solve p 46
time step continuity errors : sum local = 4.99039e-08, global = -4.09487e-19, cumulative = -1.62809e-18
DICPBiCGStab:  Solving for p, Initial residual = 0.0753344, Final residual = 4.41541e-07, No Iterations 9
linear solve p 46
time step continuity errors : sum local = 3.04596e-08, global = -2.0117e-19, cumulative = -1.82926e-18
ExecutionTime = 0.03 s  ClockTime = 0 s

Time = 0.06

Courant Number mean: 0.149929 max: 0.386832
DILUPBiCGStab:  Solving for Ux, Initial residual = 0.014101, Final residual = 1.8656e-15, No Iterations 5
DILUPBiCGStab:  Solving for Uy, Initial residual = 0.0173196, Final residual = 4.1084e-15, No Iterations 5
DILUPBiCGStab:  Solving for Uz, Initial residual = 0.106794, Final residual = 9.07385e-14, No Iterations 5
linear solve U 92
DICPBiCGStab:  Solving for p, Initial residual = 0.0134466, Final residual = 5.01029e-07, No Iterations 8
linear solve p 48
time step continuity errors : sum local = 2.76114e-08, global = -1.44618e-18, cumulative = -3.27544e-18
DICPBiCGStab:  Solving for p, Initial residual = 0.00251676, Final residual = 4.88723e-07, No Iterations 7
linear solve p 41
time step continuity errors : sum local = 4.50355e-08, global = -1.23349e-19, cumulative = -3.39879e-18
ExecutionTime = 0.03 s  ClockTime = 0 s

Time = 0.08

Courant Number mean: 0.149047 max: 0.383246
DILUPBiCGStab:  Solving for Ux, Initial residual = 0.00404259, Final residual = 6.31413e-16, No Iterations 5
DILUPBiCGStab:  Solving for Uy, Initial residual = 0.0051307, Final residual = 1.1925e-15, No Iterations 5
DILUPBiCGStab:  Solving for Uz, Initial residual = 0.0354946, Final residual = 3.14146e-14, No Iterations 5
linear solve U 92
DICPBiCGStab:  Solving for p, Initial residual = 0.00345237, Final residual = 6.50095e-07, No Iterations 8
linear solve p 42
time step continuity errors : sum local = 5.54166e-08, global = 3.0566e-19, cumulative = -3.09313e-18
DICPBiCGStab:  Solving for p, Initial residual = 0.00137584, Final residual = 2.9038e-07, No Iterations 8
linear solve p 41
time step continuity errors : sum local = 2.29996e-08, global = 9.61052e-19, cumulative = -2.13207e-18
ExecutionTime = 0.03 s  ClockTime = 0 s

Time = 0.1

Courant Number mean: 0.148704 max: 0.381708
DILUPBiCGStab:  Solving for Ux, Initial residual = 0.0012452, Final residual = 2.73197e-16, No Iterations 5
DILUPBiCGStab:  Solving for Uy, Initial residual = 0.00166862, Final residual = 2.55013e-16, No Iterations 5
DILUPBiCGStab:  Solving for Uz, Initial residual = 0.0148843, Final residual = 8.34207e-15, No Iterations 5
linear solve U 92
DICPBiCGStab:  Solving for p, Initial residual = 0.00100369, Final residual = 4.50245e-07, No Iterations 7
linear solve p 39
time step continuity errors : sum local = 4.35462e-08, global = 3.65349e-19, cumulative = -1.76673e-18
DICPBiCGStab:  Solving for p, Initial residual = 0.000356108, Final residual = 4.63296e-07, No Iterations 7
linear solve p 39
time step continuity errors : sum local = 3.84713e-08, global = -1.15144e-18, cumulative = -2.91816e-18
ExecutionTime = 0.03 s  ClockTime = 0 s

Time = 0.12

Courant Number mean: 0.148579 max: 0.381103
DILUPBiCGStab:  Solving for Ux, Initial residual = 0.000408345, Final residual = 1.14637e-16, No Iterations 5
DILUPBiCGStab:  Solving for Uy, Initial residual = 0.000559235, Final residual = 6.73965e-17, No Iterations 5
DILUPBiCGStab:  Solving for Uz, Initial residual = 0.00594631, Final residual = 2.29678e-15, No Iterations 5
linear solve U 93
DICPBiCGStab:  Solving for p, Initial residual = 0.000390468, Final residual = 8.78464e-07, No Iterations 6
linear solve p 36
time step continuity errors : sum local = 8.84878e-08, global = 1.01181e-19, cumulative = -2.81698e-18
DICPBiCGStab:  Solving for p, Initial residual = 0.000145369, Final residual = 9.70573e-07, No Iterations 5
linear solve p 44
time step continuity errors : sum local = 1.04403e-07, global = 5.89879e-19, cumulative = -2.2271e-18
ExecutionTime = 0.03 s  ClockTime = 0 s

Time = 0.14

Courant Number mean: 0.148534 max: 0.380874
DILUPBiCGStab:  Solving for Ux, Initial residual = 0.000141179, Final residual = 4.78834e-17, No Iterations 5
DILUPBiCGStab:  Solving for Uy, Initial residual = 0.000194783, Final residual = 1.95735e-17, No Iterations 5
DILUPBiCGStab:  Solving for Uz, Initial residual = 0.00239742, Final residual = 5.44459e-16, No Iterations 5
linear solve U 95
DICPBiCGStab:  Solving for p, Initial residual = 0.000152427, Final residual = 4.05974e-07, No Iterations 3
linear solve p 26
time step continuity errors : sum local = 2.86511e-08, global = 5.91269e-19, cumulative = -1.63583e-18
DICPBiCGStab:  Solving for p, Initial residual = 5.36004e-05, Final residual = 9.88382e-07, No Iterations 2
linear solve p 24
time step continuity errors : sum local = 8.45049e-08, global = 5.59699e-19, cumulative = -1.07613e-18
ExecutionTime = 0.03 s  ClockTime = 0 s

Time = 0.16

Courant Number mean: 0.148518 max: 0.38079
DILUPBiCGStab:  Solving for Ux, Initial residual = 5.07559e-05, Final residual = 1.8409e-17, No Iterations 5
DILUPBiCGStab:  Solving for Uy, Initial residual = 7.02103e-05, Final residual = 1.21948e-17, No Iterations 5
DILUPBiCGStab:  Solving for Uz, Initial residual = 0.000981767, Final residual = 2.01465e-16, No Iterations 5
linear solve U 95
DICPBiCGStab:  Solving for p, Initial residual = 5.78535e-05, Final residual = 1.53498e-07, No Iterations 3
linear solve p 26
time step continuity errors : sum local = 1.23975e-08, global = 3.80569e-19, cumulative = -6.95564e-19
DICPBiCGStab:  Solving for p, Initial residual = 2.00529e-05, Final residual = 7.64881e-07, No Iterations 2
linear solve p 22
time step continuity errors : sum local = 5.60446e-08, global = 8.28041e-19, cumulative = 1.32477e-19
ExecutionTime = 0.04 s  ClockTime = 0 s

Time = 0.18

Courant Number mean: 0.148512 max: 0.38076
DILUPBiCGStab:  Solving for Ux, Initial residual = 1.90081e-05, Final residual = 7.60417e-18, No Iterations 5
DILUPBiCGStab:  Solving for Uy, Initial residual = 2.60371e-05, Final residual = 7.56559e-18, No Iterations 5
DILUPBiCGStab:  Solving for Uz, Initial residual = 0.000399407, Final residual = 7.22916e-17, No Iterations 5
linear solve U 92
DICPBiCGStab:  Solving for p, Initial residual = 2.24922e-05, Final residual = 8.40042e-07, No Iterations 2
linear solve p 23
time step continuity errors : sum local = 4.95758e-08, global = -2.11824e-19, cumulative = -7.93468e-20
DICPBiCGStab:  Solving for p, Initial residual = 7.09531e-06, Final residual = 3.27068e-07, No Iterations 2
linear solve p 22
time step continuity errors : sum local = 2.4654e-08, global = 2.49147e-19, cumulative = 1.698e-19
ExecutionTime = 0.04 s  ClockTime = 0 s

Time = 0.2

Courant Number mean: 0.148511 max: 0.380749
DILUPBiCGStab:  Solving for Ux, Initial residual = 7.31081e-06, Final residual = 3.39998e-18, No Iterations 5
DILUPBiCGStab:  Solving for Uy, Initial residual = 9.92709e-06, Final residual = 4.78945e-18, No Iterations 5
DILUPBiCGStab:  Solving for Uz, Initial residual = 0.000163675, Final residual = 3.13188e-17, No Iterations 5
linear solve U 97
DICPBiCGStab:  Solving for p, Initial residual = 8.30359e-06, Final residual = 3.09358e-07, No Iterations 2
linear solve p 22
time step continuity errors : sum local = 1.97965e-08, global = 6.09136e-19, cumulative = 7.78936e-19
DICPBiCGStab:  Solving for p, Initial residual = 2.38713e-06, Final residual = 4.63886e-07, No Iterations 1
linear solve p 21
time step continuity errors : sum local = 2.85619e-08, global = -2.44184e-19, cumulative = 5.34752e-19
ExecutionTime = 0.04 s  ClockTime = 0 s

End

