/*---------------------------------------------------------------------------*\
  =========                 |
  \\      /  F ield         | OpenFOAM: The Open Source CFD Toolbox
   \\    /   O peration     | Website:  https://openfoam.org
    \\  /    A nd           | Version:  8
     \\/     M anipulation  |
\*---------------------------------------------------------------------------*/
Build  : 8-ef60d22ea792
Exec   : icoFoam
Date   : Sep 11 2021
Time   : 13:53:58
Host   : "uc2n513.localdomain"
PID    : 222427
I/O    : uncollated
Case   : /pfs/data5/home/kit/scc/nq7776/data/code/OBR/lidDrivenCavity3D/Variation_init/100/Variation_mesh/65/Variation_matrix_solver/IR_NoPrecond_CUDA/1631361227
nProcs : 1
sigFpe : Enabling floating point exception trapping (FOAM_SIGFPE).
fileModificationChecking : Monitoring run-time modified files using timeStampMaster (fileModificationSkew 10)
allowSystemOperations : Allowing user-supplied system call operations

// * * * * * * * * * * * * * * * * * * * * * * * * * * * * * * * * * * * * * //
Create time

Create mesh for time = 0

Reading transportProperties

Reading field p

Reading field U

Reading/calculating face flux field phi


Starting time loop

Time = 0.00153846

Courant Number mean: 0.191448 max: 0.959317
DILUPBiCGStab:  Solving for Ux, Initial residual = 0.112017, Final residual = 1.40856e-05, No Iterations 5
DILUPBiCGStab:  Solving for Uy, Initial residual = 0.209721, Final residual = 3.34999e-05, No Iterations 5
DILUPBiCGStab:  Solving for Uz, Initial residual = 0.253067, Final residual = 9.19753e-05, No Iterations 5
linear solve U 275712
[OGL LOG] init_host_sparsity_pattern : 74 ms
[OGL LOG] matrix not stored update host matrix
[OGL LOG] update_host_mtx : 40 ms
[OGL LOG] matrix is not yet sorted, compute sorting idxs
[OGL LOG] compute_sort : 2369 ms
[OGL LOG] matrix is not yet sorted, sorting host matrix
[OGL LOG] sort_host_mtx_sparsity_pattern : 52 ms
[OGL LOG] sort_host_mtx : 28 ms
[OGL LOG] init_preconditioner : 0 ms
[OGL LOG] solve : 133 ms
nonecudaGKOIR:  Solving for p, Initial residual = 0.548046, Final residual = 3.39626e-08, No Iterations 4
linear solve p 3451251
time step continuity errors : sum local = 4.45949e-11, global = -3.59226e-20, cumulative = -3.59226e-20
[OGL LOG] init_preconditioner : 0 ms
[OGL LOG] solve : 197 ms
nonecudaGKOIR:  Solving for p, Initial residual = 0.305311, Final residual = 1.47705e-08, No Iterations 4
linear solve p 206639
time step continuity errors : sum local = 1.16394e-11, global = -1.07696e-21, cumulative = -3.69995e-20
ExecutionTime = 5.35 s  ClockTime = 6 s

Time = 0.00307692

Courant Number mean: 0.191613 max: 0.952625
DILUPBiCGStab:  Solving for Ux, Initial residual = 0.0053039, Final residual = 1.96332e-05, No Iterations 5
DILUPBiCGStab:  Solving for Uy, Initial residual = 0.01073, Final residual = 3.73435e-05, No Iterations 5
DILUPBiCGStab:  Solving for Uz, Initial residual = 0.0235183, Final residual = 8.30642e-05, No Iterations 5
linear solve U 253623
[OGL LOG] init_preconditioner : 0 ms
[OGL LOG] solve : 127 ms
nonecudaGKOIR:  Solving for p, Initial residual = 0.241045, Final residual = 5.37988e-07, No Iterations 3
linear solve p 135483
time step continuity errors : sum local = 2.58417e-07, global = 1.18047e-20, cumulative = -2.51948e-20
[OGL LOG] init_preconditioner : 0 ms
[OGL LOG] solve : 125 ms
nonecudaGKOIR:  Solving for p, Initial residual = 0.201177, Final residual = 4.13268e-07, No Iterations 3
linear solve p 133402
time step continuity errors : sum local = 2.4745e-07, global = -2.01261e-20, cumulative = -4.5321e-20
ExecutionTime = 6.04 s  ClockTime = 6 s

Time = 0.00461538

Courant Number mean: 0.191576 max: 0.952768
DILUPBiCGStab:  Solving for Ux, Initial residual = 0.00149172, Final residual = 7.5069e-06, No Iterations 5
DILUPBiCGStab:  Solving for Uy, Initial residual = 0.00378367, Final residual = 1.56078e-05, No Iterations 5
DILUPBiCGStab:  Solving for Uz, Initial residual = 0.0123648, Final residual = 4.50888e-05, No Iterations 5
linear solve U 251070
[OGL LOG] init_preconditioner : 0 ms
[OGL LOG] solve : 126 ms
nonecudaGKOIR:  Solving for p, Initial residual = 0.153273, Final residual = 2.60267e-07, No Iterations 3
linear solve p 135238
time step continuity errors : sum local = 2.46243e-07, global = -1.42604e-20, cumulative = -5.95814e-20
[OGL LOG] init_preconditioner : 0 ms
[OGL LOG] solve : 124 ms
nonecudaGKOIR:  Solving for p, Initial residual = 0.127108, Final residual = 1.9904e-07, No Iterations 3
linear solve p 132935
time step continuity errors : sum local = 2.46169e-07, global = -3.24382e-21, cumulative = -6.28252e-20
ExecutionTime = 6.71 s  ClockTime = 7 s

Time = 0.00615385

Courant Number mean: 0.191478 max: 0.952387
DILUPBiCGStab:  Solving for Ux, Initial residual = 0.000807998, Final residual = 2.32811e-06, No Iterations 5
DILUPBiCGStab:  Solving for Uy, Initial residual = 0.00210969, Final residual = 5.15516e-06, No Iterations 5
DILUPBiCGStab:  Solving for Uz, Initial residual = 0.00658312, Final residual = 2.21902e-05, No Iterations 5
linear solve U 251808
[OGL LOG] init_preconditioner : 0 ms
[OGL LOG] solve : 133 ms
nonecudaGKOIR:  Solving for p, Initial residual = 0.105576, Final residual = 1.52553e-07, No Iterations 3
linear solve p 141667
time step continuity errors : sum local = 2.46962e-07, global = 1.53259e-21, cumulative = -6.12926e-20
[OGL LOG] init_preconditioner : 0 ms
[OGL LOG] solve : 127 ms
nonecudaGKOIR:  Solving for p, Initial residual = 0.0876461, Final residual = 1.32401e-07, No Iterations 3
linear solve p 136310
time step continuity errors : sum local = 2.46436e-07, global = -8.6467e-21, cumulative = -6.99393e-20
ExecutionTime = 7.4 s  ClockTime = 8 s

Time = 0.00769231

Courant Number mean: 0.191453 max: 0.952327
DILUPBiCGStab:  Solving for Ux, Initial residual = 0.000487467, Final residual = 1.86491e-06, No Iterations 5
DILUPBiCGStab:  Solving for Uy, Initial residual = 0.00134197, Final residual = 3.68825e-06, No Iterations 5
DILUPBiCGStab:  Solving for Uz, Initial residual = 0.00447393, Final residual = 1.41962e-05, No Iterations 5
linear solve U 251689
[OGL LOG] init_preconditioner : 0 ms
[OGL LOG] solve : 132 ms
nonecudaGKOIR:  Solving for p, Initial residual = 0.0741722, Final residual = 9.79508e-08, No Iterations 3
linear solve p 140963
time step continuity errors : sum local = 2.46367e-07, global = 3.39604e-20, cumulative = -3.59789e-20
[OGL LOG] init_preconditioner : 0 ms
[OGL LOG] solve : 129 ms
nonecudaGKOIR:  Solving for p, Initial residual = 0.061031, Final residual = 8.64928e-08, No Iterations 3
linear solve p 138350
time step continuity errors : sum local = 2.46321e-07, global = 1.40311e-21, cumulative = -3.45758e-20
ExecutionTime = 8.11 s  ClockTime = 8 s

Time = 0.00923077

Courant Number mean: 0.191423 max: 0.952341
DILUPBiCGStab:  Solving for Ux, Initial residual = 0.000315133, Final residual = 8.37544e-07, No Iterations 5
DILUPBiCGStab:  Solving for Uy, Initial residual = 0.00091069, Final residual = 1.52762e-06, No Iterations 5
DILUPBiCGStab:  Solving for Uz, Initial residual = 0.00284677, Final residual = 7.06353e-06, No Iterations 5
linear solve U 252842
[OGL LOG] init_preconditioner : 0 ms
[OGL LOG] solve : 131 ms
nonecudaGKOIR:  Solving for p, Initial residual = 0.0537573, Final residual = 6.80732e-08, No Iterations 3
linear solve p 140378
time step continuity errors : sum local = 2.46521e-07, global = -1.90263e-20, cumulative = -5.36021e-20
[OGL LOG] init_preconditioner : 0 ms
[OGL LOG] solve : 132 ms
nonecudaGKOIR:  Solving for p, Initial residual = 0.0442792, Final residual = 5.27297e-08, No Iterations 3
linear solve p 140728
time step continuity errors : sum local = 2.46356e-07, global = 2.73309e-20, cumulative = -2.62711e-20
ExecutionTime = 8.8 s  ClockTime = 9 s

Time = 0.0107692

Courant Number mean: 0.191411 max: 0.952275
DILUPBiCGStab:  Solving for Ux, Initial residual = 0.000217868, Final residual = 6.99836e-07, No Iterations 5
DILUPBiCGStab:  Solving for Uy, Initial residual = 0.00064982, Final residual = 1.09475e-06, No Iterations 5
DILUPBiCGStab:  Solving for Uz, Initial residual = 0.00207252, Final residual = 5.61392e-06, No Iterations 5
linear solve U 252850
[OGL LOG] init_preconditioner : 0 ms
[OGL LOG] solve : 132 ms
nonecudaGKOIR:  Solving for p, Initial residual = 0.0392457, Final residual = 4.6103e-08, No Iterations 3
linear solve p 140451
time step continuity errors : sum local = 2.46298e-07, global = -1.27586e-20, cumulative = -3.90298e-20
[OGL LOG] init_preconditioner : 0 ms
[OGL LOG] solve : 133 ms
nonecudaGKOIR:  Solving for p, Initial residual = 0.032186, Final residual = 3.9094e-08, No Iterations 3
linear solve p 141836
time step continuity errors : sum local = 2.4633e-07, global = 1.25116e-20, cumulative = -2.65181e-20
ExecutionTime = 9.49 s  ClockTime = 10 s

Time = 0.0123077

Courant Number mean: 0.1914 max: 0.9523
DILUPBiCGStab:  Solving for Ux, Initial residual = 0.000149848, Final residual = 4.206e-07, No Iterations 5
DILUPBiCGStab:  Solving for Uy, Initial residual = 0.000472372, Final residual = 7.00715e-07, No Iterations 5
DILUPBiCGStab:  Solving for Uz, Initial residual = 0.00139507, Final residual = 2.72932e-06, No Iterations 5
linear solve U 252997
[OGL LOG] init_preconditioner : 0 ms
[OGL LOG] solve : 120 ms
nonecudaGKOIR:  Solving for p, Initial residual = 0.0290833, Final residual = 3.31208e-08, No Iterations 3
linear solve p 129295
time step continuity errors : sum local = 2.46419e-07, global = -1.63393e-20, cumulative = -4.28574e-20
[OGL LOG] init_preconditioner : 0 ms
[OGL LOG] solve : 122 ms
nonecudaGKOIR:  Solving for p, Initial residual = 0.0238245, Final residual = 2.81675e-08, No Iterations 3
linear solve p 132046
time step continuity errors : sum local = 2.4634e-07, global = -4.50233e-20, cumulative = -8.78807e-20
ExecutionTime = 10.18 s  ClockTime = 11 s

Time = 0.0138462

Courant Number mean: 0.191394 max: 0.952267
DILUPBiCGStab:  Solving for Ux, Initial residual = 0.000108342, Final residual = 3.18322e-07, No Iterations 5
DILUPBiCGStab:  Solving for Uy, Initial residual = 0.00035325, Final residual = 4.52957e-07, No Iterations 5
DILUPBiCGStab:  Solving for Uz, Initial residual = 0.00103174, Final residual = 2.55788e-06, No Iterations 5
linear solve U 254307
[OGL LOG] init_preconditioner : 0 ms
[OGL LOG] solve : 122 ms
nonecudaGKOIR:  Solving for p, Initial residual = 0.021637, Final residual = 2.65025e-08, No Iterations 3
linear solve p 131362
time step continuity errors : sum local = 2.46305e-07, global = -4.38653e-20, cumulative = -1.31746e-19
[OGL LOG] init_preconditioner : 0 ms
[OGL LOG] solve : 125 ms
nonecudaGKOIR:  Solving for p, Initial residual = 0.0176865, Final residual = 2.02834e-08, No Iterations 3
linear solve p 133579
time step continuity errors : sum local = 2.46331e-07, global = -1.6135e-20, cumulative = -1.47881e-19
ExecutionTime = 10.86 s  ClockTime = 11 s

Time = 0.0153846

Courant Number mean: 0.191389 max: 0.952281
DILUPBiCGStab:  Solving for Ux, Initial residual = 7.69015e-05, Final residual = 2.13046e-07, No Iterations 5
DILUPBiCGStab:  Solving for Uy, Initial residual = 0.000261891, Final residual = 3.53369e-07, No Iterations 5
DILUPBiCGStab:  Solving for Uz, Initial residual = 0.000722758, Final residual = 1.56035e-06, No Iterations 5
linear solve U 253037
[OGL LOG] init_preconditioner : 0 ms
[OGL LOG] solve : 113 ms
nonecudaGKOIR:  Solving for p, Initial residual = 0.0162349, Final residual = 1.82666e-08, No Iterations 3
linear solve p 121871
time step continuity errors : sum local = 2.46372e-07, global = 5.23685e-20, cumulative = -9.55126e-20
[OGL LOG] init_preconditioner : 0 ms
[OGL LOG] solve : 119 ms
nonecudaGKOIR:  Solving for p, Initial residual = 0.013255, Final residual = 1.41683e-08, No Iterations 3
linear solve p 127594
time step continuity errors : sum local = 2.46335e-07, global = 4.57704e-20, cumulative = -4.97422e-20
ExecutionTime = 11.51 s  ClockTime = 12 s

End

