/*---------------------------------------------------------------------------*\
  =========                 |
  \\      /  F ield         | OpenFOAM: The Open Source CFD Toolbox
   \\    /   O peration     | Website:  https://openfoam.org
    \\  /    A nd           | Version:  8
     \\/     M anipulation  |
\*---------------------------------------------------------------------------*/
Build  : 8-ef60d22ea792
Exec   : icoFoam
Date   : Sep 11 2021
Time   : 14:01:55
Host   : "uc2n513.localdomain"
PID    : 223570
I/O    : uncollated
Case   : /pfs/data5/home/kit/scc/nq7776/data/code/OBR/lidDrivenCavity3D/Variation_init/100/Variation_mesh/95/Variation_matrix_solver/IR_NoPrecond_CUDA/1631361684
nProcs : 1
sigFpe : Enabling floating point exception trapping (FOAM_SIGFPE).
fileModificationChecking : Monitoring run-time modified files using timeStampMaster (fileModificationSkew 10)
allowSystemOperations : Allowing user-supplied system call operations

// * * * * * * * * * * * * * * * * * * * * * * * * * * * * * * * * * * * * * //
Create time

Create mesh for time = 0

Reading transportProperties

Reading field p

Reading field U

Reading/calculating face flux field phi


Starting time loop

Time = 0.00105263

Courant Number mean: 0.191438 max: 0.965363
DILUPBiCGStab:  Solving for Ux, Initial residual = 0.045256, Final residual = 5.87293e-05, No Iterations 5
DILUPBiCGStab:  Solving for Uy, Initial residual = 0.0864075, Final residual = 0.000143638, No Iterations 5
DILUPBiCGStab:  Solving for Uz, Initial residual = 0.119195, Final residual = 0.000245255, No Iterations 5
linear solve U 918327
[OGL LOG] init_host_sparsity_pattern : 243 ms
[OGL LOG] matrix not stored update host matrix
[OGL LOG] update_host_mtx : 127 ms
[OGL LOG] matrix is not yet sorted, compute sorting idxs
[OGL LOG] compute_sort : 7658 ms
[OGL LOG] matrix is not yet sorted, sorting host matrix
[OGL LOG] sort_host_mtx_sparsity_pattern : 162 ms
[OGL LOG] sort_host_mtx : 100 ms
[OGL LOG] init_preconditioner : 0 ms
[OGL LOG] solve : 522 ms
nonecudaGKOIR:  Solving for p, Initial residual = 0.553351, Final residual = 2.28229e-08, No Iterations 4
linear solve p 9616284
time step continuity errors : sum local = 1.36583e-11, global = 2.59691e-20, cumulative = 2.59691e-20
[OGL LOG] init_preconditioner : 0 ms
[OGL LOG] solve : 420 ms
nonecudaGKOIR:  Solving for p, Initial residual = 0.406397, Final residual = 9.44147e-07, No Iterations 3
linear solve p 446729
time step continuity errors : sum local = 5.62487e-10, global = 9.26455e-21, cumulative = 3.52336e-20
ExecutionTime = 15.34 s  ClockTime = 16 s

Time = 0.00210526

Courant Number mean: 0.19198 max: 0.967664
DILUPBiCGStab:  Solving for Ux, Initial residual = 0.00523041, Final residual = 7.39263e-05, No Iterations 5
DILUPBiCGStab:  Solving for Uy, Initial residual = 0.0137414, Final residual = 0.000156344, No Iterations 5
DILUPBiCGStab:  Solving for Uz, Initial residual = 0.0306209, Final residual = 0.000346451, No Iterations 5
linear solve U 864949
[OGL LOG] init_preconditioner : 0 ms
[OGL LOG] solve : 409 ms
nonecudaGKOIR:  Solving for p, Initial residual = 0.506271, Final residual = 9.3446e-07, No Iterations 3
linear solve p 437068
time step continuity errors : sum local = 4.68658e-08, global = -4.76572e-21, cumulative = 3.04679e-20
[OGL LOG] init_preconditioner : 0 ms
[OGL LOG] solve : 407 ms
nonecudaGKOIR:  Solving for p, Initial residual = 0.465369, Final residual = 7.63686e-07, No Iterations 3
linear solve p 435000
time step continuity errors : sum local = 4.01243e-08, global = 3.48157e-21, cumulative = 3.39495e-20
ExecutionTime = 17.6 s  ClockTime = 18 s

Time = 0.00315789

Courant Number mean: 0.191927 max: 0.968176
DILUPBiCGStab:  Solving for Ux, Initial residual = 0.00334646, Final residual = 4.80104e-05, No Iterations 5
DILUPBiCGStab:  Solving for Uy, Initial residual = 0.00964342, Final residual = 0.000103262, No Iterations 5
DILUPBiCGStab:  Solving for Uz, Initial residual = 0.0265545, Final residual = 0.0003165, No Iterations 5
linear solve U 848129
[OGL LOG] init_preconditioner : 0 ms
[OGL LOG] solve : 423 ms
nonecudaGKOIR:  Solving for p, Initial residual = 0.411414, Final residual = 6.76563e-07, No Iterations 3
linear solve p 450008
time step continuity errors : sum local = 4.30172e-08, global = -1.70532e-20, cumulative = 1.68963e-20
[OGL LOG] init_preconditioner : 0 ms
[OGL LOG] solve : 419 ms
nonecudaGKOIR:  Solving for p, Initial residual = 0.362314, Final residual = 6.11595e-07, No Iterations 3
linear solve p 446596
time step continuity errors : sum local = 3.96864e-08, global = -1.51739e-20, cumulative = 1.72234e-21
ExecutionTime = 19.83 s  ClockTime = 20 s

Time = 0.00421053

Courant Number mean: 0.191778 max: 0.967735
DILUPBiCGStab:  Solving for Ux, Initial residual = 0.00216247, Final residual = 2.09538e-05, No Iterations 5
DILUPBiCGStab:  Solving for Uy, Initial residual = 0.00639083, Final residual = 4.95163e-05, No Iterations 5
DILUPBiCGStab:  Solving for Uz, Initial residual = 0.0215606, Final residual = 0.000246811, No Iterations 5
linear solve U 857741
[OGL LOG] init_preconditioner : 0 ms
[OGL LOG] solve : 448 ms
nonecudaGKOIR:  Solving for p, Initial residual = 0.3535, Final residual = 5.72069e-07, No Iterations 3
linear solve p 475496
time step continuity errors : sum local = 4.1212e-08, global = 1.16339e-21, cumulative = 2.88572e-21
[OGL LOG] init_preconditioner : 0 ms
[OGL LOG] solve : 452 ms
nonecudaGKOIR:  Solving for p, Initial residual = 0.308722, Final residual = 4.73566e-07, No Iterations 3
linear solve p 480141
time step continuity errors : sum local = 3.98699e-08, global = -2.75161e-20, cumulative = -2.46304e-20
ExecutionTime = 22.17 s  ClockTime = 23 s

Time = 0.00526316

Courant Number mean: 0.191744 max: 0.967373
DILUPBiCGStab:  Solving for Ux, Initial residual = 0.0015536, Final residual = 1.4859e-05, No Iterations 5
DILUPBiCGStab:  Solving for Uy, Initial residual = 0.0047053, Final residual = 3.22519e-05, No Iterations 5
DILUPBiCGStab:  Solving for Uz, Initial residual = 0.0193674, Final residual = 0.000209667, No Iterations 5
linear solve U 846371
[OGL LOG] init_preconditioner : 0 ms
[OGL LOG] solve : 451 ms
nonecudaGKOIR:  Solving for p, Initial residual = 0.298709, Final residual = 4.50366e-07, No Iterations 3
linear solve p 478553
time step continuity errors : sum local = 4.02937e-08, global = 2.90778e-21, cumulative = -2.17226e-20
[OGL LOG] init_preconditioner : 0 ms
[OGL LOG] solve : 451 ms
nonecudaGKOIR:  Solving for p, Initial residual = 0.254887, Final residual = 3.83234e-07, No Iterations 3
linear solve p 477993
time step continuity errors : sum local = 3.96308e-08, global = 2.6459e-20, cumulative = 4.73639e-21
ExecutionTime = 24.47 s  ClockTime = 25 s

Time = 0.00631579

Courant Number mean: 0.191698 max: 0.967609
DILUPBiCGStab:  Solving for Ux, Initial residual = 0.00118713, Final residual = 6.92365e-06, No Iterations 5
DILUPBiCGStab:  Solving for Uy, Initial residual = 0.00362624, Final residual = 1.71248e-05, No Iterations 5
DILUPBiCGStab:  Solving for Uz, Initial residual = 0.0158063, Final residual = 0.000158341, No Iterations 5
linear solve U 855684
[OGL LOG] init_preconditioner : 0 ms
[OGL LOG] solve : 401 ms
nonecudaGKOIR:  Solving for p, Initial residual = 0.26249, Final residual = 3.82436e-07, No Iterations 3
linear solve p 427797
time step continuity errors : sum local = 4.03992e-08, global = -2.87919e-21, cumulative = 1.85719e-21
[OGL LOG] init_preconditioner : 0 ms
[OGL LOG] solve : 433 ms
nonecudaGKOIR:  Solving for p, Initial residual = 0.223501, Final residual = 3.15786e-07, No Iterations 3
linear solve p 460510
time step continuity errors : sum local = 3.97586e-08, global = 6.78223e-21, cumulative = 8.63943e-21
ExecutionTime = 26.72 s  ClockTime = 27 s

Time = 0.00736842

Courant Number mean: 0.191678 max: 0.967284
DILUPBiCGStab:  Solving for Ux, Initial residual = 0.000948521, Final residual = 5.43702e-06, No Iterations 5
DILUPBiCGStab:  Solving for Uy, Initial residual = 0.00293451, Final residual = 1.32022e-05, No Iterations 5
DILUPBiCGStab:  Solving for Uz, Initial residual = 0.0131969, Final residual = 0.00012624, No Iterations 5
linear solve U 856412
[OGL LOG] init_preconditioner : 0 ms
[OGL LOG] solve : 427 ms
nonecudaGKOIR:  Solving for p, Initial residual = 0.223633, Final residual = 3.0572e-07, No Iterations 3
linear solve p 455106
time step continuity errors : sum local = 3.96916e-08, global = -1.32975e-21, cumulative = 7.30967e-21
[OGL LOG] init_preconditioner : 0 ms
[OGL LOG] solve : 435 ms
nonecudaGKOIR:  Solving for p, Initial residual = 0.187993, Final residual = 2.63349e-07, No Iterations 3
linear solve p 462118
time step continuity errors : sum local = 3.96186e-08, global = 2.93474e-21, cumulative = 1.02444e-20
ExecutionTime = 28.99 s  ClockTime = 29 s

Time = 0.00842105

Courant Number mean: 0.191661 max: 0.967486
DILUPBiCGStab:  Solving for Ux, Initial residual = 0.0007776, Final residual = 3.6249e-06, No Iterations 5
DILUPBiCGStab:  Solving for Uy, Initial residual = 0.00239941, Final residual = 8.1709e-06, No Iterations 5
DILUPBiCGStab:  Solving for Uz, Initial residual = 0.0105103, Final residual = 9.05781e-05, No Iterations 5
linear solve U 848624
[OGL LOG] init_preconditioner : 0 ms
[OGL LOG] solve : 422 ms
nonecudaGKOIR:  Solving for p, Initial residual = 0.197412, Final residual = 2.56272e-07, No Iterations 3
linear solve p 448447
time step continuity errors : sum local = 4.0131e-08, global = -5.03427e-21, cumulative = 5.21014e-21
[OGL LOG] init_preconditioner : 0 ms
[OGL LOG] solve : 422 ms
nonecudaGKOIR:  Solving for p, Initial residual = 0.165831, Final residual = 2.31183e-07, No Iterations 3
linear solve p 452149
time step continuity errors : sum local = 3.9702e-08, global = -2.30189e-22, cumulative = 4.97995e-21
ExecutionTime = 31.24 s  ClockTime = 32 s

Time = 0.00947368

Courant Number mean: 0.191651 max: 0.967297
DILUPBiCGStab:  Solving for Ux, Initial residual = 0.000646674, Final residual = 2.70453e-06, No Iterations 5
DILUPBiCGStab:  Solving for Uy, Initial residual = 0.00201449, Final residual = 6.9551e-06, No Iterations 5
DILUPBiCGStab:  Solving for Uz, Initial residual = 0.00861954, Final residual = 7.16426e-05, No Iterations 5
linear solve U 844950
[OGL LOG] init_preconditioner : 0 ms
[OGL LOG] solve : 425 ms
nonecudaGKOIR:  Solving for p, Initial residual = 0.16913, Final residual = 2.18448e-07, No Iterations 3
linear solve p 453011
time step continuity errors : sum local = 3.95762e-08, global = 8.99223e-21, cumulative = 1.39722e-20
[OGL LOG] init_preconditioner : 0 ms
[OGL LOG] solve : 422 ms
nonecudaGKOIR:  Solving for p, Initial residual = 0.140913, Final residual = 1.77954e-07, No Iterations 3
linear solve p 448947
time step continuity errors : sum local = 3.96112e-08, global = 7.49088e-23, cumulative = 1.40471e-20
ExecutionTime = 33.51 s  ClockTime = 34 s

Time = 0.0105263

Courant Number mean: 0.191644 max: 0.96742
DILUPBiCGStab:  Solving for Ux, Initial residual = 0.000544294, Final residual = 2.23641e-06, No Iterations 5
DILUPBiCGStab:  Solving for Uy, Initial residual = 0.00169194, Final residual = 4.7005e-06, No Iterations 5
DILUPBiCGStab:  Solving for Uz, Initial residual = 0.00688895, Final residual = 5.15089e-05, No Iterations 5
linear solve U 849833
[OGL LOG] init_preconditioner : 0 ms
[OGL LOG] solve : 383 ms
nonecudaGKOIR:  Solving for p, Initial residual = 0.1492, Final residual = 1.96931e-07, No Iterations 3
linear solve p 409665
time step continuity errors : sum local = 3.99552e-08, global = 1.88642e-21, cumulative = 1.59335e-20
[OGL LOG] init_preconditioner : 0 ms
[OGL LOG] solve : 390 ms
nonecudaGKOIR:  Solving for p, Initial residual = 0.124259, Final residual = 1.66809e-07, No Iterations 3
linear solve p 417563
time step continuity errors : sum local = 3.96676e-08, global = -1.21655e-21, cumulative = 1.4717e-20
ExecutionTime = 35.68 s  ClockTime = 36 s

End

