/*---------------------------------------------------------------------------*\
  =========                 |
  \\      /  F ield         | OpenFOAM: The Open Source CFD Toolbox
   \\    /   O peration     | Website:  https://openfoam.org
    \\  /    A nd           | Version:  8
     \\/     M anipulation  |
\*---------------------------------------------------------------------------*/
Build  : 8-ef60d22ea792
Exec   : icoFoam
Date   : Sep 11 2021
Time   : 14:05:50
Host   : "uc2n513.localdomain"
PID    : 224069
I/O    : uncollated
Case   : /pfs/data5/home/kit/scc/nq7776/data/code/OBR/lidDrivenCavity3D/Variation_init/100/Variation_mesh/30/Variation_matrix_solver/CG_BJ_CUDA/1631361947
nProcs : 1
sigFpe : Enabling floating point exception trapping (FOAM_SIGFPE).
fileModificationChecking : Monitoring run-time modified files using timeStampMaster (fileModificationSkew 10)
allowSystemOperations : Allowing user-supplied system call operations

// * * * * * * * * * * * * * * * * * * * * * * * * * * * * * * * * * * * * * //
Create time

Create mesh for time = 0

Reading transportProperties

Reading field p

Reading field U

Reading/calculating face flux field phi


Starting time loop

Time = 0.00333333

Courant Number mean: 0.190329 max: 0.906243
DILUPBiCGStab:  Solving for Ux, Initial residual = 0.0900001, Final residual = 1.98559e-06, No Iterations 5
DILUPBiCGStab:  Solving for Uy, Initial residual = 0.151485, Final residual = 4.47204e-06, No Iterations 5
DILUPBiCGStab:  Solving for Uz, Initial residual = 0.230061, Final residual = 9.55411e-06, No Iterations 5
linear solve U 19960
[OGL LOG] init_host_sparsity_pattern : 7 ms
[OGL LOG] matrix not stored update host matrix
[OGL LOG] update_host_mtx : 3 ms
[OGL LOG] matrix is not yet sorted, compute sorting idxs
[OGL LOG] compute_sort : 189 ms
[OGL LOG] matrix is not yet sorted, sorting host matrix
[OGL LOG] sort_host_mtx_sparsity_pattern : 4 ms
[OGL LOG] sort_host_mtx : 2 ms
[OGL LOG] init_preconditioner : 3 ms
[OGL LOG] solve : 31 ms
BJcudaGKOCG:  Solving for p, Initial residual = 0.532173, Final residual = 9.85655e-07, No Iterations 221
linear solve p 982668
time step continuity errors : sum local = 4.61717e-09, global = 1.65824e-21, cumulative = 1.65824e-21
[OGL LOG] init_preconditioner : 0 ms
[OGL LOG] solve : 31 ms
BJcudaGKOCG:  Solving for p, Initial residual = 0.319499, Final residual = 9.51744e-07, No Iterations 223
linear solve p 32138
time step continuity errors : sum local = 2.93153e-09, global = -9.05069e-20, cumulative = -8.88487e-20
ExecutionTime = 1.19 s  ClockTime = 2 s

Time = 0.00666667

Courant Number mean: 0.190231 max: 0.898516
DILUPBiCGStab:  Solving for Ux, Initial residual = 0.00891596, Final residual = 1.50307e-06, No Iterations 5
DILUPBiCGStab:  Solving for Uy, Initial residual = 0.0168193, Final residual = 2.62168e-06, No Iterations 5
DILUPBiCGStab:  Solving for Uz, Initial residual = 0.0471934, Final residual = 5.63219e-06, No Iterations 5
linear solve U 18076
[OGL LOG] init_preconditioner : 0 ms
[OGL LOG] solve : 29 ms
BJcudaGKOCG:  Solving for p, Initial residual = 0.154332, Final residual = 8.90994e-07, No Iterations 208
linear solve p 30149
time step continuity errors : sum local = 1.00164e-06, global = -5.08909e-20, cumulative = -1.3974e-19
[OGL LOG] init_preconditioner : 0 ms
[OGL LOG] solve : 28 ms
BJcudaGKOCG:  Solving for p, Initial residual = 0.0941554, Final residual = 9.61444e-07, No Iterations 205
linear solve p 29552
time step continuity errors : sum local = 8.89294e-07, global = 5.88332e-20, cumulative = -8.09064e-20
ExecutionTime = 1.28 s  ClockTime = 2 s

Time = 0.01

Courant Number mean: 0.190017 max: 0.896754
DILUPBiCGStab:  Solving for Ux, Initial residual = 0.00114169, Final residual = 3.28825e-07, No Iterations 5
DILUPBiCGStab:  Solving for Uy, Initial residual = 0.00263876, Final residual = 3.33636e-07, No Iterations 5
DILUPBiCGStab:  Solving for Uz, Initial residual = 0.0129717, Final residual = 1.5544e-06, No Iterations 5
linear solve U 17600
[OGL LOG] init_preconditioner : 0 ms
[OGL LOG] solve : 26 ms
BJcudaGKOCG:  Solving for p, Initial residual = 0.0505188, Final residual = 8.93058e-07, No Iterations 189
linear solve p 27703
time step continuity errors : sum local = 8.716e-07, global = -1.34564e-19, cumulative = -2.1547e-19
[OGL LOG] init_preconditioner : 0 ms
[OGL LOG] solve : 26 ms
BJcudaGKOCG:  Solving for p, Initial residual = 0.0335405, Final residual = 9.43757e-07, No Iterations 187
linear solve p 27175
time step continuity errors : sum local = 8.83348e-07, global = 5.15756e-20, cumulative = -1.63894e-19
ExecutionTime = 1.37 s  ClockTime = 2 s

Time = 0.0133333

Courant Number mean: 0.189923 max: 0.896669
DILUPBiCGStab:  Solving for Ux, Initial residual = 0.000490778, Final residual = 9.88228e-08, No Iterations 5
DILUPBiCGStab:  Solving for Uy, Initial residual = 0.00097949, Final residual = 1.11171e-07, No Iterations 5
DILUPBiCGStab:  Solving for Uz, Initial residual = 0.00353589, Final residual = 4.5256e-07, No Iterations 5
linear solve U 17896
[OGL LOG] init_preconditioner : 0 ms
[OGL LOG] solve : 25 ms
BJcudaGKOCG:  Solving for p, Initial residual = 0.0231885, Final residual = 9.98613e-07, No Iterations 180
linear solve p 26325
time step continuity errors : sum local = 8.87934e-07, global = -7.18973e-20, cumulative = -2.35792e-19
[OGL LOG] init_preconditioner : 0 ms
[OGL LOG] solve : 25 ms
BJcudaGKOCG:  Solving for p, Initial residual = 0.0159625, Final residual = 9.30721e-07, No Iterations 178
linear solve p 26452
time step continuity errors : sum local = 8.84279e-07, global = 2.63567e-20, cumulative = -2.09435e-19
ExecutionTime = 1.45 s  ClockTime = 2 s

Time = 0.0166667

Courant Number mean: 0.189872 max: 0.896515
DILUPBiCGStab:  Solving for Ux, Initial residual = 0.000223461, Final residual = 4.35849e-08, No Iterations 5
DILUPBiCGStab:  Solving for Uy, Initial residual = 0.00048273, Final residual = 4.73511e-08, No Iterations 5
DILUPBiCGStab:  Solving for Uz, Initial residual = 0.0017475, Final residual = 2.37782e-07, No Iterations 5
linear solve U 17788
[OGL LOG] init_preconditioner : 0 ms
[OGL LOG] solve : 13 ms
BJcudaGKOCG:  Solving for p, Initial residual = 0.011503, Final residual = 9.40206e-07, No Iterations 90
linear solve p 13874
time step continuity errors : sum local = 8.84154e-07, global = 7.50928e-20, cumulative = -1.34342e-19
[OGL LOG] init_preconditioner : 0 ms
[OGL LOG] solve : 12 ms
BJcudaGKOCG:  Solving for p, Initial residual = 0.00800249, Final residual = 9.43196e-07, No Iterations 88
linear solve p 13493
time step continuity errors : sum local = 8.8442e-07, global = 1.66229e-21, cumulative = -1.3268e-19
ExecutionTime = 1.51 s  ClockTime = 2 s

Time = 0.02

Courant Number mean: 0.189842 max: 0.896522
DILUPBiCGStab:  Solving for Ux, Initial residual = 0.000133114, Final residual = 2.24512e-08, No Iterations 5
DILUPBiCGStab:  Solving for Uy, Initial residual = 0.000257567, Final residual = 2.43599e-08, No Iterations 5
DILUPBiCGStab:  Solving for Uz, Initial residual = 0.000891111, Final residual = 1.1504e-07, No Iterations 5
linear solve U 17590
[OGL LOG] init_preconditioner : 0 ms
[OGL LOG] solve : 11 ms
BJcudaGKOCG:  Solving for p, Initial residual = 0.00603455, Final residual = 9.21006e-07, No Iterations 82
linear solve p 12697
time step continuity errors : sum local = 8.84831e-07, global = -1.35439e-19, cumulative = -2.68119e-19
[OGL LOG] init_preconditioner : 0 ms
[OGL LOG] solve : 11 ms
BJcudaGKOCG:  Solving for p, Initial residual = 0.0042415, Final residual = 9.57555e-07, No Iterations 79
linear solve p 12305
time step continuity errors : sum local = 8.84314e-07, global = -6.85884e-20, cumulative = -3.36708e-19
ExecutionTime = 1.56 s  ClockTime = 2 s

Time = 0.0233333

Courant Number mean: 0.189822 max: 0.896474
DILUPBiCGStab:  Solving for Ux, Initial residual = 7.53295e-05, Final residual = 1.0813e-08, No Iterations 5
DILUPBiCGStab:  Solving for Uy, Initial residual = 0.000144673, Final residual = 1.28162e-08, No Iterations 5
DILUPBiCGStab:  Solving for Uz, Initial residual = 0.000592186, Final residual = 6.87365e-08, No Iterations 5
linear solve U 17536
[OGL LOG] init_preconditioner : 0 ms
[OGL LOG] solve : 11 ms
BJcudaGKOCG:  Solving for p, Initial residual = 0.00318936, Final residual = 9.26669e-07, No Iterations 77
linear solve p 11974
time step continuity errors : sum local = 8.84501e-07, global = -1.74755e-19, cumulative = -5.11462e-19
[OGL LOG] init_preconditioner : 0 ms
[OGL LOG] solve : 10 ms
BJcudaGKOCG:  Solving for p, Initial residual = 0.00224735, Final residual = 9.25973e-07, No Iterations 75
linear solve p 11681
time step continuity errors : sum local = 8.84419e-07, global = -1.18418e-19, cumulative = -6.2988e-19
ExecutionTime = 1.62 s  ClockTime = 2 s

Time = 0.0266667

Courant Number mean: 0.18981 max: 0.89647
DILUPBiCGStab:  Solving for Ux, Initial residual = 4.87154e-05, Final residual = 6.25336e-09, No Iterations 5
DILUPBiCGStab:  Solving for Uy, Initial residual = 8.43099e-05, Final residual = 6.47226e-09, No Iterations 5
DILUPBiCGStab:  Solving for Uz, Initial residual = 0.000378704, Final residual = 4.42989e-08, No Iterations 5
linear solve U 17596
[OGL LOG] init_preconditioner : 0 ms
[OGL LOG] solve : 10 ms
BJcudaGKOCG:  Solving for p, Initial residual = 0.00173579, Final residual = 9.10891e-07, No Iterations 73
linear solve p 11469
time step continuity errors : sum local = 8.84524e-07, global = 9.97304e-20, cumulative = -5.3015e-19
[OGL LOG] init_preconditioner : 0 ms
[OGL LOG] solve : 10 ms
BJcudaGKOCG:  Solving for p, Initial residual = 0.00122955, Final residual = 9.75665e-07, No Iterations 71
linear solve p 11131
time step continuity errors : sum local = 8.84297e-07, global = -1.32811e-20, cumulative = -5.43431e-19
ExecutionTime = 1.67 s  ClockTime = 2 s

Time = 0.03

Courant Number mean: 0.189802 max: 0.896454
DILUPBiCGStab:  Solving for Ux, Initial residual = 3.07745e-05, Final residual = 2.97299e-09, No Iterations 5
DILUPBiCGStab:  Solving for Uy, Initial residual = 5.3216e-05, Final residual = 3.34733e-09, No Iterations 5
DILUPBiCGStab:  Solving for Uz, Initial residual = 0.000280861, Final residual = 2.40146e-08, No Iterations 5
linear solve U 17612
[OGL LOG] init_preconditioner : 0 ms
[OGL LOG] solve : 12 ms
BJcudaGKOCG:  Solving for p, Initial residual = 0.000939827, Final residual = 9.34769e-07, No Iterations 71
linear solve p 13249
time step continuity errors : sum local = 8.84455e-07, global = 1.13403e-19, cumulative = -4.30028e-19
[OGL LOG] init_preconditioner : 0 ms
[OGL LOG] solve : 10 ms
BJcudaGKOCG:  Solving for p, Initial residual = 0.000668867, Final residual = 9.71375e-07, No Iterations 69
linear solve p 10882
time step continuity errors : sum local = 8.84343e-07, global = -3.44893e-20, cumulative = -4.64517e-19
ExecutionTime = 1.73 s  ClockTime = 2 s

Time = 0.0333333

Courant Number mean: 0.189797 max: 0.896449
DILUPBiCGStab:  Solving for Ux, Initial residual = 2.09314e-05, Final residual = 1.84736e-09, No Iterations 5
DILUPBiCGStab:  Solving for Uy, Initial residual = 3.32588e-05, Final residual = 1.66294e-09, No Iterations 5
DILUPBiCGStab:  Solving for Uz, Initial residual = 0.000196558, Final residual = 1.76363e-08, No Iterations 5
linear solve U 17720
[OGL LOG] init_preconditioner : 0 ms
[OGL LOG] solve : 9 ms
BJcudaGKOCG:  Solving for p, Initial residual = 0.000521028, Final residual = 9.31457e-07, No Iterations 65
linear solve p 10335
time step continuity errors : sum local = 8.84458e-07, global = -1.98563e-20, cumulative = -4.84374e-19
[OGL LOG] init_preconditioner : 0 ms
[OGL LOG] solve : 9 ms
BJcudaGKOCG:  Solving for p, Initial residual = 0.000372152, Final residual = 9.13979e-07, No Iterations 63
linear solve p 10126
time step continuity errors : sum local = 8.84291e-07, global = -2.98588e-20, cumulative = -5.14233e-19
ExecutionTime = 1.78 s  ClockTime = 2 s

End

