/*---------------------------------------------------------------------------*\
  =========                 |
  \\      /  F ield         | OpenFOAM: The Open Source CFD Toolbox
   \\    /   O peration     | Website:  https://openfoam.org
    \\  /    A nd           | Version:  8
     \\/     M anipulation  |
\*---------------------------------------------------------------------------*/
Build  : 8-ef60d22ea792
Exec   : icoFoam
Date   : Sep 11 2021
Time   : 13:35:44
Host   : "uc2n442.localdomain"
PID    : 3705278
I/O    : uncollated
Case   : /pfs/data5/home/kit/scc/nq7776/data/code/OBR/lidDrivenCavity3D/Variation_init/100/Variation_mesh/15/Variation_matrix_solver/BiCGStab_NoPrecond_Serial/1631360144
nProcs : 1
sigFpe : Enabling floating point exception trapping (FOAM_SIGFPE).
fileModificationChecking : Monitoring run-time modified files using timeStampMaster (fileModificationSkew 10)
allowSystemOperations : Allowing user-supplied system call operations

// * * * * * * * * * * * * * * * * * * * * * * * * * * * * * * * * * * * * * //
Create time

Create mesh for time = 0

Reading transportProperties

Reading field p

Reading field U

Reading/calculating face flux field phi


Starting time loop

Time = 0.00666667

Courant Number mean: 0.187217 max: 0.790057
DILUPBiCGStab:  Solving for Ux, Initial residual = 0.0835146, Final residual = 3.83698e-08, No Iterations 5
DILUPBiCGStab:  Solving for Uy, Initial residual = 0.111321, Final residual = 3.87051e-08, No Iterations 5
DILUPBiCGStab:  Solving for Uz, Initial residual = 0.145849, Final residual = 7.53903e-08, No Iterations 5
linear solve U 2278
nonePBiCGStab:  Solving for p, Initial residual = 0.518065, Final residual = 8.30655e-07, No Iterations 107
linear solve p 6349
time step continuity errors : sum local = 2.32426e-08, global = 1.73476e-19, cumulative = 1.73476e-19
nonePBiCGStab:  Solving for p, Initial residual = 0.278328, Final residual = 1.19251e-07, No Iterations 108
linear solve p 6259
time step continuity errors : sum local = 1.76718e-09, global = -1.80128e-19, cumulative = -6.65191e-21
ExecutionTime = 0.07 s  ClockTime = 0 s

Time = 0.0133333

Courant Number mean: 0.185914 max: 0.794343
DILUPBiCGStab:  Solving for Ux, Initial residual = 0.0162419, Final residual = 5.6931e-08, No Iterations 5
DILUPBiCGStab:  Solving for Uy, Initial residual = 0.0262108, Final residual = 4.9848e-08, No Iterations 5
DILUPBiCGStab:  Solving for Uz, Initial residual = 0.0639962, Final residual = 6.2658e-08, No Iterations 5
linear solve U 1818
nonePBiCGStab:  Solving for p, Initial residual = 0.140439, Final residual = 5.26631e-07, No Iterations 103
linear solve p 5985
time step continuity errors : sum local = 1.05701e-08, global = -2.91786e-19, cumulative = -2.98438e-19
nonePBiCGStab:  Solving for p, Initial residual = 0.0811073, Final residual = 5.79402e-07, No Iterations 98
linear solve p 5435
time step continuity errors : sum local = 1.20343e-08, global = 3.68276e-19, cumulative = 6.98378e-20
ExecutionTime = 0.08 s  ClockTime = 0 s

Time = 0.02

Courant Number mean: 0.185268 max: 0.792428
DILUPBiCGStab:  Solving for Ux, Initial residual = 0.00200617, Final residual = 2.69928e-09, No Iterations 5
DILUPBiCGStab:  Solving for Uy, Initial residual = 0.00389303, Final residual = 2.46473e-09, No Iterations 5
DILUPBiCGStab:  Solving for Uz, Initial residual = 0.0127713, Final residual = 2.74465e-08, No Iterations 5
linear solve U 1815
nonePBiCGStab:  Solving for p, Initial residual = 0.0223565, Final residual = 7.69751e-07, No Iterations 96
linear solve p 5328
time step continuity errors : sum local = 1.57594e-08, global = -7.18561e-19, cumulative = -6.48723e-19
nonePBiCGStab:  Solving for p, Initial residual = 0.0134902, Final residual = 8.99716e-07, No Iterations 90
linear solve p 5000
time step continuity errors : sum local = 1.84365e-08, global = 8.75364e-20, cumulative = -5.61187e-19
ExecutionTime = 0.1 s  ClockTime = 0 s

Time = 0.0266667

Courant Number mean: 0.185122 max: 0.792281
DILUPBiCGStab:  Solving for Ux, Initial residual = 0.000634232, Final residual = 1.18757e-09, No Iterations 5
DILUPBiCGStab:  Solving for Uy, Initial residual = 0.00090924, Final residual = 1.56842e-09, No Iterations 5
DILUPBiCGStab:  Solving for Uz, Initial residual = 0.00477117, Final residual = 6.21846e-09, No Iterations 5
linear solve U 1814
nonePBiCGStab:  Solving for p, Initial residual = 0.00547289, Final residual = 8.87918e-07, No Iterations 84
linear solve p 4749
time step continuity errors : sum local = 1.71693e-08, global = -1.7473e-19, cumulative = -7.35917e-19
nonePBiCGStab:  Solving for p, Initial residual = 0.00359514, Final residual = 5.88797e-07, No Iterations 83
linear solve p 4606
time step continuity errors : sum local = 1.20357e-08, global = 1.39685e-19, cumulative = -5.96231e-19
ExecutionTime = 0.11 s  ClockTime = 0 s

Time = 0.0333333

Courant Number mean: 0.185035 max: 0.792187
DILUPBiCGStab:  Solving for Ux, Initial residual = 0.000243197, Final residual = 3.30274e-10, No Iterations 5
DILUPBiCGStab:  Solving for Uy, Initial residual = 0.000420587, Final residual = 7.69953e-10, No Iterations 5
DILUPBiCGStab:  Solving for Uz, Initial residual = 0.00232515, Final residual = 4.42763e-09, No Iterations 5
linear solve U 1815
nonePBiCGStab:  Solving for p, Initial residual = 0.00189261, Final residual = 9.97859e-07, No Iterations 77
linear solve p 4652
time step continuity errors : sum local = 1.99701e-08, global = 4.04949e-19, cumulative = -1.91282e-19
nonePBiCGStab:  Solving for p, Initial residual = 0.00125853, Final residual = 6.71591e-07, No Iterations 35
linear solve p 2121
time step continuity errors : sum local = 9.96855e-09, global = -8.76973e-20, cumulative = -2.7898e-19
ExecutionTime = 0.12 s  ClockTime = 0 s

Time = 0.04

Courant Number mean: 0.184989 max: 0.792067
DILUPBiCGStab:  Solving for Ux, Initial residual = 0.000127683, Final residual = 1.47802e-10, No Iterations 5
DILUPBiCGStab:  Solving for Uy, Initial residual = 0.000188974, Final residual = 2.65836e-10, No Iterations 5
DILUPBiCGStab:  Solving for Uz, Initial residual = 0.00136939, Final residual = 2.37126e-09, No Iterations 5
linear solve U 1834
nonePBiCGStab:  Solving for p, Initial residual = 0.000633079, Final residual = 9.98371e-07, No Iterations 34
linear solve p 2059
time step continuity errors : sum local = 1.94976e-08, global = -8.1214e-20, cumulative = -3.60194e-19
nonePBiCGStab:  Solving for p, Initial residual = 0.000414125, Final residual = 8.3769e-07, No Iterations 32
linear solve p 1929
time step continuity errors : sum local = 1.11393e-08, global = -4.47753e-20, cumulative = -4.04969e-19
ExecutionTime = 0.13 s  ClockTime = 0 s

Time = 0.0466667

Courant Number mean: 0.184967 max: 0.792015
DILUPBiCGStab:  Solving for Ux, Initial residual = 6.81631e-05, Final residual = 6.55062e-11, No Iterations 5
DILUPBiCGStab:  Solving for Uy, Initial residual = 0.000104065, Final residual = 1.25432e-10, No Iterations 5
DILUPBiCGStab:  Solving for Uz, Initial residual = 0.000802814, Final residual = 1.48566e-09, No Iterations 5
linear solve U 1912
nonePBiCGStab:  Solving for p, Initial residual = 0.000265161, Final residual = 8.97662e-07, No Iterations 31
linear solve p 1811
time step continuity errors : sum local = 1.03801e-08, global = 1.36508e-19, cumulative = -2.68461e-19
nonePBiCGStab:  Solving for p, Initial residual = 0.000183027, Final residual = 8.92714e-07, No Iterations 29
linear solve p 1629
time step continuity errors : sum local = 1.03569e-08, global = 1.18029e-19, cumulative = -1.50432e-19
ExecutionTime = 0.13 s  ClockTime = 0 s

Time = 0.0533333

Courant Number mean: 0.184955 max: 0.791982
DILUPBiCGStab:  Solving for Ux, Initial residual = 3.96703e-05, Final residual = 3.21418e-11, No Iterations 5
DILUPBiCGStab:  Solving for Uy, Initial residual = 5.7126e-05, Final residual = 2.66802e-11, No Iterations 5
DILUPBiCGStab:  Solving for Uz, Initial residual = 0.000495674, Final residual = 6.71293e-10, No Iterations 5
linear solve U 1872
nonePBiCGStab:  Solving for p, Initial residual = 0.000113527, Final residual = 7.92685e-07, No Iterations 29
linear solve p 1639
time step continuity errors : sum local = 1.18847e-08, global = -2.6382e-19, cumulative = -4.14252e-19
nonePBiCGStab:  Solving for p, Initial residual = 7.92919e-05, Final residual = 8.37595e-07, No Iterations 27
linear solve p 1537
time step continuity errors : sum local = 1.07555e-08, global = 3.32883e-19, cumulative = -8.13691e-20
ExecutionTime = 0.14 s  ClockTime = 0 s

Time = 0.06

Courant Number mean: 0.18495 max: 0.791965
DILUPBiCGStab:  Solving for Ux, Initial residual = 2.35625e-05, Final residual = 2.05434e-11, No Iterations 5
DILUPBiCGStab:  Solving for Uy, Initial residual = 3.28886e-05, Final residual = 1.52872e-11, No Iterations 5
DILUPBiCGStab:  Solving for Uz, Initial residual = 0.000303805, Final residual = 4.05493e-10, No Iterations 5
linear solve U 1816
nonePBiCGStab:  Solving for p, Initial residual = 5.78031e-05, Final residual = 7.88741e-07, No Iterations 27
linear solve p 1533
time step continuity errors : sum local = 1.02481e-08, global = -1.17116e-19, cumulative = -1.98485e-19
nonePBiCGStab:  Solving for p, Initial residual = 4.14837e-05, Final residual = 8.50679e-07, No Iterations 25
linear solve p 1423
time step continuity errors : sum local = 1.073e-08, global = 1.57506e-19, cumulative = -4.09799e-20
ExecutionTime = 0.15 s  ClockTime = 0 s

Time = 0.0666667

Courant Number mean: 0.184947 max: 0.791956
DILUPBiCGStab:  Solving for Ux, Initial residual = 1.42877e-05, Final residual = 1.18515e-11, No Iterations 5
DILUPBiCGStab:  Solving for Uy, Initial residual = 1.94568e-05, Final residual = 8.78967e-12, No Iterations 5
DILUPBiCGStab:  Solving for Uz, Initial residual = 0.000191183, Final residual = 2.13045e-10, No Iterations 5
linear solve U 1844
nonePBiCGStab:  Solving for p, Initial residual = 3.15447e-05, Final residual = 9.34084e-07, No Iterations 24
linear solve p 1366
time step continuity errors : sum local = 1.20122e-08, global = 6.22316e-21, cumulative = -3.47568e-20
nonePBiCGStab:  Solving for p, Initial residual = 2.33231e-05, Final residual = 9.43121e-07, No Iterations 21
linear solve p 1192
time step continuity errors : sum local = 1.19166e-08, global = 1.7298e-19, cumulative = 1.38223e-19
ExecutionTime = 0.15 s  ClockTime = 0 s

End

