/*---------------------------------------------------------------------------*\
  =========                 |
  \\      /  F ield         | OpenFOAM: The Open Source CFD Toolbox
   \\    /   O peration     | Website:  https://openfoam.org
    \\  /    A nd           | Version:  8
     \\/     M anipulation  |
\*---------------------------------------------------------------------------*/
Build  : 8-ef60d22ea792
Exec   : icoFoam
Date   : Sep 11 2021
Time   : 13:45:47
Host   : "uc2n513.localdomain"
PID    : 216783
I/O    : uncollated
Case   : /pfs/data5/home/kit/scc/nq7776/data/code/OBR/lidDrivenCavity3D/Variation_init/100/Variation_mesh/75/Variation_matrix_solver/CG_BJ_CUDA/1631360729
nProcs : 1
sigFpe : Enabling floating point exception trapping (FOAM_SIGFPE).
fileModificationChecking : Monitoring run-time modified files using timeStampMaster (fileModificationSkew 10)
allowSystemOperations : Allowing user-supplied system call operations

// * * * * * * * * * * * * * * * * * * * * * * * * * * * * * * * * * * * * * //
Create time

Create mesh for time = 0

Reading transportProperties

Reading field p

Reading field U

Reading/calculating face flux field phi


Starting time loop

Time = 0.00133333

Courant Number mean: 0.191396 max: 0.960629
DILUPBiCGStab:  Solving for Ux, Initial residual = 0.15118, Final residual = 1.71065e-05, No Iterations 5
DILUPBiCGStab:  Solving for Uy, Initial residual = 0.286633, Final residual = 4.01866e-05, No Iterations 5
DILUPBiCGStab:  Solving for Uz, Initial residual = 0.411091, Final residual = 0.000172886, No Iterations 5
linear solve U 437406
[OGL LOG] init_host_sparsity_pattern : 119 ms
[OGL LOG] matrix not stored update host matrix
[OGL LOG] update_host_mtx : 62 ms
[OGL LOG] matrix is not yet sorted, compute sorting idxs
[OGL LOG] compute_sort : 3620 ms
[OGL LOG] matrix is not yet sorted, sorting host matrix
[OGL LOG] sort_host_mtx_sparsity_pattern : 79 ms
[OGL LOG] sort_host_mtx : 49 ms
[OGL LOG] init_preconditioner : 45 ms
[OGL LOG] solve : 406 ms
BJcudaGKOCG:  Solving for p, Initial residual = 0.61762, Final residual = 9.89409e-07, No Iterations 538
linear solve p 5152638
time step continuity errors : sum local = 1.19282e-09, global = 1.97701e-20, cumulative = 1.97701e-20
[OGL LOG] init_preconditioner : 0 ms
[OGL LOG] solve : 401 ms
BJcudaGKOCG:  Solving for p, Initial residual = 0.268994, Final residual = 9.80814e-07, No Iterations 550
linear solve p 414465
time step continuity errors : sum local = 6.72391e-10, global = -2.81725e-20, cumulative = -8.40237e-21
ExecutionTime = 8.12 s  ClockTime = 8 s

Time = 0.00266667

Courant Number mean: 0.191562 max: 0.958264
DILUPBiCGStab:  Solving for Ux, Initial residual = 0.00536981, Final residual = 2.79402e-05, No Iterations 5
DILUPBiCGStab:  Solving for Uy, Initial residual = 0.0116942, Final residual = 5.4528e-05, No Iterations 5
DILUPBiCGStab:  Solving for Uz, Initial residual = 0.0561704, Final residual = 0.000161367, No Iterations 5
linear solve U 413593
[OGL LOG] init_preconditioner : 0 ms
[OGL LOG] solve : 408 ms
BJcudaGKOCG:  Solving for p, Initial residual = 0.291197, Final residual = 9.67326e-07, No Iterations 557
linear solve p 421027
time step continuity errors : sum local = 1.66007e-07, global = 7.16521e-21, cumulative = -1.23716e-21
[OGL LOG] init_preconditioner : 0 ms
[OGL LOG] solve : 429 ms
BJcudaGKOCG:  Solving for p, Initial residual = 0.210423, Final residual = 9.79566e-07, No Iterations 556
linear solve p 441920
time step continuity errors : sum local = 1.58721e-07, global = -1.84853e-20, cumulative = -1.97225e-20
ExecutionTime = 9.65 s  ClockTime = 9 s

Time = 0.004

Courant Number mean: 0.191591 max: 0.95876
DILUPBiCGStab:  Solving for Ux, Initial residual = 0.00111728, Final residual = 6.77336e-06, No Iterations 5
DILUPBiCGStab:  Solving for Uy, Initial residual = 0.00329104, Final residual = 1.48506e-05, No Iterations 5
DILUPBiCGStab:  Solving for Uz, Initial residual = 0.0228457, Final residual = 0.000101594, No Iterations 5
linear solve U 402276
[OGL LOG] init_preconditioner : 0 ms
[OGL LOG] solve : 367 ms
BJcudaGKOCG:  Solving for p, Initial residual = 0.173958, Final residual = 9.69553e-07, No Iterations 497
linear solve p 380060
time step continuity errors : sum local = 1.588e-07, global = -3.30321e-20, cumulative = -5.27546e-20
[OGL LOG] init_preconditioner : 0 ms
[OGL LOG] solve : 360 ms
BJcudaGKOCG:  Solving for p, Initial residual = 0.133646, Final residual = 9.73097e-07, No Iterations 495
linear solve p 373684
time step continuity errors : sum local = 1.58207e-07, global = 5.36926e-21, cumulative = -4.73853e-20
ExecutionTime = 11.04 s  ClockTime = 11 s

Time = 0.00533333

Courant Number mean: 0.19157 max: 0.958639
DILUPBiCGStab:  Solving for Ux, Initial residual = 0.000641057, Final residual = 2.6433e-06, No Iterations 5
DILUPBiCGStab:  Solving for Uy, Initial residual = 0.00199421, Final residual = 7.45614e-06, No Iterations 5
DILUPBiCGStab:  Solving for Uz, Initial residual = 0.0110211, Final residual = 5.5275e-05, No Iterations 5
linear solve U 407353
[OGL LOG] init_preconditioner : 0 ms
[OGL LOG] solve : 377 ms
BJcudaGKOCG:  Solving for p, Initial residual = 0.124261, Final residual = 9.96863e-07, No Iterations 490
linear solve p 390506
time step continuity errors : sum local = 1.58756e-07, global = -2.40427e-21, cumulative = -4.97896e-20
[OGL LOG] init_preconditioner : 0 ms
[OGL LOG] solve : 358 ms
BJcudaGKOCG:  Solving for p, Initial residual = 0.0986914, Final residual = 9.55774e-07, No Iterations 489
linear solve p 371026
time step continuity errors : sum local = 1.58218e-07, global = -1.47904e-20, cumulative = -6.458e-20
ExecutionTime = 12.45 s  ClockTime = 12 s

Time = 0.00666667

Courant Number mean: 0.191555 max: 0.958628
DILUPBiCGStab:  Solving for Ux, Initial residual = 0.000431809, Final residual = 1.70322e-06, No Iterations 5
DILUPBiCGStab:  Solving for Uy, Initial residual = 0.00139011, Final residual = 3.98112e-06, No Iterations 5
DILUPBiCGStab:  Solving for Uz, Initial residual = 0.00712453, Final residual = 2.90968e-05, No Iterations 5
linear solve U 403982
[OGL LOG] init_preconditioner : 0 ms
[OGL LOG] solve : 354 ms
BJcudaGKOCG:  Solving for p, Initial residual = 0.0914484, Final residual = 9.35824e-07, No Iterations 486
linear solve p 367898
time step continuity errors : sum local = 1.58549e-07, global = 2.72963e-20, cumulative = -3.72837e-20
[OGL LOG] init_preconditioner : 0 ms
[OGL LOG] solve : 359 ms
BJcudaGKOCG:  Solving for p, Initial residual = 0.072696, Final residual = 9.8217e-07, No Iterations 484
linear solve p 372876
time step continuity errors : sum local = 1.58277e-07, global = -1.43016e-20, cumulative = -5.15853e-20
ExecutionTime = 13.84 s  ClockTime = 13 s

Time = 0.008

Courant Number mean: 0.191545 max: 0.958667
DILUPBiCGStab:  Solving for Ux, Initial residual = 0.000309334, Final residual = 1.16588e-06, No Iterations 5
DILUPBiCGStab:  Solving for Uy, Initial residual = 0.00102741, Final residual = 2.92285e-06, No Iterations 5
DILUPBiCGStab:  Solving for Uz, Initial residual = 0.00471865, Final residual = 2.03607e-05, No Iterations 5
linear solve U 413049
[OGL LOG] init_preconditioner : 0 ms
[OGL LOG] solve : 351 ms
BJcudaGKOCG:  Solving for p, Initial residual = 0.0703149, Final residual = 9.82153e-07, No Iterations 481
linear solve p 363840
time step continuity errors : sum local = 1.58235e-07, global = 1.90139e-20, cumulative = -3.25714e-20
[OGL LOG] init_preconditioner : 0 ms
[OGL LOG] solve : 356 ms
BJcudaGKOCG:  Solving for p, Initial residual = 0.0564603, Final residual = 9.70249e-07, No Iterations 478
linear solve p 369697
time step continuity errors : sum local = 1.58198e-07, global = -1.58211e-20, cumulative = -4.83925e-20
ExecutionTime = 15.24 s  ClockTime = 15 s

Time = 0.00933333

Courant Number mean: 0.191534 max: 0.958627
DILUPBiCGStab:  Solving for Ux, Initial residual = 0.000230422, Final residual = 8.65529e-07, No Iterations 5
DILUPBiCGStab:  Solving for Uy, Initial residual = 0.000779243, Final residual = 1.94698e-06, No Iterations 5
DILUPBiCGStab:  Solving for Uz, Initial residual = 0.00332411, Final residual = 1.31447e-05, No Iterations 5
linear solve U 403275
[OGL LOG] init_preconditioner : 0 ms
[OGL LOG] solve : 349 ms
BJcudaGKOCG:  Solving for p, Initial residual = 0.0544287, Final residual = 9.52227e-07, No Iterations 476
linear solve p 362572
time step continuity errors : sum local = 1.58429e-07, global = 2.52675e-20, cumulative = -2.31249e-20
[OGL LOG] init_preconditioner : 0 ms
[OGL LOG] solve : 347 ms
BJcudaGKOCG:  Solving for p, Initial residual = 0.0437515, Final residual = 9.86313e-07, No Iterations 474
linear solve p 360586
time step continuity errors : sum local = 1.58266e-07, global = 1.19801e-20, cumulative = -1.11448e-20
ExecutionTime = 16.61 s  ClockTime = 16 s

Time = 0.0106667

Courant Number mean: 0.191529 max: 0.958654
DILUPBiCGStab:  Solving for Ux, Initial residual = 0.000175074, Final residual = 6.50328e-07, No Iterations 5
DILUPBiCGStab:  Solving for Uy, Initial residual = 0.000604401, Final residual = 1.6523e-06, No Iterations 5
DILUPBiCGStab:  Solving for Uz, Initial residual = 0.00236598, Final residual = 9.56411e-06, No Iterations 5
linear solve U 401562
[OGL LOG] init_preconditioner : 0 ms
[OGL LOG] solve : 344 ms
BJcudaGKOCG:  Solving for p, Initial residual = 0.0429327, Final residual = 9.85704e-07, No Iterations 470
linear solve p 357761
time step continuity errors : sum local = 1.58155e-07, global = 1.82392e-20, cumulative = 7.09438e-21
[OGL LOG] init_preconditioner : 0 ms
[OGL LOG] solve : 343 ms
BJcudaGKOCG:  Solving for p, Initial residual = 0.0346716, Final residual = 9.44707e-07, No Iterations 469
linear solve p 356633
time step continuity errors : sum local = 1.582e-07, global = 1.73816e-20, cumulative = 2.4476e-20
ExecutionTime = 17.96 s  ClockTime = 18 s

Time = 0.012

Courant Number mean: 0.191524 max: 0.958631
DILUPBiCGStab:  Solving for Ux, Initial residual = 0.000135637, Final residual = 4.72654e-07, No Iterations 5
DILUPBiCGStab:  Solving for Uy, Initial residual = 0.000471843, Final residual = 1.20138e-06, No Iterations 5
DILUPBiCGStab:  Solving for Uz, Initial residual = 0.0017346, Final residual = 6.9621e-06, No Iterations 5
linear solve U 401123
[OGL LOG] init_preconditioner : 0 ms
[OGL LOG] solve : 342 ms
BJcudaGKOCG:  Solving for p, Initial residual = 0.0339616, Final residual = 9.98522e-07, No Iterations 466
linear solve p 355649
time step continuity errors : sum local = 1.58371e-07, global = 1.96541e-20, cumulative = 4.413e-20
[OGL LOG] init_preconditioner : 0 ms
[OGL LOG] solve : 366 ms
BJcudaGKOCG:  Solving for p, Initial residual = 0.0274644, Final residual = 9.84205e-07, No Iterations 465
linear solve p 380383
time step continuity errors : sum local = 1.58249e-07, global = -1.91606e-20, cumulative = 2.49694e-20
ExecutionTime = 19.35 s  ClockTime = 19 s

Time = 0.0133333

Courant Number mean: 0.191521 max: 0.958646
DILUPBiCGStab:  Solving for Ux, Initial residual = 0.000105851, Final residual = 3.5967e-07, No Iterations 5
DILUPBiCGStab:  Solving for Uy, Initial residual = 0.000373693, Final residual = 1.02314e-06, No Iterations 5
DILUPBiCGStab:  Solving for Uz, Initial residual = 0.00127688, Final residual = 4.98264e-06, No Iterations 5
linear solve U 401694
[OGL LOG] init_preconditioner : 0 ms
[OGL LOG] solve : 329 ms
BJcudaGKOCG:  Solving for p, Initial residual = 0.0271169, Final residual = 9.78613e-07, No Iterations 450
linear solve p 342060
time step continuity errors : sum local = 1.58155e-07, global = -3.28741e-20, cumulative = -7.90461e-21
[OGL LOG] init_preconditioner : 0 ms
[OGL LOG] solve : 329 ms
BJcudaGKOCG:  Solving for p, Initial residual = 0.0219858, Final residual = 9.92136e-07, No Iterations 447
linear solve p 342177
time step continuity errors : sum local = 1.5822e-07, global = -3.07392e-20, cumulative = -3.86438e-20
ExecutionTime = 20.67 s  ClockTime = 20 s

End

