/*---------------------------------------------------------------------------*\
  =========                 |
  \\      /  F ield         | OpenFOAM: The Open Source CFD Toolbox
   \\    /   O peration     | Website:  https://openfoam.org
    \\  /    A nd           | Version:  8
     \\/     M anipulation  |
\*---------------------------------------------------------------------------*/
Build  : 8-ef60d22ea792
Exec   : icoFoam
Date   : Sep 11 2021
Time   : 13:36:13
Host   : "uc2n513.localdomain"
PID    : 214437
I/O    : uncollated
Case   : /pfs/data5/home/kit/scc/nq7776/data/code/OBR/lidDrivenCavity3D/Variation_init/100/Variation_mesh/5/Variation_matrix_solver/BiCGStab_NoPrecond_CUDA/1631360171
nProcs : 1
sigFpe : Enabling floating point exception trapping (FOAM_SIGFPE).
fileModificationChecking : Monitoring run-time modified files using timeStampMaster (fileModificationSkew 10)
allowSystemOperations : Allowing user-supplied system call operations

// * * * * * * * * * * * * * * * * * * * * * * * * * * * * * * * * * * * * * //
Create time

Create mesh for time = 0

Reading transportProperties

Reading field p

Reading field U

Reading/calculating face flux field phi


Starting time loop

Time = 0.02

Courant Number mean: 0.165966 max: 0.393736
DILUPBiCGStab:  Solving for Ux, Initial residual = 0.257055, Final residual = 2.34833e-13, No Iterations 5
DILUPBiCGStab:  Solving for Uy, Initial residual = 0.188796, Final residual = 5.98254e-14, No Iterations 5
DILUPBiCGStab:  Solving for Uz, Initial residual = 0.171115, Final residual = 6.75568e-14, No Iterations 5
linear solve U 186
[OGL LOG] init_host_sparsity_pattern : 0 ms
[OGL LOG] matrix not stored update host matrix
[OGL LOG] update_host_mtx : 0 ms
[OGL LOG] matrix is not yet sorted, compute sorting idxs
[OGL LOG] compute_sort : 0 ms
[OGL LOG] matrix is not yet sorted, sorting host matrix
[OGL LOG] sort_host_mtx_sparsity_pattern : 0 ms
[OGL LOG] sort_host_mtx : 0 ms
[OGL LOG] init_preconditioner : 0 ms
[OGL LOG] solve : 9 ms
nonecudaGKOBiCGStab:  Solving for p, Initial residual = 0.607222, Final residual = 7.65158e-07, No Iterations 28
linear solve p 738205
time step continuity errors : sum local = 1.32416e-07, global = 1.37246e-18, cumulative = 1.37246e-18
[OGL LOG] init_preconditioner : 0 ms
[OGL LOG] solve : 8 ms
nonecudaGKOBiCGStab:  Solving for p, Initial residual = 0.279373, Final residual = 3.40697e-07, No Iterations 28
linear solve p 8627
time step continuity errors : sum local = 3.05982e-08, global = -1.17757e-18, cumulative = 1.94884e-19
ExecutionTime = 0.78 s  ClockTime = 1 s

Time = 0.04

Courant Number mean: 0.153195 max: 0.395566
DILUPBiCGStab:  Solving for Ux, Initial residual = 0.069704, Final residual = 3.44946e-14, No Iterations 5
DILUPBiCGStab:  Solving for Uy, Initial residual = 0.0816975, Final residual = 4.41253e-14, No Iterations 5
DILUPBiCGStab:  Solving for Uz, Initial residual = 0.163152, Final residual = 1.83583e-13, No Iterations 5
linear solve U 103
[OGL LOG] init_preconditioner : 0 ms
[OGL LOG] solve : 7 ms
nonecudaGKOBiCGStab:  Solving for p, Initial residual = 0.204577, Final residual = 6.42248e-07, No Iterations 26
linear solve p 7969
time step continuity errors : sum local = 0.000256605, global = -1.20173e-18, cumulative = -1.00684e-18
[OGL LOG] init_preconditioner : 0 ms
[OGL LOG] solve : 7 ms
nonecudaGKOBiCGStab:  Solving for p, Initial residual = 0.0754452, Final residual = 9.99276e-07, No Iterations 24
linear solve p 7415
time step continuity errors : sum local = 0.000229933, global = -1.47172e-19, cumulative = -1.15402e-18
ExecutionTime = 0.79 s  ClockTime = 1 s

Time = 0.06

Courant Number mean: 0.14992 max: 0.386777
DILUPBiCGStab:  Solving for Ux, Initial residual = 0.014076, Final residual = 1.87254e-15, No Iterations 5
DILUPBiCGStab:  Solving for Uy, Initial residual = 0.0173406, Final residual = 3.57121e-15, No Iterations 5
DILUPBiCGStab:  Solving for Uz, Initial residual = 0.106748, Final residual = 9.11262e-14, No Iterations 5
linear solve U 98
[OGL LOG] init_preconditioner : 0 ms
[OGL LOG] solve : 7 ms
nonecudaGKOBiCGStab:  Solving for p, Initial residual = 0.0133805, Final residual = 8.83905e-07, No Iterations 25
linear solve p 7709
time step continuity errors : sum local = 0.000231042, global = 2.13876e-19, cumulative = -9.4014e-19
[OGL LOG] init_preconditioner : 0 ms
[OGL LOG] solve : 6 ms
nonecudaGKOBiCGStab:  Solving for p, Initial residual = 0.00246157, Final residual = 7.44567e-07, No Iterations 21
linear solve p 6617
time step continuity errors : sum local = 0.000230747, global = -3.00697e-19, cumulative = -1.24084e-18
ExecutionTime = 0.81 s  ClockTime = 1 s

Time = 0.08

Courant Number mean: 0.149044 max: 0.383217
DILUPBiCGStab:  Solving for Ux, Initial residual = 0.00403796, Final residual = 6.43499e-16, No Iterations 5
DILUPBiCGStab:  Solving for Uy, Initial residual = 0.00513818, Final residual = 1.16613e-15, No Iterations 5
DILUPBiCGStab:  Solving for Uz, Initial residual = 0.0354128, Final residual = 3.15285e-14, No Iterations 5
linear solve U 119
[OGL LOG] init_preconditioner : 0 ms
[OGL LOG] solve : 7 ms
nonecudaGKOBiCGStab:  Solving for p, Initial residual = 0.00346264, Final residual = 6.36068e-07, No Iterations 23
linear solve p 7213
time step continuity errors : sum local = 0.000231585, global = 1.10432e-18, cumulative = -1.36518e-19
[OGL LOG] init_preconditioner : 0 ms
[OGL LOG] solve : 6 ms
nonecudaGKOBiCGStab:  Solving for p, Initial residual = 0.001376, Final residual = 5.58782e-07, No Iterations 21
linear solve p 6632
time step continuity errors : sum local = 0.0002312, global = -5.59042e-19, cumulative = -6.9556e-19
ExecutionTime = 0.82 s  ClockTime = 1 s

Time = 0.1

Courant Number mean: 0.148703 max: 0.381686
DILUPBiCGStab:  Solving for Ux, Initial residual = 0.00124507, Final residual = 2.83316e-16, No Iterations 5
DILUPBiCGStab:  Solving for Uy, Initial residual = 0.00166924, Final residual = 2.40672e-16, No Iterations 5
DILUPBiCGStab:  Solving for Uz, Initial residual = 0.0148557, Final residual = 8.18878e-15, No Iterations 5
linear solve U 94
[OGL LOG] init_preconditioner : 0 ms
[OGL LOG] solve : 6 ms
nonecudaGKOBiCGStab:  Solving for p, Initial residual = 0.00100132, Final residual = 5.99028e-07, No Iterations 22
linear solve p 6869
time step continuity errors : sum local = 0.000231385, global = -2.74227e-19, cumulative = -9.69787e-19
[OGL LOG] init_preconditioner : 0 ms
[OGL LOG] solve : 6 ms
nonecudaGKOBiCGStab:  Solving for p, Initial residual = 0.000355224, Final residual = 4.48037e-07, No Iterations 20
linear solve p 6353
time step continuity errors : sum local = 0.000231292, global = -1.61042e-18, cumulative = -2.58021e-18
ExecutionTime = 0.83 s  ClockTime = 1 s

Time = 0.12

Courant Number mean: 0.148579 max: 0.381084
DILUPBiCGStab:  Solving for Ux, Initial residual = 0.000408352, Final residual = 1.18962e-16, No Iterations 5
DILUPBiCGStab:  Solving for Uy, Initial residual = 0.000559707, Final residual = 6.66208e-17, No Iterations 5
DILUPBiCGStab:  Solving for Uz, Initial residual = 0.00593289, Final residual = 2.30619e-15, No Iterations 5
linear solve U 101
[OGL LOG] init_preconditioner : 0 ms
[OGL LOG] solve : 6 ms
nonecudaGKOBiCGStab:  Solving for p, Initial residual = 0.000391176, Final residual = 6.75998e-07, No Iterations 20
linear solve p 6334
time step continuity errors : sum local = 0.000231362, global = 1.06726e-18, cumulative = -1.51295e-18
[OGL LOG] init_preconditioner : 0 ms
[OGL LOG] solve : 5 ms
nonecudaGKOBiCGStab:  Solving for p, Initial residual = 0.000145297, Final residual = 9.67726e-07, No Iterations 17
linear solve p 5514
time step continuity errors : sum local = 0.000231347, global = -1.71524e-19, cumulative = -1.68447e-18
ExecutionTime = 0.84 s  ClockTime = 1 s

Time = 0.14

Courant Number mean: 0.148534 max: 0.380857
DILUPBiCGStab:  Solving for Ux, Initial residual = 0.000141284, Final residual = 4.9791e-17, No Iterations 5
DILUPBiCGStab:  Solving for Uy, Initial residual = 0.00019496, Final residual = 2.19203e-17, No Iterations 5
DILUPBiCGStab:  Solving for Uz, Initial residual = 0.00239503, Final residual = 5.74487e-16, No Iterations 5
linear solve U 94
[OGL LOG] init_preconditioner : 0 ms
[OGL LOG] solve : 3 ms
nonecudaGKOBiCGStab:  Solving for p, Initial residual = 0.000152358, Final residual = 6.1933e-07, No Iterations 9
linear solve p 3302
time step continuity errors : sum local = 0.000231321, global = -5.24102e-19, cumulative = -2.20857e-18
[OGL LOG] init_preconditioner : 0 ms
[OGL LOG] solve : 2 ms
nonecudaGKOBiCGStab:  Solving for p, Initial residual = 5.37546e-05, Final residual = 8.24739e-07, No Iterations 7
linear solve p 2738
time step continuity errors : sum local = 0.000231337, global = -9.13737e-19, cumulative = -3.12231e-18
ExecutionTime = 0.85 s  ClockTime = 1 s

Time = 0.16

Courant Number mean: 0.148518 max: 0.380773
DILUPBiCGStab:  Solving for Ux, Initial residual = 5.08783e-05, Final residual = 1.96037e-17, No Iterations 5
DILUPBiCGStab:  Solving for Uy, Initial residual = 7.01789e-05, Final residual = 1.60209e-17, No Iterations 5
DILUPBiCGStab:  Solving for Uz, Initial residual = 0.000978882, Final residual = 2.2728e-16, No Iterations 5
linear solve U 105
[OGL LOG] init_preconditioner : 0 ms
[OGL LOG] solve : 2 ms
nonecudaGKOBiCGStab:  Solving for p, Initial residual = 5.83794e-05, Final residual = 9.10388e-07, No Iterations 7
linear solve p 2758
time step continuity errors : sum local = 0.000231315, global = -7.01979e-19, cumulative = -3.82429e-18
[OGL LOG] init_preconditioner : 0 ms
[OGL LOG] solve : 2 ms
nonecudaGKOBiCGStab:  Solving for p, Initial residual = 2.06107e-05, Final residual = 8.34307e-07, No Iterations 5
linear solve p 2177
time step continuity errors : sum local = 0.000231328, global = -7.84564e-19, cumulative = -4.60885e-18
ExecutionTime = 0.86 s  ClockTime = 1 s

Time = 0.18

Courant Number mean: 0.148513 max: 0.380744
DILUPBiCGStab:  Solving for Ux, Initial residual = 1.91589e-05, Final residual = 8.45866e-18, No Iterations 5
DILUPBiCGStab:  Solving for Uy, Initial residual = 2.59905e-05, Final residual = 8.99252e-18, No Iterations 5
DILUPBiCGStab:  Solving for Uz, Initial residual = 0.000399949, Final residual = 8.74569e-17, No Iterations 5
linear solve U 105
[OGL LOG] init_preconditioner : 0 ms
[OGL LOG] solve : 2 ms
nonecudaGKOBiCGStab:  Solving for p, Initial residual = 2.2159e-05, Final residual = 9.73074e-07, No Iterations 5
linear solve p 2205
time step continuity errors : sum local = 0.000231313, global = 5.09279e-19, cumulative = -4.09957e-18
[OGL LOG] init_preconditioner : 0 ms
[OGL LOG] solve : 1 ms
nonecudaGKOBiCGStab:  Solving for p, Initial residual = 7.57194e-06, Final residual = 9.99047e-07, No Iterations 3
linear solve p 1662
time step continuity errors : sum local = 0.000231325, global = -1.08103e-18, cumulative = -5.1806e-18
ExecutionTime = 0.86 s  ClockTime = 1 s

Time = 0.2

Courant Number mean: 0.148511 max: 0.380733
DILUPBiCGStab:  Solving for Ux, Initial residual = 7.43189e-06, Final residual = 3.88453e-18, No Iterations 5
DILUPBiCGStab:  Solving for Uy, Initial residual = 9.88397e-06, Final residual = 4.89788e-18, No Iterations 5
DILUPBiCGStab:  Solving for Uz, Initial residual = 0.000162408, Final residual = 3.65012e-17, No Iterations 5
linear solve U 95
[OGL LOG] init_preconditioner : 0 ms
[OGL LOG] solve : 1 ms
nonecudaGKOBiCGStab:  Solving for p, Initial residual = 8.21361e-06, Final residual = 9.0683e-07, No Iterations 4
linear solve p 1769
time step continuity errors : sum local = 0.000231314, global = -1.42513e-18, cumulative = -6.60573e-18
[OGL LOG] init_preconditioner : 0 ms
[OGL LOG] solve : 0 ms
nonecudaGKOBiCGStab:  Solving for p, Initial residual = 2.22414e-06, Final residual = 9.23089e-07, No Iterations 1
linear solve p 924
time step continuity errors : sum local = 0.000231309, global = -8.39621e-19, cumulative = -7.44535e-18
ExecutionTime = 0.86 s  ClockTime = 1 s

End

