/*---------------------------------------------------------------------------*\
  =========                 |
  \\      /  F ield         | OpenFOAM: The Open Source CFD Toolbox
   \\    /   O peration     | Website:  https://openfoam.org
    \\  /    A nd           | Version:  8
     \\/     M anipulation  |
\*---------------------------------------------------------------------------*/
Build  : 8-ef60d22ea792
Exec   : icoFoam
Date   : Sep 11 2021
Time   : 13:51:15
Host   : "uc2n442.localdomain"
PID    : 3717988
I/O    : uncollated
Case   : /pfs/data5/home/kit/scc/nq7776/data/code/OBR/lidDrivenCavity3D/Variation_init/100/Variation_mesh/75/Variation_matrix_solver/BiCGStab_NoPrecond_Serial/1631361049
nProcs : 1
sigFpe : Enabling floating point exception trapping (FOAM_SIGFPE).
fileModificationChecking : Monitoring run-time modified files using timeStampMaster (fileModificationSkew 10)
allowSystemOperations : Allowing user-supplied system call operations

// * * * * * * * * * * * * * * * * * * * * * * * * * * * * * * * * * * * * * //
Create time

Create mesh for time = 0

Reading transportProperties

Reading field p

Reading field U

Reading/calculating face flux field phi


Starting time loop

Time = 0.00133333

Courant Number mean: 0.191396 max: 0.960629
DILUPBiCGStab:  Solving for Ux, Initial residual = 0.15118, Final residual = 1.71065e-05, No Iterations 5
DILUPBiCGStab:  Solving for Uy, Initial residual = 0.286633, Final residual = 4.01866e-05, No Iterations 5
DILUPBiCGStab:  Solving for Uz, Initial residual = 0.411091, Final residual = 0.000172886, No Iterations 5
linear solve U 412129
nonePBiCGStab:  Solving for p, Initial residual = 0.61762, Final residual = 7.27193e-07, No Iterations 478
linear solve p 5228582
time step continuity errors : sum local = 1.75337e-09, global = 7.33393e-21, cumulative = 7.33393e-21
nonePBiCGStab:  Solving for p, Initial residual = 0.268993, Final residual = 9.53041e-07, No Iterations 479
linear solve p 5248566
time step continuity errors : sum local = 1.22049e-09, global = 1.61364e-20, cumulative = 2.34703e-20
ExecutionTime = 12.95 s  ClockTime = 13 s

Time = 0.00266667

Courant Number mean: 0.191562 max: 0.958264
DILUPBiCGStab:  Solving for Ux, Initial residual = 0.00536977, Final residual = 2.79571e-05, No Iterations 5
DILUPBiCGStab:  Solving for Uy, Initial residual = 0.011694, Final residual = 5.45229e-05, No Iterations 5
DILUPBiCGStab:  Solving for Uz, Initial residual = 0.0561641, Final residual = 0.000161537, No Iterations 5
linear solve U 379887
nonePBiCGStab:  Solving for p, Initial residual = 0.291219, Final residual = 8.74257e-07, No Iterations 481
linear solve p 5258860
time step continuity errors : sum local = 9.37925e-10, global = 1.05513e-20, cumulative = 3.40216e-20
nonePBiCGStab:  Solving for p, Initial residual = 0.210428, Final residual = 6.8494e-07, No Iterations 497
linear solve p 5427509
time step continuity errors : sum local = 7.9372e-10, global = 2.43929e-20, cumulative = 5.84145e-20
ExecutionTime = 24.22 s  ClockTime = 24 s

Time = 0.004

Courant Number mean: 0.191591 max: 0.95876
DILUPBiCGStab:  Solving for Ux, Initial residual = 0.0011174, Final residual = 6.72794e-06, No Iterations 5
DILUPBiCGStab:  Solving for Uy, Initial residual = 0.0032919, Final residual = 1.48742e-05, No Iterations 5
DILUPBiCGStab:  Solving for Uz, Initial residual = 0.0228548, Final residual = 0.000101387, No Iterations 5
linear solve U 379431
nonePBiCGStab:  Solving for p, Initial residual = 0.173974, Final residual = 8.10964e-07, No Iterations 545
linear solve p 5985171
time step continuity errors : sum local = 5.21187e-10, global = 1.0181e-20, cumulative = 6.85955e-20
nonePBiCGStab:  Solving for p, Initial residual = 0.13366, Final residual = 8.43261e-07, No Iterations 522
linear solve p 5693857
time step continuity errors : sum local = 7.92425e-10, global = -9.71505e-21, cumulative = 5.88804e-20
ExecutionTime = 36.47 s  ClockTime = 37 s

Time = 0.00533333

Courant Number mean: 0.19157 max: 0.958639
DILUPBiCGStab:  Solving for Ux, Initial residual = 0.000641386, Final residual = 2.63067e-06, No Iterations 5
DILUPBiCGStab:  Solving for Uy, Initial residual = 0.00199637, Final residual = 7.49417e-06, No Iterations 5
DILUPBiCGStab:  Solving for Uz, Initial residual = 0.0110663, Final residual = 5.57066e-05, No Iterations 5
linear solve U 374043
nonePBiCGStab:  Solving for p, Initial residual = 0.124284, Final residual = 3.51434e-07, No Iterations 463
linear solve p 5050485
time step continuity errors : sum local = 2.32349e-10, global = -2.47256e-21, cumulative = 5.64079e-20
nonePBiCGStab:  Solving for p, Initial residual = 0.0987122, Final residual = 8.2615e-07, No Iterations 460
linear solve p 5026543
time step continuity errors : sum local = 6.14668e-10, global = -2.20136e-20, cumulative = 3.43942e-20
ExecutionTime = 47.11 s  ClockTime = 47 s

Time = 0.00666667

Courant Number mean: 0.191555 max: 0.958628
DILUPBiCGStab:  Solving for Ux, Initial residual = 0.000432068, Final residual = 1.70512e-06, No Iterations 5
DILUPBiCGStab:  Solving for Uy, Initial residual = 0.00139184, Final residual = 4.01691e-06, No Iterations 5
DILUPBiCGStab:  Solving for Uz, Initial residual = 0.0071601, Final residual = 3.00959e-05, No Iterations 5
linear solve U 378127
nonePBiCGStab:  Solving for p, Initial residual = 0.0914689, Final residual = 9.37214e-07, No Iterations 458
linear solve p 4999755
time step continuity errors : sum local = 5.57753e-10, global = 2.043e-20, cumulative = 5.48242e-20
nonePBiCGStab:  Solving for p, Initial residual = 0.0727143, Final residual = 8.59555e-07, No Iterations 453
linear solve p 4978935
time step continuity errors : sum local = 5.66413e-10, global = -7.68213e-21, cumulative = 4.71421e-20
ExecutionTime = 57.67 s  ClockTime = 58 s

Time = 0.008

Courant Number mean: 0.191545 max: 0.958667
DILUPBiCGStab:  Solving for Ux, Initial residual = 0.000309641, Final residual = 1.16941e-06, No Iterations 5
DILUPBiCGStab:  Solving for Uy, Initial residual = 0.0010286, Final residual = 2.96764e-06, No Iterations 5
DILUPBiCGStab:  Solving for Uz, Initial residual = 0.00474421, Final residual = 2.1249e-05, No Iterations 5
linear solve U 374530
nonePBiCGStab:  Solving for p, Initial residual = 0.0703372, Final residual = 7.4826e-07, No Iterations 406
linear solve p 4458922
time step continuity errors : sum local = 6.95258e-10, global = -3.66831e-20, cumulative = 1.0459e-20
nonePBiCGStab:  Solving for p, Initial residual = 0.0564799, Final residual = 6.5165e-07, No Iterations 433
linear solve p 4738114
time step continuity errors : sum local = 3.6092e-10, global = 1.61067e-20, cumulative = 2.65657e-20
ExecutionTime = 67.44 s  ClockTime = 68 s

Time = 0.00933333

Courant Number mean: 0.191534 max: 0.958627
DILUPBiCGStab:  Solving for Ux, Initial residual = 0.000230761, Final residual = 8.72726e-07, No Iterations 5
DILUPBiCGStab:  Solving for Uy, Initial residual = 0.000780887, Final residual = 1.96227e-06, No Iterations 5
DILUPBiCGStab:  Solving for Uz, Initial residual = 0.00335517, Final residual = 1.3015e-05, No Iterations 5
linear solve U 374557
nonePBiCGStab:  Solving for p, Initial residual = 0.0544562, Final residual = 9.90391e-07, No Iterations 388
linear solve p 4252834
time step continuity errors : sum local = 1.02369e-09, global = 2.93436e-21, cumulative = 2.95e-20
nonePBiCGStab:  Solving for p, Initial residual = 0.0437754, Final residual = 1.90712e-07, No Iterations 389
linear solve p 4271372
time step continuity errors : sum local = 1.86894e-10, global = -5.55834e-22, cumulative = 2.89442e-20
ExecutionTime = 76.54 s  ClockTime = 77 s

Time = 0.0106667

Courant Number mean: 0.191529 max: 0.958654
DILUPBiCGStab:  Solving for Ux, Initial residual = 0.000175749, Final residual = 6.52036e-07, No Iterations 5
DILUPBiCGStab:  Solving for Uy, Initial residual = 0.000606375, Final residual = 1.68133e-06, No Iterations 5
DILUPBiCGStab:  Solving for Uz, Initial residual = 0.00241792, Final residual = 1.03813e-05, No Iterations 5
linear solve U 375838
nonePBiCGStab:  Solving for p, Initial residual = 0.0429696, Final residual = 9.60024e-07, No Iterations 389
linear solve p 4252770
time step continuity errors : sum local = 8.79402e-10, global = -7.1719e-21, cumulative = 2.17723e-20
nonePBiCGStab:  Solving for p, Initial residual = 0.0347038, Final residual = 7.4832e-07, No Iterations 384
linear solve p 4206930
time step continuity errors : sum local = 7.65303e-10, global = -1.0043e-20, cumulative = 1.17293e-20
ExecutionTime = 85.57 s  ClockTime = 86 s

Time = 0.012

Courant Number mean: 0.191524 max: 0.958632
DILUPBiCGStab:  Solving for Ux, Initial residual = 0.000136695, Final residual = 4.91023e-07, No Iterations 5
DILUPBiCGStab:  Solving for Uy, Initial residual = 0.000475803, Final residual = 1.25768e-06, No Iterations 5
DILUPBiCGStab:  Solving for Uz, Initial residual = 0.00182879, Final residual = 8.24979e-06, No Iterations 5
linear solve U 376497
nonePBiCGStab:  Solving for p, Initial residual = 0.0340191, Final residual = 9.76021e-07, No Iterations 382
linear solve p 4186402
time step continuity errors : sum local = 9.94519e-10, global = 1.31699e-20, cumulative = 2.48992e-20
nonePBiCGStab:  Solving for p, Initial residual = 0.0275172, Final residual = 7.82105e-07, No Iterations 401
linear solve p 4376938
time step continuity errors : sum local = 7.58263e-10, global = -2.55071e-20, cumulative = -6.0784e-22
ExecutionTime = 94.71 s  ClockTime = 95 s

Time = 0.0133333

Courant Number mean: 0.191521 max: 0.958646
DILUPBiCGStab:  Solving for Ux, Initial residual = 0.000107676, Final residual = 3.66888e-07, No Iterations 5
DILUPBiCGStab:  Solving for Uy, Initial residual = 0.000379405, Final residual = 1.10786e-06, No Iterations 5
DILUPBiCGStab:  Solving for Uz, Initial residual = 0.00144614, Final residual = 7.28421e-06, No Iterations 5
linear solve U 375701
nonePBiCGStab:  Solving for p, Initial residual = 0.0272003, Final residual = 9.93763e-07, No Iterations 438
linear solve p 4818991
time step continuity errors : sum local = 5.24652e-10, global = -3.0792e-20, cumulative = -3.13999e-20
nonePBiCGStab:  Solving for p, Initial residual = 0.0220621, Final residual = 8.56258e-07, No Iterations 365
linear solve p 4002887
time step continuity errors : sum local = 8.50292e-10, global = 3.66566e-20, cumulative = 5.25669e-21
ExecutionTime = 104.12 s  ClockTime = 104 s

End

