/*---------------------------------------------------------------------------*\
  =========                 |
  \\      /  F ield         | OpenFOAM: The Open Source CFD Toolbox
   \\    /   O peration     | Website:  https://openfoam.org
    \\  /    A nd           | Version:  8
     \\/     M anipulation  |
\*---------------------------------------------------------------------------*/
Build  : 8-ef60d22ea792
Exec   : icoFoam
Date   : Sep 11 2021
Time   : 14:55:11
Host   : "uc2n442.localdomain"
PID    : 3724263
I/O    : uncollated
Case   : /pfs/data5/home/kit/scc/nq7776/data/code/OBR/lidDrivenCavity3D/Variation_init/100/Variation_mesh/55/Variation_matrix_solver/BiCGStab_DIC_Serial/1631364906
nProcs : 1
sigFpe : Enabling floating point exception trapping (FOAM_SIGFPE).
fileModificationChecking : Monitoring run-time modified files using timeStampMaster (fileModificationSkew 10)
allowSystemOperations : Allowing user-supplied system call operations

// * * * * * * * * * * * * * * * * * * * * * * * * * * * * * * * * * * * * * //
Create time

Create mesh for time = 0

Reading transportProperties

Reading field p

Reading field U

Reading/calculating face flux field phi


Starting time loop

Time = 0.00181818

Courant Number mean: 0.191368 max: 0.957571
DILUPBiCGStab:  Solving for Ux, Initial residual = 0.060281, Final residual = 1.19981e-05, No Iterations 5
DILUPBiCGStab:  Solving for Uy, Initial residual = 0.121009, Final residual = 2.40294e-05, No Iterations 5
DILUPBiCGStab:  Solving for Uz, Initial residual = 0.150024, Final residual = 8.14301e-05, No Iterations 5
linear solve U 153344
DICPBiCGStab:  Solving for p, Initial residual = 0.606676, Final residual = 8.04578e-07, No Iterations 97
linear solve p 678509
time step continuity errors : sum local = 1.40469e-09, global = -7.0329e-21, cumulative = -7.0329e-21
DICPBiCGStab:  Solving for p, Initial residual = 0.416236, Final residual = 8.40605e-07, No Iterations 103
linear solve p 724138
time step continuity errors : sum local = 1.01661e-09, global = -2.25295e-21, cumulative = -9.28585e-21
ExecutionTime = 2.4 s  ClockTime = 2 s

Time = 0.00363636

Courant Number mean: 0.191352 max: 0.944825
DILUPBiCGStab:  Solving for Ux, Initial residual = 0.00670428, Final residual = 6.35491e-06, No Iterations 5
DILUPBiCGStab:  Solving for Uy, Initial residual = 0.0143955, Final residual = 1.52585e-05, No Iterations 5
DILUPBiCGStab:  Solving for Uz, Initial residual = 0.0279013, Final residual = 4.77833e-05, No Iterations 5
linear solve U 138261
DICPBiCGStab:  Solving for p, Initial residual = 0.305549, Final residual = 4.4279e-07, No Iterations 101
linear solve p 707966
time step continuity errors : sum local = 9.2674e-10, global = 1.92836e-20, cumulative = 9.99773e-21
DICPBiCGStab:  Solving for p, Initial residual = 0.191029, Final residual = 8.67504e-07, No Iterations 103
linear solve p 718800
time step continuity errors : sum local = 1.81045e-09, global = 5.68334e-20, cumulative = 6.68311e-20
ExecutionTime = 4.04 s  ClockTime = 4 s

Time = 0.00545455

Courant Number mean: 0.191295 max: 0.943843
DILUPBiCGStab:  Solving for Ux, Initial residual = 0.00199558, Final residual = 3.96635e-06, No Iterations 5
DILUPBiCGStab:  Solving for Uy, Initial residual = 0.00440243, Final residual = 8.37396e-06, No Iterations 5
DILUPBiCGStab:  Solving for Uz, Initial residual = 0.0116251, Final residual = 2.10629e-05, No Iterations 5
linear solve U 139100
DICPBiCGStab:  Solving for p, Initial residual = 0.167134, Final residual = 8.98677e-07, No Iterations 104
linear solve p 726149
time step continuity errors : sum local = 1.67665e-09, global = 1.97807e-22, cumulative = 6.70289e-20
DICPBiCGStab:  Solving for p, Initial residual = 0.111636, Final residual = 7.88568e-07, No Iterations 97
linear solve p 681098
time step continuity errors : sum local = 1.44912e-09, global = -4.99548e-20, cumulative = 1.70741e-20
ExecutionTime = 5.66 s  ClockTime = 5 s

Time = 0.00727273

Courant Number mean: 0.191239 max: 0.94364
DILUPBiCGStab:  Solving for Ux, Initial residual = 0.00100356, Final residual = 1.27167e-06, No Iterations 5
DILUPBiCGStab:  Solving for Uy, Initial residual = 0.0022037, Final residual = 2.51204e-06, No Iterations 5
DILUPBiCGStab:  Solving for Uz, Initial residual = 0.0054386, Final residual = 8.20089e-06, No Iterations 5
linear solve U 138133
DICPBiCGStab:  Solving for p, Initial residual = 0.0998076, Final residual = 9.49418e-07, No Iterations 53
linear solve p 374775
time step continuity errors : sum local = 1.82335e-09, global = -3.81949e-20, cumulative = -2.11208e-20
DICPBiCGStab:  Solving for p, Initial residual = 0.0687549, Final residual = 9.78018e-07, No Iterations 54
linear solve p 380225
time step continuity errors : sum local = 1.16483e-09, global = 2.8024e-20, cumulative = 6.90323e-21
ExecutionTime = 6.64 s  ClockTime = 6 s

Time = 0.00909091

Courant Number mean: 0.191228 max: 0.943571
DILUPBiCGStab:  Solving for Ux, Initial residual = 0.000569822, Final residual = 8.00152e-07, No Iterations 5
DILUPBiCGStab:  Solving for Uy, Initial residual = 0.00122642, Final residual = 1.49173e-06, No Iterations 5
DILUPBiCGStab:  Solving for Uz, Initial residual = 0.00314241, Final residual = 6.23381e-06, No Iterations 5
linear solve U 138776
DICPBiCGStab:  Solving for p, Initial residual = 0.0620309, Final residual = 9.40249e-07, No Iterations 99
linear solve p 692562
time step continuity errors : sum local = 9.10447e-10, global = 1.34473e-20, cumulative = 2.03505e-20
DICPBiCGStab:  Solving for p, Initial residual = 0.0441948, Final residual = 4.89769e-07, No Iterations 103
linear solve p 725910
time step continuity errors : sum local = 5.28282e-10, global = 4.82778e-20, cumulative = 6.86283e-20
ExecutionTime = 8.28 s  ClockTime = 8 s

Time = 0.0109091

Courant Number mean: 0.191215 max: 0.943612
DILUPBiCGStab:  Solving for Ux, Initial residual = 0.000342084, Final residual = 4.37466e-07, No Iterations 5
DILUPBiCGStab:  Solving for Uy, Initial residual = 0.000740885, Final residual = 8.18535e-07, No Iterations 5
DILUPBiCGStab:  Solving for Uz, Initial residual = 0.00180034, Final residual = 3.00679e-06, No Iterations 5
linear solve U 138137
DICPBiCGStab:  Solving for p, Initial residual = 0.0402078, Final residual = 7.72672e-07, No Iterations 93
linear solve p 652615
time step continuity errors : sum local = 9.03564e-10, global = 3.98805e-20, cumulative = 1.08509e-19
DICPBiCGStab:  Solving for p, Initial residual = 0.0294443, Final residual = 4.27031e-07, No Iterations 91
linear solve p 638280
time step continuity errors : sum local = 4.56145e-10, global = 3.69968e-21, cumulative = 1.12208e-19
ExecutionTime = 9.79 s  ClockTime = 9 s

Time = 0.0127273

Courant Number mean: 0.191209 max: 0.943562
DILUPBiCGStab:  Solving for Ux, Initial residual = 0.00021537, Final residual = 2.85358e-07, No Iterations 5
DILUPBiCGStab:  Solving for Uy, Initial residual = 0.000460292, Final residual = 6.05172e-07, No Iterations 5
DILUPBiCGStab:  Solving for Uz, Initial residual = 0.00115113, Final residual = 2.28011e-06, No Iterations 5
linear solve U 138582
DICPBiCGStab:  Solving for p, Initial residual = 0.0268362, Final residual = 9.3346e-07, No Iterations 45
linear solve p 319493
time step continuity errors : sum local = 9.67358e-10, global = 7.42934e-20, cumulative = 1.86502e-19
DICPBiCGStab:  Solving for p, Initial residual = 0.0200399, Final residual = 9.80272e-07, No Iterations 43
linear solve p 302101
time step continuity errors : sum local = 1.00623e-09, global = 4.24573e-20, cumulative = 2.28959e-19
ExecutionTime = 10.63 s  ClockTime = 10 s

Time = 0.0145455

Courant Number mean: 0.191205 max: 0.943588
DILUPBiCGStab:  Solving for Ux, Initial residual = 0.000142118, Final residual = 1.82313e-07, No Iterations 5
DILUPBiCGStab:  Solving for Uy, Initial residual = 0.000303014, Final residual = 4.18656e-07, No Iterations 5
DILUPBiCGStab:  Solving for Uz, Initial residual = 0.000731643, Final residual = 1.29371e-06, No Iterations 5
linear solve U 138037
DICPBiCGStab:  Solving for p, Initial residual = 0.0183003, Final residual = 8.82099e-07, No Iterations 40
linear solve p 284099
time step continuity errors : sum local = 9.06081e-10, global = -2.59435e-21, cumulative = 2.26365e-19
DICPBiCGStab:  Solving for p, Initial residual = 0.0138837, Final residual = 9.64799e-07, No Iterations 47
linear solve p 335275
time step continuity errors : sum local = 9.84972e-10, global = 2.14045e-20, cumulative = 2.47769e-19
ExecutionTime = 11.47 s  ClockTime = 11 s

Time = 0.0163636

Courant Number mean: 0.191203 max: 0.943562
DILUPBiCGStab:  Solving for Ux, Initial residual = 9.58973e-05, Final residual = 1.11118e-07, No Iterations 5
DILUPBiCGStab:  Solving for Uy, Initial residual = 0.000202169, Final residual = 2.86396e-07, No Iterations 5
DILUPBiCGStab:  Solving for Uz, Initial residual = 0.000500085, Final residual = 7.98676e-07, No Iterations 5
linear solve U 138634
DICPBiCGStab:  Solving for p, Initial residual = 0.0126978, Final residual = 5.97262e-07, No Iterations 46
linear solve p 323845
time step continuity errors : sum local = 7.32927e-10, global = 2.14189e-20, cumulative = 2.69188e-19
DICPBiCGStab:  Solving for p, Initial residual = 0.00973492, Final residual = 8.76294e-07, No Iterations 42
linear solve p 295215
time step continuity errors : sum local = 9.27536e-10, global = -8.96378e-20, cumulative = 1.79551e-19
ExecutionTime = 12.31 s  ClockTime = 12 s

Time = 0.0181818

Courant Number mean: 0.191202 max: 0.943575
DILUPBiCGStab:  Solving for Ux, Initial residual = 6.7387e-05, Final residual = 7.67223e-08, No Iterations 5
DILUPBiCGStab:  Solving for Uy, Initial residual = 0.000140299, Final residual = 1.66412e-07, No Iterations 5
DILUPBiCGStab:  Solving for Uz, Initial residual = 0.000343505, Final residual = 5.70082e-07, No Iterations 5
linear solve U 138129
DICPBiCGStab:  Solving for p, Initial residual = 0.00892778, Final residual = 9.29723e-07, No Iterations 43
linear solve p 300913
time step continuity errors : sum local = 8.79441e-10, global = 9.9287e-21, cumulative = 1.89479e-19
DICPBiCGStab:  Solving for p, Initial residual = 0.00689753, Final residual = 8.93794e-07, No Iterations 40
linear solve p 279466
time step continuity errors : sum local = 8.83408e-10, global = 3.77483e-20, cumulative = 2.27228e-19
ExecutionTime = 13.11 s  ClockTime = 13 s

End

