/*---------------------------------------------------------------------------*\
  =========                 |
  \\      /  F ield         | OpenFOAM: The Open Source CFD Toolbox
   \\    /   O peration     | Website:  https://openfoam.org
    \\  /    A nd           | Version:  8
     \\/     M anipulation  |
\*---------------------------------------------------------------------------*/
Build  : 8-ef60d22ea792
Exec   : icoFoam
Date   : Sep 11 2021
Time   : 13:46:08
Host   : "uc2n442.localdomain"
PID    : 3717538
I/O    : uncollated
Case   : /pfs/data5/home/kit/scc/nq7776/data/code/OBR/lidDrivenCavity3D/Variation_init/100/Variation_mesh/90/Variation_matrix_solver/CG_NoPrecond_Serial/1631360731
nProcs : 1
sigFpe : Enabling floating point exception trapping (FOAM_SIGFPE).
fileModificationChecking : Monitoring run-time modified files using timeStampMaster (fileModificationSkew 10)
allowSystemOperations : Allowing user-supplied system call operations

// * * * * * * * * * * * * * * * * * * * * * * * * * * * * * * * * * * * * * //
Create time

Create mesh for time = 0

Reading transportProperties

Reading field p

Reading field U

Reading/calculating face flux field phi


Starting time loop

Time = 0.00111111

Courant Number mean: 0.191271 max: 0.964262
DILUPBiCGStab:  Solving for Ux, Initial residual = 0.0815126, Final residual = 3.69664e-05, No Iterations 5
DILUPBiCGStab:  Solving for Uy, Initial residual = 0.160779, Final residual = 9.81773e-05, No Iterations 5
DILUPBiCGStab:  Solving for Uz, Initial residual = 0.229936, Final residual = 0.000233997, No Iterations 5
linear solve U 737497
nonePCG:  Solving for p, Initial residual = 0.624561, Final residual = 9.85999e-07, No Iterations 744
linear solve p 6915116
time step continuity errors : sum local = 7.73889e-10, global = -1.74368e-20, cumulative = -1.74368e-20
nonePCG:  Solving for p, Initial residual = 0.406686, Final residual = 9.39229e-07, No Iterations 743
linear solve p 6875389
time step continuity errors : sum local = 6.48937e-10, global = -5.82185e-21, cumulative = -2.32586e-20
ExecutionTime = 18.12 s  ClockTime = 18 s

Time = 0.00222222

Courant Number mean: 0.191576 max: 0.966096
DILUPBiCGStab:  Solving for Ux, Initial residual = 0.00592338, Final residual = 4.09359e-05, No Iterations 5
DILUPBiCGStab:  Solving for Uy, Initial residual = 0.0150639, Final residual = 9.77113e-05, No Iterations 5
DILUPBiCGStab:  Solving for Uz, Initial residual = 0.0371668, Final residual = 0.000289969, No Iterations 5
linear solve U 683432
nonePCG:  Solving for p, Initial residual = 0.505786, Final residual = 9.80935e-07, No Iterations 756
linear solve p 7037540
time step continuity errors : sum local = 6.1214e-10, global = 9.30372e-21, cumulative = -1.39549e-20
nonePCG:  Solving for p, Initial residual = 0.413243, Final residual = 9.93398e-07, No Iterations 753
linear solve p 6953846
time step continuity errors : sum local = 5.91505e-10, global = -1.12425e-20, cumulative = -2.51974e-20
ExecutionTime = 33.14 s  ClockTime = 33 s

Time = 0.00333333

Courant Number mean: 0.191547 max: 0.965832
DILUPBiCGStab:  Solving for Ux, Initial residual = 0.00295627, Final residual = 1.93802e-05, No Iterations 5
DILUPBiCGStab:  Solving for Uy, Initial residual = 0.00830251, Final residual = 4.50191e-05, No Iterations 5
DILUPBiCGStab:  Solving for Uz, Initial residual = 0.0239417, Final residual = 0.000209955, No Iterations 5
linear solve U 681445
nonePCG:  Solving for p, Initial residual = 0.418926, Final residual = 9.78253e-07, No Iterations 747
linear solve p 6939615
time step continuity errors : sum local = 5.47364e-10, global = 8.08171e-22, cumulative = -2.43892e-20
nonePCG:  Solving for p, Initial residual = 0.332378, Final residual = 9.78087e-07, No Iterations 744
linear solve p 6913259
time step continuity errors : sum local = 5.47306e-10, global = 5.10766e-21, cumulative = -1.92815e-20
ExecutionTime = 48.02 s  ClockTime = 48 s

Time = 0.00444444

Courant Number mean: 0.191511 max: 0.965615
DILUPBiCGStab:  Solving for Ux, Initial residual = 0.00214742, Final residual = 8.1922e-06, No Iterations 5
DILUPBiCGStab:  Solving for Uy, Initial residual = 0.00587426, Final residual = 2.32702e-05, No Iterations 5
DILUPBiCGStab:  Solving for Uz, Initial residual = 0.0164899, Final residual = 0.000120203, No Iterations 5
linear solve U 678255
nonePCG:  Solving for p, Initial residual = 0.361199, Final residual = 9.69673e-07, No Iterations 743
linear solve p 6879797
time step continuity errors : sum local = 4.92364e-10, global = -1.16439e-20, cumulative = -3.09254e-20
nonePCG:  Solving for p, Initial residual = 0.291199, Final residual = 9.74612e-07, No Iterations 741
linear solve p 6794928
time step continuity errors : sum local = 4.89506e-10, global = 2.1153e-20, cumulative = -9.77239e-21
ExecutionTime = 62.73 s  ClockTime = 63 s

Time = 0.00555556

Courant Number mean: 0.191518 max: 0.965518
DILUPBiCGStab:  Solving for Ux, Initial residual = 0.00169449, Final residual = 5.93559e-06, No Iterations 5
DILUPBiCGStab:  Solving for Uy, Initial residual = 0.00442519, Final residual = 1.37568e-05, No Iterations 5
DILUPBiCGStab:  Solving for Uz, Initial residual = 0.013383, Final residual = 9.37773e-05, No Iterations 5
linear solve U 677021
nonePCG:  Solving for p, Initial residual = 0.306603, Final residual = 9.77162e-07, No Iterations 737
linear solve p 6831547
time step continuity errors : sum local = 4.71264e-10, global = -8.17852e-21, cumulative = -1.79509e-20
nonePCG:  Solving for p, Initial residual = 0.245983, Final residual = 9.98454e-07, No Iterations 734
linear solve p 6794939
time step continuity errors : sum local = 4.7986e-10, global = 8.87797e-21, cumulative = -9.07295e-21
ExecutionTime = 77.38 s  ClockTime = 78 s

Time = 0.00666667

Courant Number mean: 0.191517 max: 0.965551
DILUPBiCGStab:  Solving for Ux, Initial residual = 0.00138668, Final residual = 3.32179e-06, No Iterations 5
DILUPBiCGStab:  Solving for Uy, Initial residual = 0.00349335, Final residual = 8.6222e-06, No Iterations 5
DILUPBiCGStab:  Solving for Uz, Initial residual = 0.0104295, Final residual = 6.27934e-05, No Iterations 5
linear solve U 675724
nonePCG:  Solving for p, Initial residual = 0.266624, Final residual = 9.93124e-07, No Iterations 728
linear solve p 6758175
time step continuity errors : sum local = 4.52324e-10, global = 1.15787e-20, cumulative = 2.50576e-21
nonePCG:  Solving for p, Initial residual = 0.214435, Final residual = 9.89722e-07, No Iterations 726
linear solve p 6729990
time step continuity errors : sum local = 4.48816e-10, global = 2.18344e-21, cumulative = 4.6892e-21
ExecutionTime = 91.91 s  ClockTime = 92 s

Time = 0.00777778

Courant Number mean: 0.191524 max: 0.965515
DILUPBiCGStab:  Solving for Ux, Initial residual = 0.00115071, Final residual = 2.61374e-06, No Iterations 5
DILUPBiCGStab:  Solving for Uy, Initial residual = 0.00283237, Final residual = 6.46611e-06, No Iterations 5
DILUPBiCGStab:  Solving for Uz, Initial residual = 0.00851645, Final residual = 5.08772e-05, No Iterations 5
linear solve U 680805
nonePCG:  Solving for p, Initial residual = 0.230317, Final residual = 9.78376e-07, No Iterations 722
linear solve p 6694937
time step continuity errors : sum local = 4.28563e-10, global = -1.63905e-20, cumulative = -1.17013e-20
nonePCG:  Solving for p, Initial residual = 0.185298, Final residual = 9.44745e-07, No Iterations 721
linear solve p 6690315
time step continuity errors : sum local = 4.1228e-10, global = -1.87097e-20, cumulative = -3.04111e-20
ExecutionTime = 106.32 s  ClockTime = 107 s

Time = 0.00888889

Courant Number mean: 0.191529 max: 0.965518
DILUPBiCGStab:  Solving for Ux, Initial residual = 0.000963942, Final residual = 2.02072e-06, No Iterations 5
DILUPBiCGStab:  Solving for Uy, Initial residual = 0.00232904, Final residual = 4.31356e-06, No Iterations 5
DILUPBiCGStab:  Solving for Uz, Initial residual = 0.00676775, Final residual = 3.53433e-05, No Iterations 5
linear solve U 681552
nonePCG:  Solving for p, Initial residual = 0.19971, Final residual = 9.67749e-07, No Iterations 718
linear solve p 6653311
time step continuity errors : sum local = 4.09404e-10, global = 3.18927e-20, cumulative = 1.48163e-21
nonePCG:  Solving for p, Initial residual = 0.160533, Final residual = 9.83625e-07, No Iterations 716
linear solve p 6640381
time step continuity errors : sum local = 4.15175e-10, global = 2.1723e-20, cumulative = 2.32046e-20
ExecutionTime = 120.65 s  ClockTime = 121 s

Time = 0.01

Courant Number mean: 0.191535 max: 0.965521
DILUPBiCGStab:  Solving for Ux, Initial residual = 0.00081256, Final residual = 1.46231e-06, No Iterations 5
DILUPBiCGStab:  Solving for Uy, Initial residual = 0.00193604, Final residual = 4.08584e-06, No Iterations 5
DILUPBiCGStab:  Solving for Uz, Initial residual = 0.00552556, Final residual = 2.83111e-05, No Iterations 5
linear solve U 675710
nonePCG:  Solving for p, Initial residual = 0.173335, Final residual = 9.86705e-07, No Iterations 712
linear solve p 6594993
time step continuity errors : sum local = 4.04962e-10, global = -2.49441e-20, cumulative = -1.73945e-21
nonePCG:  Solving for p, Initial residual = 0.139519, Final residual = 9.70122e-07, No Iterations 711
linear solve p 6598998
time step continuity errors : sum local = 3.96952e-10, global = -1.23579e-20, cumulative = -1.40973e-20
ExecutionTime = 134.88 s  ClockTime = 136 s

Time = 0.0111111

Courant Number mean: 0.19154 max: 0.965506
DILUPBiCGStab:  Solving for Ux, Initial residual = 0.000687554, Final residual = 1.42197e-06, No Iterations 5
DILUPBiCGStab:  Solving for Uy, Initial residual = 0.00161673, Final residual = 2.88e-06, No Iterations 5
DILUPBiCGStab:  Solving for Uz, Initial residual = 0.00444748, Final residual = 2.05177e-05, No Iterations 5
linear solve U 681754
nonePCG:  Solving for p, Initial residual = 0.149823, Final residual = 9.81307e-07, No Iterations 706
linear solve p 6543303
time step continuity errors : sum local = 3.94058e-10, global = 2.6066e-22, cumulative = -1.38367e-20
nonePCG:  Solving for p, Initial residual = 0.120453, Final residual = 9.58402e-07, No Iterations 704
linear solve p 6529163
time step continuity errors : sum local = 3.8433e-10, global = -4.04776e-21, cumulative = -1.78844e-20
ExecutionTime = 148.98 s  ClockTime = 150 s

End

