/*---------------------------------------------------------------------------*\
  =========                 |
  \\      /  F ield         | OpenFOAM: The Open Source CFD Toolbox
   \\    /   O peration     | Website:  https://openfoam.org
    \\  /    A nd           | Version:  8
     \\/     M anipulation  |
\*---------------------------------------------------------------------------*/
Build  : 8-ef60d22ea792
Exec   : icoFoam
Date   : Sep 11 2021
Time   : 13:36:39
Host   : "uc2n513.localdomain"
PID    : 215082
I/O    : uncollated
Case   : /pfs/data5/home/kit/scc/nq7776/data/code/OBR/lidDrivenCavity3D/Variation_init/100/Variation_mesh/15/Variation_matrix_solver/CG_NoPrecond_CUDA/1631360197
nProcs : 1
sigFpe : Enabling floating point exception trapping (FOAM_SIGFPE).
fileModificationChecking : Monitoring run-time modified files using timeStampMaster (fileModificationSkew 10)
allowSystemOperations : Allowing user-supplied system call operations

// * * * * * * * * * * * * * * * * * * * * * * * * * * * * * * * * * * * * * //
Create time

Create mesh for time = 0

Reading transportProperties

Reading field p

Reading field U

Reading/calculating face flux field phi


Starting time loop

Time = 0.00666667

Courant Number mean: 0.187217 max: 0.790057
DILUPBiCGStab:  Solving for Ux, Initial residual = 0.0835146, Final residual = 3.83698e-08, No Iterations 5
DILUPBiCGStab:  Solving for Uy, Initial residual = 0.111321, Final residual = 3.87051e-08, No Iterations 5
DILUPBiCGStab:  Solving for Uz, Initial residual = 0.145849, Final residual = 7.53903e-08, No Iterations 5
linear solve U 2386
[OGL LOG] init_host_sparsity_pattern : 0 ms
[OGL LOG] matrix not stored update host matrix
[OGL LOG] update_host_mtx : 0 ms
[OGL LOG] matrix is not yet sorted, compute sorting idxs
[OGL LOG] compute_sort : 19 ms
[OGL LOG] matrix is not yet sorted, sorting host matrix
[OGL LOG] sort_host_mtx_sparsity_pattern : 0 ms
[OGL LOG] sort_host_mtx : 0 ms
[OGL LOG] init_preconditioner : 0 ms
[OGL LOG] solve : 18 ms
nonecudaGKOCG:  Solving for p, Initial residual = 0.518065, Final residual = 8.37466e-07, No Iterations 124
linear solve p 769971
time step continuity errors : sum local = 1.17112e-08, global = -2.79362e-19, cumulative = -2.79362e-19
[OGL LOG] init_preconditioner : 0 ms
[OGL LOG] solve : 17 ms
nonecudaGKOCG:  Solving for p, Initial residual = 0.278331, Final residual = 6.53707e-07, No Iterations 122
linear solve p 17935
time step continuity errors : sum local = 6.3365e-09, global = -8.8518e-20, cumulative = -3.6788e-19
ExecutionTime = 0.84 s  ClockTime = 1 s

Time = 0.0133333

Courant Number mean: 0.185914 max: 0.794343
DILUPBiCGStab:  Solving for Ux, Initial residual = 0.0162421, Final residual = 5.69332e-08, No Iterations 5
DILUPBiCGStab:  Solving for Uy, Initial residual = 0.0262103, Final residual = 4.98214e-08, No Iterations 5
DILUPBiCGStab:  Solving for Uz, Initial residual = 0.0639916, Final residual = 6.16477e-08, No Iterations 5
linear solve U 1844
[OGL LOG] init_preconditioner : 0 ms
[OGL LOG] solve : 17 ms
nonecudaGKOCG:  Solving for p, Initial residual = 0.140653, Final residual = 9.58951e-07, No Iterations 120
linear solve p 17455
time step continuity errors : sum local = 1.33195e-05, global = 2.11317e-20, cumulative = -3.46748e-19
[OGL LOG] init_preconditioner : 0 ms
[OGL LOG] solve : 16 ms
nonecudaGKOCG:  Solving for p, Initial residual = 0.0811041, Final residual = 9.34622e-07, No Iterations 117
linear solve p 17067
time step continuity errors : sum local = 1.2051e-05, global = 3.9462e-20, cumulative = -3.07286e-19
ExecutionTime = 0.87 s  ClockTime = 1 s

Time = 0.02

Courant Number mean: 0.185268 max: 0.792427
DILUPBiCGStab:  Solving for Ux, Initial residual = 0.00200215, Final residual = 2.67239e-09, No Iterations 5
DILUPBiCGStab:  Solving for Uy, Initial residual = 0.00389601, Final residual = 2.42547e-09, No Iterations 5
DILUPBiCGStab:  Solving for Uz, Initial residual = 0.0127569, Final residual = 2.65391e-08, No Iterations 5
linear solve U 1833
[OGL LOG] init_preconditioner : 0 ms
[OGL LOG] solve : 16 ms
nonecudaGKOCG:  Solving for p, Initial residual = 0.0223153, Final residual = 9.77178e-07, No Iterations 113
linear solve p 16508
time step continuity errors : sum local = 1.18969e-05, global = 1.49687e-19, cumulative = -1.57599e-19
[OGL LOG] init_preconditioner : 0 ms
[OGL LOG] solve : 15 ms
nonecudaGKOCG:  Solving for p, Initial residual = 0.0134725, Final residual = 9.32348e-07, No Iterations 110
linear solve p 16141
time step continuity errors : sum local = 1.19863e-05, global = -2.56382e-19, cumulative = -4.13981e-19
ExecutionTime = 0.91 s  ClockTime = 1 s

Time = 0.0266667

Courant Number mean: 0.185122 max: 0.79228
DILUPBiCGStab:  Solving for Ux, Initial residual = 0.000634329, Final residual = 1.19425e-09, No Iterations 5
DILUPBiCGStab:  Solving for Uy, Initial residual = 0.000907634, Final residual = 1.52397e-09, No Iterations 5
DILUPBiCGStab:  Solving for Uz, Initial residual = 0.00476353, Final residual = 7.2901e-09, No Iterations 5
linear solve U 1836
[OGL LOG] init_preconditioner : 0 ms
[OGL LOG] solve : 15 ms
nonecudaGKOCG:  Solving for p, Initial residual = 0.00545621, Final residual = 8.82537e-07, No Iterations 106
linear solve p 15478
time step continuity errors : sum local = 1.20083e-05, global = -3.36387e-19, cumulative = -7.50368e-19
[OGL LOG] init_preconditioner : 0 ms
[OGL LOG] solve : 14 ms
nonecudaGKOCG:  Solving for p, Initial residual = 0.00358346, Final residual = 9.76748e-07, No Iterations 103
linear solve p 15121
time step continuity errors : sum local = 1.19922e-05, global = 5.86747e-20, cumulative = -6.91693e-19
ExecutionTime = 0.94 s  ClockTime = 1 s

Time = 0.0333333

Courant Number mean: 0.185036 max: 0.792187
DILUPBiCGStab:  Solving for Ux, Initial residual = 0.000241896, Final residual = 3.28464e-10, No Iterations 5
DILUPBiCGStab:  Solving for Uy, Initial residual = 0.000421113, Final residual = 8.19554e-10, No Iterations 5
DILUPBiCGStab:  Solving for Uz, Initial residual = 0.00230062, Final residual = 3.82579e-09, No Iterations 5
linear solve U 1909
[OGL LOG] init_preconditioner : 0 ms
[OGL LOG] solve : 7 ms
nonecudaGKOCG:  Solving for p, Initial residual = 0.00188376, Final residual = 9.25627e-07, No Iterations 52
linear solve p 7962
time step continuity errors : sum local = 1.19949e-05, global = -2.06332e-19, cumulative = -8.98025e-19
[OGL LOG] init_preconditioner : 0 ms
[OGL LOG] solve : 7 ms
nonecudaGKOCG:  Solving for p, Initial residual = 0.00125226, Final residual = 9.76438e-07, No Iterations 49
linear solve p 7538
time step continuity errors : sum local = 1.19936e-05, global = -9.37471e-20, cumulative = -9.91772e-19
ExecutionTime = 0.96 s  ClockTime = 1 s

Time = 0.04

Courant Number mean: 0.18499 max: 0.792067
DILUPBiCGStab:  Solving for Ux, Initial residual = 0.000127874, Final residual = 1.48653e-10, No Iterations 5
DILUPBiCGStab:  Solving for Uy, Initial residual = 0.000188057, Final residual = 2.55257e-10, No Iterations 5
DILUPBiCGStab:  Solving for Uz, Initial residual = 0.00135521, Final residual = 2.50874e-09, No Iterations 5
linear solve U 1834
[OGL LOG] init_preconditioner : 0 ms
[OGL LOG] solve : 14 ms
nonecudaGKOCG:  Solving for p, Initial residual = 0.000627798, Final residual = 7.93806e-07, No Iterations 98
linear solve p 14421
time step continuity errors : sum local = 1.19924e-05, global = 2.78815e-20, cumulative = -9.63891e-19
[OGL LOG] init_preconditioner : 0 ms
[OGL LOG] solve : 13 ms
nonecudaGKOCG:  Solving for p, Initial residual = 0.000410636, Final residual = 9.99523e-07, No Iterations 93
linear solve p 13706
time step continuity errors : sum local = 1.19922e-05, global = -3.94841e-20, cumulative = -1.00337e-18
ExecutionTime = 0.99 s  ClockTime = 1 s

Time = 0.0466667

Courant Number mean: 0.184967 max: 0.792015
DILUPBiCGStab:  Solving for Ux, Initial residual = 6.76197e-05, Final residual = 6.42934e-11, No Iterations 5
DILUPBiCGStab:  Solving for Uy, Initial residual = 0.000104548, Final residual = 1.21683e-10, No Iterations 5
DILUPBiCGStab:  Solving for Uz, Initial residual = 0.000801632, Final residual = 1.44975e-09, No Iterations 5
linear solve U 1925
[OGL LOG] init_preconditioner : 0 ms
[OGL LOG] solve : 6 ms
nonecudaGKOCG:  Solving for p, Initial residual = 0.000262304, Final residual = 8.63846e-07, No Iterations 44
linear solve p 6834
time step continuity errors : sum local = 1.19956e-05, global = -3.06917e-19, cumulative = -1.31029e-18
[OGL LOG] init_preconditioner : 0 ms
[OGL LOG] solve : 6 ms
nonecudaGKOCG:  Solving for p, Initial residual = 0.000181243, Final residual = 9.19137e-07, No Iterations 41
linear solve p 6384
time step continuity errors : sum local = 1.19934e-05, global = 2.14185e-19, cumulative = -1.09611e-18
ExecutionTime = 1 s  ClockTime = 1 s

Time = 0.0533333

Courant Number mean: 0.184956 max: 0.791982
DILUPBiCGStab:  Solving for Ux, Initial residual = 3.958e-05, Final residual = 3.21305e-11, No Iterations 5
DILUPBiCGStab:  Solving for Uy, Initial residual = 5.7225e-05, Final residual = 2.66658e-11, No Iterations 5
DILUPBiCGStab:  Solving for Uz, Initial residual = 0.000493496, Final residual = 7.18164e-10, No Iterations 5
linear solve U 1835
[OGL LOG] init_preconditioner : 0 ms
[OGL LOG] solve : 6 ms
nonecudaGKOCG:  Solving for p, Initial residual = 0.000113809, Final residual = 8.67501e-07, No Iterations 41
linear solve p 6424
time step continuity errors : sum local = 1.19947e-05, global = 6.87332e-20, cumulative = -1.02737e-18
[OGL LOG] init_preconditioner : 0 ms
[OGL LOG] solve : 5 ms
nonecudaGKOCG:  Solving for p, Initial residual = 7.96074e-05, Final residual = 9.47282e-07, No Iterations 38
linear solve p 6014
time step continuity errors : sum local = 1.19938e-05, global = -2.81175e-19, cumulative = -1.30855e-18
ExecutionTime = 1.03 s  ClockTime = 1 s

Time = 0.06

Courant Number mean: 0.18495 max: 0.791965
DILUPBiCGStab:  Solving for Ux, Initial residual = 2.33741e-05, Final residual = 2.00131e-11, No Iterations 5
DILUPBiCGStab:  Solving for Uy, Initial residual = 3.32602e-05, Final residual = 1.49473e-11, No Iterations 5
DILUPBiCGStab:  Solving for Uz, Initial residual = 0.000302686, Final residual = 3.97759e-10, No Iterations 5
linear solve U 1836
[OGL LOG] init_preconditioner : 0 ms
[OGL LOG] solve : 5 ms
nonecudaGKOCG:  Solving for p, Initial residual = 5.98129e-05, Final residual = 9.7153e-07, No Iterations 36
linear solve p 6061
time step continuity errors : sum local = 1.19946e-05, global = 1.69892e-19, cumulative = -1.13866e-18
[OGL LOG] init_preconditioner : 0 ms
[OGL LOG] solve : 5 ms
nonecudaGKOCG:  Solving for p, Initial residual = 4.31279e-05, Final residual = 8.52346e-07, No Iterations 34
linear solve p 5701
time step continuity errors : sum local = 1.19933e-05, global = 3.65437e-19, cumulative = -7.7322e-19
ExecutionTime = 1.04 s  ClockTime = 1 s

Time = 0.0666667

Courant Number mean: 0.184948 max: 0.791956
DILUPBiCGStab:  Solving for Ux, Initial residual = 1.41494e-05, Final residual = 1.14453e-11, No Iterations 5
DILUPBiCGStab:  Solving for Uy, Initial residual = 1.96795e-05, Final residual = 8.7235e-12, No Iterations 5
DILUPBiCGStab:  Solving for Uz, Initial residual = 0.000187123, Final residual = 2.19526e-10, No Iterations 5
linear solve U 1986
[OGL LOG] init_preconditioner : 0 ms
[OGL LOG] solve : 5 ms
nonecudaGKOCG:  Solving for p, Initial residual = 3.21078e-05, Final residual = 8.47474e-07, No Iterations 34
linear solve p 5778
time step continuity errors : sum local = 1.19945e-05, global = -3.30299e-19, cumulative = -1.10352e-18
[OGL LOG] init_preconditioner : 0 ms
[OGL LOG] solve : 5 ms
nonecudaGKOCG:  Solving for p, Initial residual = 2.37096e-05, Final residual = 8.25642e-07, No Iterations 32
linear solve p 5253
time step continuity errors : sum local = 1.19932e-05, global = 5.22778e-20, cumulative = -1.05124e-18
ExecutionTime = 1.06 s  ClockTime = 1 s

End

