/*---------------------------------------------------------------------------*\
  =========                 |
  \\      /  F ield         | OpenFOAM: The Open Source CFD Toolbox
   \\    /   O peration     | Website:  https://openfoam.org
    \\  /    A nd           | Version:  8
     \\/     M anipulation  |
\*---------------------------------------------------------------------------*/
Build  : 8-ef60d22ea792
Exec   : icoFoam
Date   : Sep 11 2021
Time   : 13:50:50
Host   : "uc2n513.localdomain"
PID    : 220794
I/O    : uncollated
Case   : /pfs/data5/home/kit/scc/nq7776/data/code/OBR/lidDrivenCavity3D/Variation_init/100/Variation_mesh/40/Variation_matrix_solver/CG_NoPrecond_CUDA/1631361046
nProcs : 1
sigFpe : Enabling floating point exception trapping (FOAM_SIGFPE).
fileModificationChecking : Monitoring run-time modified files using timeStampMaster (fileModificationSkew 10)
allowSystemOperations : Allowing user-supplied system call operations

// * * * * * * * * * * * * * * * * * * * * * * * * * * * * * * * * * * * * * //
Create time

Create mesh for time = 0

Reading transportProperties

Reading field p

Reading field U

Reading/calculating face flux field phi


Starting time loop

Time = 0.0025

Courant Number mean: 0.190855 max: 0.911003
DILUPBiCGStab:  Solving for Ux, Initial residual = 0.0769217, Final residual = 3.46977e-06, No Iterations 5
DILUPBiCGStab:  Solving for Uy, Initial residual = 0.121369, Final residual = 7.54429e-06, No Iterations 5
DILUPBiCGStab:  Solving for Uz, Initial residual = 0.12361, Final residual = 1.86097e-05, No Iterations 5
linear solve U 52564
[OGL LOG] init_host_sparsity_pattern : 16 ms
[OGL LOG] matrix not stored update host matrix
[OGL LOG] update_host_mtx : 9 ms
[OGL LOG] matrix is not yet sorted, compute sorting idxs
[OGL LOG] compute_sort : 480 ms
[OGL LOG] matrix is not yet sorted, sorting host matrix
[OGL LOG] sort_host_mtx_sparsity_pattern : 11 ms
[OGL LOG] sort_host_mtx : 6 ms
[OGL LOG] init_preconditioner : 0 ms
[OGL LOG] solve : 48 ms
nonecudaGKOCG:  Solving for p, Initial residual = 0.391661, Final residual = 9.75504e-07, No Iterations 326
linear solve p 1308106
time step continuity errors : sum local = 2.32754e-09, global = -1.18995e-19, cumulative = -1.18995e-19
[OGL LOG] init_preconditioner : 0 ms
[OGL LOG] solve : 44 ms
nonecudaGKOCG:  Solving for p, Initial residual = 0.205931, Final residual = 9.02923e-07, No Iterations 325
linear solve p 46098
time step continuity errors : sum local = 1.72857e-09, global = -1.63889e-21, cumulative = -1.20634e-19
ExecutionTime = 1.73 s  ClockTime = 1 s

Time = 0.005

Courant Number mean: 0.19083 max: 0.922157
DILUPBiCGStab:  Solving for Ux, Initial residual = 0.00575696, Final residual = 4.01269e-06, No Iterations 5
DILUPBiCGStab:  Solving for Uy, Initial residual = 0.0108106, Final residual = 8.4438e-06, No Iterations 5
DILUPBiCGStab:  Solving for Uz, Initial residual = 0.0200704, Final residual = 1.79996e-05, No Iterations 5
linear solve U 46395
[OGL LOG] init_preconditioner : 0 ms
[OGL LOG] solve : 44 ms
nonecudaGKOCG:  Solving for p, Initial residual = 0.136375, Final residual = 8.85389e-07, No Iterations 322
linear solve p 45607
time step continuity errors : sum local = 6.68203e-07, global = -7.76981e-20, cumulative = -1.98332e-19
[OGL LOG] init_preconditioner : 0 ms
[OGL LOG] solve : 43 ms
nonecudaGKOCG:  Solving for p, Initial residual = 0.0992977, Final residual = 8.71828e-07, No Iterations 320
linear solve p 45400
time step continuity errors : sum local = 6.28475e-07, global = -6.83422e-20, cumulative = -2.66674e-19
ExecutionTime = 1.9 s  ClockTime = 2 s

Time = 0.0075

Courant Number mean: 0.190722 max: 0.922357
DILUPBiCGStab:  Solving for Ux, Initial residual = 0.000899401, Final residual = 5.75041e-07, No Iterations 5
DILUPBiCGStab:  Solving for Uy, Initial residual = 0.00250208, Final residual = 1.55731e-06, No Iterations 5
DILUPBiCGStab:  Solving for Uz, Initial residual = 0.00535859, Final residual = 3.76355e-06, No Iterations 5
linear solve U 46013
[OGL LOG] init_preconditioner : 0 ms
[OGL LOG] solve : 42 ms
nonecudaGKOCG:  Solving for p, Initial residual = 0.0513107, Final residual = 9.35973e-07, No Iterations 312
linear solve p 44381
time step continuity errors : sum local = 6.1682e-07, global = 9.44325e-20, cumulative = -1.72241e-19
[OGL LOG] init_preconditioner : 0 ms
[OGL LOG] solve : 45 ms
nonecudaGKOCG:  Solving for p, Initial residual = 0.0378622, Final residual = 9.58926e-07, No Iterations 310
linear solve p 47156
time step continuity errors : sum local = 6.2584e-07, global = -5.43008e-20, cumulative = -2.26542e-19
ExecutionTime = 2.07 s  ClockTime = 2 s

Time = 0.01

Courant Number mean: 0.190704 max: 0.922533
DILUPBiCGStab:  Solving for Ux, Initial residual = 0.00035518, Final residual = 3.16501e-07, No Iterations 5
DILUPBiCGStab:  Solving for Uy, Initial residual = 0.000977327, Final residual = 6.02937e-07, No Iterations 5
DILUPBiCGStab:  Solving for Uz, Initial residual = 0.00273672, Final residual = 1.51884e-06, No Iterations 5
linear solve U 48117
[OGL LOG] init_preconditioner : 0 ms
[OGL LOG] solve : 43 ms
nonecudaGKOCG:  Solving for p, Initial residual = 0.0272846, Final residual = 9.8147e-07, No Iterations 305
linear solve p 44708
time step continuity errors : sum local = 6.29167e-07, global = -6.18193e-20, cumulative = -2.88361e-19
[OGL LOG] init_preconditioner : 0 ms
[OGL LOG] solve : 41 ms
nonecudaGKOCG:  Solving for p, Initial residual = 0.0205699, Final residual = 8.75314e-07, No Iterations 304
linear solve p 43231
time step continuity errors : sum local = 6.26273e-07, global = -4.078e-21, cumulative = -2.92439e-19
ExecutionTime = 2.24 s  ClockTime = 2 s

Time = 0.0125

Courant Number mean: 0.190674 max: 0.92242
DILUPBiCGStab:  Solving for Ux, Initial residual = 0.000166538, Final residual = 1.03167e-07, No Iterations 5
DILUPBiCGStab:  Solving for Uy, Initial residual = 0.000527449, Final residual = 2.53088e-07, No Iterations 5
DILUPBiCGStab:  Solving for Uz, Initial residual = 0.00116846, Final residual = 5.93976e-07, No Iterations 5
linear solve U 46083
[OGL LOG] init_preconditioner : 0 ms
[OGL LOG] solve : 40 ms
nonecudaGKOCG:  Solving for p, Initial residual = 0.0156925, Final residual = 8.58002e-07, No Iterations 297
linear solve p 42416
time step continuity errors : sum local = 6.25267e-07, global = -2.99227e-20, cumulative = -3.22362e-19
[OGL LOG] init_preconditioner : 0 ms
[OGL LOG] solve : 40 ms
nonecudaGKOCG:  Solving for p, Initial residual = 0.0118156, Final residual = 8.53666e-07, No Iterations 296
linear solve p 42292
time step continuity errors : sum local = 6.261e-07, global = 2.32293e-20, cumulative = -2.99133e-19
ExecutionTime = 2.4 s  ClockTime = 2 s

Time = 0.015

Courant Number mean: 0.190664 max: 0.922459
DILUPBiCGStab:  Solving for Ux, Initial residual = 0.000103799, Final residual = 6.82012e-08, No Iterations 5
DILUPBiCGStab:  Solving for Uy, Initial residual = 0.00030013, Final residual = 1.22671e-07, No Iterations 5
DILUPBiCGStab:  Solving for Uz, Initial residual = 0.000738082, Final residual = 3.42828e-07, No Iterations 5
linear solve U 47654
[OGL LOG] init_preconditioner : 0 ms
[OGL LOG] solve : 39 ms
nonecudaGKOCG:  Solving for p, Initial residual = 0.00952875, Final residual = 9.75869e-07, No Iterations 283
linear solve p 40781
time step continuity errors : sum local = 6.2658e-07, global = -1.87465e-20, cumulative = -3.17879e-19
[OGL LOG] init_preconditioner : 0 ms
[OGL LOG] solve : 38 ms
nonecudaGKOCG:  Solving for p, Initial residual = 0.0072028, Final residual = 9.52721e-07, No Iterations 281
linear solve p 40154
time step continuity errors : sum local = 6.26241e-07, global = -8.41077e-20, cumulative = -4.01987e-19
ExecutionTime = 2.56 s  ClockTime = 2 s

Time = 0.0175

Courant Number mean: 0.190653 max: 0.922415
DILUPBiCGStab:  Solving for Ux, Initial residual = 6.31938e-05, Final residual = 4.22951e-08, No Iterations 5
DILUPBiCGStab:  Solving for Uy, Initial residual = 0.000187158, Final residual = 6.54922e-08, No Iterations 5
DILUPBiCGStab:  Solving for Uz, Initial residual = 0.000448387, Final residual = 2.2058e-07, No Iterations 5
linear solve U 46240
[OGL LOG] init_preconditioner : 0 ms
[OGL LOG] solve : 18 ms
nonecudaGKOCG:  Solving for p, Initial residual = 0.00589739, Final residual = 8.75942e-07, No Iterations 133
linear solve p 20552
time step continuity errors : sum local = 6.26204e-07, global = 6.79891e-20, cumulative = -3.33998e-19
[OGL LOG] init_preconditioner : 0 ms
[OGL LOG] solve : 18 ms
nonecudaGKOCG:  Solving for p, Initial residual = 0.00445598, Final residual = 9.255e-07, No Iterations 131
linear solve p 20137
time step continuity errors : sum local = 6.26307e-07, global = -8.5895e-20, cumulative = -4.19893e-19
ExecutionTime = 2.68 s  ClockTime = 2 s

Time = 0.02

Courant Number mean: 0.190649 max: 0.922428
DILUPBiCGStab:  Solving for Ux, Initial residual = 4.35196e-05, Final residual = 1.89103e-08, No Iterations 5
DILUPBiCGStab:  Solving for Uy, Initial residual = 0.000120935, Final residual = 4.08542e-08, No Iterations 5
DILUPBiCGStab:  Solving for Uz, Initial residual = 0.000303041, Final residual = 1.43134e-07, No Iterations 5
linear solve U 46166
[OGL LOG] init_preconditioner : 0 ms
[OGL LOG] solve : 17 ms
nonecudaGKOCG:  Solving for p, Initial residual = 0.00371619, Final residual = 9.47164e-07, No Iterations 121
linear solve p 18802
time step continuity errors : sum local = 6.26475e-07, global = 1.82083e-21, cumulative = -4.18072e-19
[OGL LOG] init_preconditioner : 0 ms
[OGL LOG] solve : 16 ms
nonecudaGKOCG:  Solving for p, Initial residual = 0.00280623, Final residual = 9.64977e-07, No Iterations 118
linear solve p 18429
time step continuity errors : sum local = 6.26345e-07, global = -9.431e-20, cumulative = -5.12382e-19
ExecutionTime = 2.79 s  ClockTime = 3 s

Time = 0.0225

Courant Number mean: 0.190645 max: 0.92241
DILUPBiCGStab:  Solving for Ux, Initial residual = 2.89827e-05, Final residual = 1.09092e-08, No Iterations 5
DILUPBiCGStab:  Solving for Uy, Initial residual = 7.86044e-05, Final residual = 3.01885e-08, No Iterations 5
DILUPBiCGStab:  Solving for Uz, Initial residual = 0.000221601, Final residual = 1.11583e-07, No Iterations 5
linear solve U 46297
[OGL LOG] init_preconditioner : 0 ms
[OGL LOG] solve : 19 ms
nonecudaGKOCG:  Solving for p, Initial residual = 0.00234924, Final residual = 9.75449e-07, No Iterations 120
linear solve p 21107
time step continuity errors : sum local = 6.2643e-07, global = -8.47824e-20, cumulative = -5.97165e-19
[OGL LOG] init_preconditioner : 0 ms
[OGL LOG] solve : 16 ms
nonecudaGKOCG:  Solving for p, Initial residual = 0.00177198, Final residual = 9.35632e-07, No Iterations 118
linear solve p 18401
time step continuity errors : sum local = 6.26303e-07, global = 1.0421e-19, cumulative = -4.92954e-19
ExecutionTime = 2.92 s  ClockTime = 3 s

Time = 0.025

Courant Number mean: 0.190644 max: 0.922413
DILUPBiCGStab:  Solving for Ux, Initial residual = 2.09816e-05, Final residual = 7.71903e-09, No Iterations 5
DILUPBiCGStab:  Solving for Uy, Initial residual = 5.33213e-05, Final residual = 1.96933e-08, No Iterations 5
DILUPBiCGStab:  Solving for Uz, Initial residual = 0.000155974, Final residual = 7.71515e-08, No Iterations 5
linear solve U 46268
[OGL LOG] init_preconditioner : 0 ms
[OGL LOG] solve : 16 ms
nonecudaGKOCG:  Solving for p, Initial residual = 0.00149565, Final residual = 9.12958e-07, No Iterations 115
linear solve p 18033
time step continuity errors : sum local = 6.26371e-07, global = 6.52521e-20, cumulative = -4.27702e-19
[OGL LOG] init_preconditioner : 0 ms
[OGL LOG] solve : 16 ms
nonecudaGKOCG:  Solving for p, Initial residual = 0.00112714, Final residual = 9.54432e-07, No Iterations 111
linear solve p 17789
time step continuity errors : sum local = 6.26322e-07, global = -9.45612e-20, cumulative = -5.22263e-19
ExecutionTime = 3.03 s  ClockTime = 3 s

End

