/*---------------------------------------------------------------------------*\
  =========                 |
  \\      /  F ield         | OpenFOAM: The Open Source CFD Toolbox
   \\    /   O peration     | Website:  https://openfoam.org
    \\  /    A nd           | Version:  8
     \\/     M anipulation  |
\*---------------------------------------------------------------------------*/
Build  : 8-ef60d22ea792
Exec   : icoFoam
Date   : Sep 11 2021
Time   : 13:51:13
Host   : "uc2n513.localdomain"
PID    : 221107
I/O    : uncollated
Case   : /pfs/data5/home/kit/scc/nq7776/data/code/OBR/lidDrivenCavity3D/Variation_init/100/Variation_mesh/40/Variation_matrix_solver/BiCGStab_BJ_CUDA/1631361069
nProcs : 1
sigFpe : Enabling floating point exception trapping (FOAM_SIGFPE).
fileModificationChecking : Monitoring run-time modified files using timeStampMaster (fileModificationSkew 10)
allowSystemOperations : Allowing user-supplied system call operations

// * * * * * * * * * * * * * * * * * * * * * * * * * * * * * * * * * * * * * //
Create time

Create mesh for time = 0

Reading transportProperties

Reading field p

Reading field U

Reading/calculating face flux field phi


Starting time loop

Time = 0.0025

Courant Number mean: 0.190855 max: 0.911003
DILUPBiCGStab:  Solving for Ux, Initial residual = 0.0769217, Final residual = 3.46977e-06, No Iterations 5
DILUPBiCGStab:  Solving for Uy, Initial residual = 0.121369, Final residual = 7.54429e-06, No Iterations 5
DILUPBiCGStab:  Solving for Uz, Initial residual = 0.12361, Final residual = 1.86097e-05, No Iterations 5
linear solve U 52622
[OGL LOG] init_host_sparsity_pattern : 17 ms
[OGL LOG] matrix not stored update host matrix
[OGL LOG] update_host_mtx : 8 ms
[OGL LOG] matrix is not yet sorted, compute sorting idxs
[OGL LOG] compute_sort : 481 ms
[OGL LOG] matrix is not yet sorted, sorting host matrix
[OGL LOG] sort_host_mtx_sparsity_pattern : 11 ms
[OGL LOG] sort_host_mtx : 7 ms
[OGL LOG] init_preconditioner : 7 ms
[OGL LOG] solve : 58 ms
BJcudaGKOBiCGStab:  Solving for p, Initial residual = 0.391661, Final residual = 3.40543e-07, No Iterations 193
linear solve p 1328240
time step continuity errors : sum local = 8.91647e-10, global = -7.54832e-21, cumulative = -7.54832e-21
[OGL LOG] init_preconditioner : 0 ms
[OGL LOG] solve : 59 ms
BJcudaGKOBiCGStab:  Solving for p, Initial residual = 0.205931, Final residual = 5.53777e-07, No Iterations 211
linear solve p 61660
time step continuity errors : sum local = 1.07176e-09, global = -7.8775e-20, cumulative = -8.63233e-20
ExecutionTime = 1.77 s  ClockTime = 2 s

Time = 0.005

Courant Number mean: 0.19083 max: 0.922157
DILUPBiCGStab:  Solving for Ux, Initial residual = 0.00575695, Final residual = 4.01247e-06, No Iterations 5
DILUPBiCGStab:  Solving for Uy, Initial residual = 0.0108106, Final residual = 8.44232e-06, No Iterations 5
DILUPBiCGStab:  Solving for Uz, Initial residual = 0.0200707, Final residual = 1.79726e-05, No Iterations 5
linear solve U 46334
[OGL LOG] init_preconditioner : 0 ms
[OGL LOG] solve : 65 ms
BJcudaGKOBiCGStab:  Solving for p, Initial residual = 0.136375, Final residual = 5.7885e-07, No Iterations 231
linear solve p 67050
time step continuity errors : sum local = 6.67774e-07, global = 1.27805e-19, cumulative = 4.14812e-20
[OGL LOG] init_preconditioner : 0 ms
[OGL LOG] solve : 55 ms
BJcudaGKOBiCGStab:  Solving for p, Initial residual = 0.0992981, Final residual = 6.80136e-07, No Iterations 196
linear solve p 57212
time step continuity errors : sum local = 6.28279e-07, global = -6.86958e-20, cumulative = -2.72146e-20
ExecutionTime = 1.97 s  ClockTime = 2 s

Time = 0.0075

Courant Number mean: 0.190722 max: 0.922357
DILUPBiCGStab:  Solving for Ux, Initial residual = 0.00089939, Final residual = 5.76078e-07, No Iterations 5
DILUPBiCGStab:  Solving for Uy, Initial residual = 0.00250198, Final residual = 1.55715e-06, No Iterations 5
DILUPBiCGStab:  Solving for Uz, Initial residual = 0.00536006, Final residual = 3.77393e-06, No Iterations 5
linear solve U 46274
[OGL LOG] init_preconditioner : 0 ms
[OGL LOG] solve : 50 ms
BJcudaGKOBiCGStab:  Solving for p, Initial residual = 0.0513105, Final residual = 7.7161e-07, No Iterations 177
linear solve p 52279
time step continuity errors : sum local = 6.17325e-07, global = 4.21862e-21, cumulative = -2.29959e-20
[OGL LOG] init_preconditioner : 0 ms
[OGL LOG] solve : 50 ms
BJcudaGKOBiCGStab:  Solving for p, Initial residual = 0.0378614, Final residual = 9.13185e-07, No Iterations 178
linear solve p 52709
time step continuity errors : sum local = 6.27117e-07, global = 8.28732e-21, cumulative = -1.47086e-20
ExecutionTime = 2.17 s  ClockTime = 2 s

Time = 0.01

Courant Number mean: 0.190704 max: 0.922533
DILUPBiCGStab:  Solving for Ux, Initial residual = 0.000354975, Final residual = 3.16631e-07, No Iterations 5
DILUPBiCGStab:  Solving for Uy, Initial residual = 0.000978355, Final residual = 6.02431e-07, No Iterations 5
DILUPBiCGStab:  Solving for Uz, Initial residual = 0.0027506, Final residual = 1.56258e-06, No Iterations 5
linear solve U 46038
[OGL LOG] init_preconditioner : 0 ms
[OGL LOG] solve : 50 ms
BJcudaGKOBiCGStab:  Solving for p, Initial residual = 0.0272935, Final residual = 7.66666e-07, No Iterations 178
linear solve p 52349
time step continuity errors : sum local = 6.29099e-07, global = -8.11164e-20, cumulative = -9.58251e-20
[OGL LOG] init_preconditioner : 0 ms
[OGL LOG] solve : 50 ms
BJcudaGKOBiCGStab:  Solving for p, Initial residual = 0.0205782, Final residual = 8.75622e-07, No Iterations 176
linear solve p 52229
time step continuity errors : sum local = 6.26459e-07, global = 7.16576e-20, cumulative = -2.41674e-20
ExecutionTime = 2.34 s  ClockTime = 2 s

Time = 0.0125

Courant Number mean: 0.190674 max: 0.92242
DILUPBiCGStab:  Solving for Ux, Initial residual = 0.00016697, Final residual = 1.0324e-07, No Iterations 5
DILUPBiCGStab:  Solving for Uy, Initial residual = 0.00052771, Final residual = 2.54478e-07, No Iterations 5
DILUPBiCGStab:  Solving for Uz, Initial residual = 0.00119174, Final residual = 6.04227e-07, No Iterations 5
linear solve U 46195
[OGL LOG] init_preconditioner : 0 ms
[OGL LOG] solve : 40 ms
BJcudaGKOBiCGStab:  Solving for p, Initial residual = 0.0157004, Final residual = 9.96128e-07, No Iterations 136
linear solve p 41975
time step continuity errors : sum local = 6.26828e-07, global = 1.82393e-21, cumulative = -2.23435e-20
[OGL LOG] init_preconditioner : 0 ms
[OGL LOG] solve : 23 ms
BJcudaGKOBiCGStab:  Solving for p, Initial residual = 0.0118223, Final residual = 8.86354e-07, No Iterations 78
linear solve p 24840
time step continuity errors : sum local = 6.26378e-07, global = 4.30599e-21, cumulative = -1.80375e-20
ExecutionTime = 2.49 s  ClockTime = 2 s

Time = 0.015

Courant Number mean: 0.190664 max: 0.922459
DILUPBiCGStab:  Solving for Ux, Initial residual = 0.000103678, Final residual = 6.87866e-08, No Iterations 5
DILUPBiCGStab:  Solving for Uy, Initial residual = 0.000301812, Final residual = 1.25705e-07, No Iterations 5
DILUPBiCGStab:  Solving for Uz, Initial residual = 0.000775265, Final residual = 4.36989e-07, No Iterations 5
linear solve U 46188
[OGL LOG] init_preconditioner : 0 ms
[OGL LOG] solve : 48 ms
BJcudaGKOBiCGStab:  Solving for p, Initial residual = 0.00953972, Final residual = 5.72312e-07, No Iterations 170
linear solve p 50277
time step continuity errors : sum local = 6.26188e-07, global = 3.10431e-20, cumulative = 1.30055e-20
[OGL LOG] init_preconditioner : 0 ms
[OGL LOG] solve : 44 ms
BJcudaGKOBiCGStab:  Solving for p, Initial residual = 0.00721256, Final residual = 7.60671e-07, No Iterations 157
linear solve p 46468
time step continuity errors : sum local = 6.26249e-07, global = 2.67086e-20, cumulative = 3.97142e-20
ExecutionTime = 2.67 s  ClockTime = 2 s

Time = 0.0175

Courant Number mean: 0.190653 max: 0.922415
DILUPBiCGStab:  Solving for Ux, Initial residual = 6.35428e-05, Final residual = 4.22145e-08, No Iterations 5
DILUPBiCGStab:  Solving for Uy, Initial residual = 0.000187393, Final residual = 6.34779e-08, No Iterations 5
DILUPBiCGStab:  Solving for Uz, Initial residual = 0.000481785, Final residual = 2.65742e-07, No Iterations 5
linear solve U 46061
[OGL LOG] init_preconditioner : 0 ms
[OGL LOG] solve : 21 ms
BJcudaGKOBiCGStab:  Solving for p, Initial residual = 0.00590033, Final residual = 9.57941e-07, No Iterations 70
linear solve p 22919
time step continuity errors : sum local = 6.27047e-07, global = 3.789e-20, cumulative = 7.76042e-20
[OGL LOG] init_preconditioner : 0 ms
[OGL LOG] solve : 17 ms
BJcudaGKOBiCGStab:  Solving for p, Initial residual = 0.00445855, Final residual = 9.84177e-07, No Iterations 58
linear solve p 19256
time step continuity errors : sum local = 6.26474e-07, global = 2.29853e-20, cumulative = 1.00589e-19
ExecutionTime = 2.78 s  ClockTime = 3 s

Time = 0.02

Courant Number mean: 0.190649 max: 0.922428
DILUPBiCGStab:  Solving for Ux, Initial residual = 4.35277e-05, Final residual = 1.90066e-08, No Iterations 5
DILUPBiCGStab:  Solving for Uy, Initial residual = 0.000121502, Final residual = 4.24502e-08, No Iterations 5
DILUPBiCGStab:  Solving for Uz, Initial residual = 0.000317183, Final residual = 1.81847e-07, No Iterations 5
linear solve U 46247
[OGL LOG] init_preconditioner : 0 ms
[OGL LOG] solve : 19 ms
BJcudaGKOBiCGStab:  Solving for p, Initial residual = 0.00371983, Final residual = 8.63302e-07, No Iterations 67
linear solve p 21397
time step continuity errors : sum local = 6.27055e-07, global = -7.1061e-20, cumulative = 2.95285e-20
[OGL LOG] init_preconditioner : 0 ms
[OGL LOG] solve : 19 ms
BJcudaGKOBiCGStab:  Solving for p, Initial residual = 0.0028092, Final residual = 8.18504e-07, No Iterations 64
linear solve p 21145
time step continuity errors : sum local = 6.26255e-07, global = 6.26238e-20, cumulative = 9.21523e-20
ExecutionTime = 2.91 s  ClockTime = 3 s

Time = 0.0225

Courant Number mean: 0.190645 max: 0.92241
DILUPBiCGStab:  Solving for Ux, Initial residual = 2.90642e-05, Final residual = 1.13268e-08, No Iterations 5
DILUPBiCGStab:  Solving for Uy, Initial residual = 7.87766e-05, Final residual = 3.01884e-08, No Iterations 5
DILUPBiCGStab:  Solving for Uz, Initial residual = 0.000236676, Final residual = 1.16039e-07, No Iterations 5
linear solve U 46288
[OGL LOG] init_preconditioner : 0 ms
[OGL LOG] solve : 21 ms
BJcudaGKOBiCGStab:  Solving for p, Initial residual = 0.00235427, Final residual = 8.81327e-07, No Iterations 71
linear solve p 22777
time step continuity errors : sum local = 6.26599e-07, global = -3.59513e-20, cumulative = 5.62009e-20
[OGL LOG] init_preconditioner : 0 ms
[OGL LOG] solve : 15 ms
BJcudaGKOBiCGStab:  Solving for p, Initial residual = 0.00177638, Final residual = 9.62373e-07, No Iterations 51
linear solve p 17103
time step continuity errors : sum local = 6.2656e-07, global = -5.53534e-20, cumulative = 8.47541e-22
ExecutionTime = 3.03 s  ClockTime = 3 s

Time = 0.025

Courant Number mean: 0.190644 max: 0.922413
DILUPBiCGStab:  Solving for Ux, Initial residual = 2.11652e-05, Final residual = 7.59483e-09, No Iterations 5
DILUPBiCGStab:  Solving for Uy, Initial residual = 5.35948e-05, Final residual = 2.01023e-08, No Iterations 5
DILUPBiCGStab:  Solving for Uz, Initial residual = 0.000167849, Final residual = 8.8231e-08, No Iterations 5
linear solve U 46184
[OGL LOG] init_preconditioner : 0 ms
[OGL LOG] solve : 20 ms
BJcudaGKOBiCGStab:  Solving for p, Initial residual = 0.00149969, Final residual = 9.93653e-07, No Iterations 69
linear solve p 21961
time step continuity errors : sum local = 6.26881e-07, global = 5.50137e-20, cumulative = 5.58613e-20
[OGL LOG] init_preconditioner : 0 ms
[OGL LOG] solve : 14 ms
BJcudaGKOBiCGStab:  Solving for p, Initial residual = 0.0011306, Final residual = 9.60864e-07, No Iterations 47
linear solve p 15973
time step continuity errors : sum local = 6.2651e-07, global = -6.15397e-20, cumulative = -5.6784e-21
ExecutionTime = 3.14 s  ClockTime = 3 s

End

