/*---------------------------------------------------------------------------*\
  =========                 |
  \\      /  F ield         | OpenFOAM: The Open Source CFD Toolbox
   \\    /   O peration     | Website:  https://openfoam.org
    \\  /    A nd           | Version:  8
     \\/     M anipulation  |
\*---------------------------------------------------------------------------*/
Build  : 8-ef60d22ea792
Exec   : icoFoam
Date   : Sep 11 2021
Time   : 14:54:00
Host   : "uc2n442.localdomain"
PID    : 3723949
I/O    : uncollated
Case   : /pfs/data5/home/kit/scc/nq7776/data/code/OBR/lidDrivenCavity3D/Variation_init/100/Variation_mesh/50/Variation_matrix_solver/BiCGStab_DIC_Serial/1631364836
nProcs : 1
sigFpe : Enabling floating point exception trapping (FOAM_SIGFPE).
fileModificationChecking : Monitoring run-time modified files using timeStampMaster (fileModificationSkew 10)
allowSystemOperations : Allowing user-supplied system call operations

// * * * * * * * * * * * * * * * * * * * * * * * * * * * * * * * * * * * * * //
Create time

Create mesh for time = 0

Reading transportProperties

Reading field p

Reading field U

Reading/calculating face flux field phi


Starting time loop

Time = 0.002

Courant Number mean: 0.192148 max: 0.956831
DILUPBiCGStab:  Solving for Ux, Initial residual = 0.172561, Final residual = 2.46398e-05, No Iterations 5
DILUPBiCGStab:  Solving for Uy, Initial residual = 0.345881, Final residual = 4.22593e-05, No Iterations 5
DILUPBiCGStab:  Solving for Uz, Initial residual = 0.516458, Final residual = 7.14476e-05, No Iterations 5
linear solve U 112916
DICPBiCGStab:  Solving for p, Initial residual = 0.676582, Final residual = 2.30709e-07, No Iterations 99
linear solve p 501896
time step continuity errors : sum local = 7.33185e-10, global = -1.63053e-20, cumulative = -1.63053e-20
DICPBiCGStab:  Solving for p, Initial residual = 0.411257, Final residual = 6.39133e-07, No Iterations 100
linear solve p 507919
time step continuity errors : sum local = 1.0549e-09, global = 6.37162e-20, cumulative = 4.74109e-20
ExecutionTime = 1.73 s  ClockTime = 2 s

Time = 0.004

Courant Number mean: 0.192597 max: 0.939084
DILUPBiCGStab:  Solving for Ux, Initial residual = 0.0107651, Final residual = 2.47585e-05, No Iterations 5
DILUPBiCGStab:  Solving for Uy, Initial residual = 0.021404, Final residual = 3.55414e-05, No Iterations 5
DILUPBiCGStab:  Solving for Uz, Initial residual = 0.0908837, Final residual = 0.000102027, No Iterations 5
linear solve U 101849
DICPBiCGStab:  Solving for p, Initial residual = 0.329324, Final residual = 9.88422e-07, No Iterations 102
linear solve p 520280
time step continuity errors : sum local = 1.65829e-09, global = 1.55342e-20, cumulative = 6.29451e-20
DICPBiCGStab:  Solving for p, Initial residual = 0.245942, Final residual = 9.47244e-07, No Iterations 103
linear solve p 520435
time step continuity errors : sum local = 1.60005e-09, global = -2.12481e-20, cumulative = 4.1697e-20
ExecutionTime = 2.93 s  ClockTime = 3 s

Time = 0.006

Courant Number mean: 0.192342 max: 0.940635
DILUPBiCGStab:  Solving for Ux, Initial residual = 0.00352116, Final residual = 6.70892e-06, No Iterations 5
DILUPBiCGStab:  Solving for Uy, Initial residual = 0.00758733, Final residual = 1.70046e-05, No Iterations 5
DILUPBiCGStab:  Solving for Uz, Initial residual = 0.0401285, Final residual = 6.16876e-05, No Iterations 5
linear solve U 101907
DICPBiCGStab:  Solving for p, Initial residual = 0.174836, Final residual = 8.78353e-07, No Iterations 95
linear solve p 480945
time step continuity errors : sum local = 1.29188e-09, global = 3.40947e-20, cumulative = 7.57917e-20
DICPBiCGStab:  Solving for p, Initial residual = 0.135103, Final residual = 5.82439e-07, No Iterations 97
linear solve p 489669
time step continuity errors : sum local = 9.32582e-10, global = 1.46905e-20, cumulative = 9.04822e-20
ExecutionTime = 4.06 s  ClockTime = 4 s

Time = 0.008

Courant Number mean: 0.191845 max: 0.938398
DILUPBiCGStab:  Solving for Ux, Initial residual = 0.0014526, Final residual = 1.85398e-06, No Iterations 5
DILUPBiCGStab:  Solving for Uy, Initial residual = 0.00279581, Final residual = 4.23559e-06, No Iterations 5
DILUPBiCGStab:  Solving for Uz, Initial residual = 0.0155911, Final residual = 2.29595e-05, No Iterations 5
linear solve U 102133
DICPBiCGStab:  Solving for p, Initial residual = 0.104348, Final residual = 5.81267e-07, No Iterations 95
linear solve p 478787
time step continuity errors : sum local = 7.23879e-10, global = 1.04167e-20, cumulative = 1.00899e-19
DICPBiCGStab:  Solving for p, Initial residual = 0.0812712, Final residual = 8.04258e-07, No Iterations 94
linear solve p 473518
time step continuity errors : sum local = 9.91906e-10, global = -2.25951e-20, cumulative = 7.83037e-20
ExecutionTime = 5.18 s  ClockTime = 5 s

Time = 0.01

Courant Number mean: 0.191684 max: 0.938454
DILUPBiCGStab:  Solving for Ux, Initial residual = 0.000754405, Final residual = 1.3989e-06, No Iterations 5
DILUPBiCGStab:  Solving for Uy, Initial residual = 0.00149056, Final residual = 3.19465e-06, No Iterations 5
DILUPBiCGStab:  Solving for Uz, Initial residual = 0.00883172, Final residual = 1.13967e-05, No Iterations 5
linear solve U 101785
DICPBiCGStab:  Solving for p, Initial residual = 0.066053, Final residual = 9.75187e-07, No Iterations 59
linear solve p 296801
time step continuity errors : sum local = 2.20265e-09, global = 3.65447e-20, cumulative = 1.14848e-19
DICPBiCGStab:  Solving for p, Initial residual = 0.0511239, Final residual = 9.8063e-07, No Iterations 46
linear solve p 232641
time step continuity errors : sum local = 1.41539e-09, global = -5.99053e-22, cumulative = 1.14249e-19
ExecutionTime = 5.87 s  ClockTime = 6 s

Time = 0.012

Courant Number mean: 0.191526 max: 0.938315
DILUPBiCGStab:  Solving for Ux, Initial residual = 0.00047514, Final residual = 6.51981e-07, No Iterations 5
DILUPBiCGStab:  Solving for Uy, Initial residual = 0.000801339, Final residual = 1.24204e-06, No Iterations 5
DILUPBiCGStab:  Solving for Uz, Initial residual = 0.00455949, Final residual = 4.89761e-06, No Iterations 5
linear solve U 101845
DICPBiCGStab:  Solving for p, Initial residual = 0.0433165, Final residual = 7.57472e-07, No Iterations 46
linear solve p 234507
time step continuity errors : sum local = 1.43693e-09, global = -1.69196e-21, cumulative = 1.12557e-19
DICPBiCGStab:  Solving for p, Initial residual = 0.0334615, Final residual = 9.40714e-07, No Iterations 43
linear solve p 217947
time step continuity errors : sum local = 1.17722e-09, global = -2.89118e-20, cumulative = 8.36456e-20
ExecutionTime = 6.49 s  ClockTime = 7 s

Time = 0.014

Courant Number mean: 0.191434 max: 0.93818
DILUPBiCGStab:  Solving for Ux, Initial residual = 0.00030508, Final residual = 5.43554e-07, No Iterations 5
DILUPBiCGStab:  Solving for Uy, Initial residual = 0.000506034, Final residual = 7.97533e-07, No Iterations 5
DILUPBiCGStab:  Solving for Uz, Initial residual = 0.0027834, Final residual = 2.95536e-06, No Iterations 5
linear solve U 101476
DICPBiCGStab:  Solving for p, Initial residual = 0.0289462, Final residual = 8.8465e-07, No Iterations 94
linear solve p 476956
time step continuity errors : sum local = 1.00665e-09, global = -3.15214e-20, cumulative = 5.21241e-20
DICPBiCGStab:  Solving for p, Initial residual = 0.0222973, Final residual = 9.87485e-07, No Iterations 41
linear solve p 208489
time step continuity errors : sum local = 2.17614e-09, global = 9.94198e-20, cumulative = 1.51544e-19
ExecutionTime = 7.34 s  ClockTime = 8 s

Time = 0.016

Courant Number mean: 0.191359 max: 0.938152
DILUPBiCGStab:  Solving for Ux, Initial residual = 0.000210798, Final residual = 2.61137e-07, No Iterations 5
DILUPBiCGStab:  Solving for Uy, Initial residual = 0.000325992, Final residual = 3.77419e-07, No Iterations 5
DILUPBiCGStab:  Solving for Uz, Initial residual = 0.00164859, Final residual = 1.89755e-06, No Iterations 5
linear solve U 101947
DICPBiCGStab:  Solving for p, Initial residual = 0.0196035, Final residual = 9.78017e-07, No Iterations 81
linear solve p 407074
time step continuity errors : sum local = 1.10423e-09, global = -2.3087e-20, cumulative = 1.28457e-19
DICPBiCGStab:  Solving for p, Initial residual = 0.0150719, Final residual = 9.97181e-07, No Iterations 76
linear solve p 382542
time step continuity errors : sum local = 1.13501e-09, global = -5.3864e-21, cumulative = 1.23071e-19
ExecutionTime = 8.29 s  ClockTime = 9 s

Time = 0.018

Courant Number mean: 0.191306 max: 0.938082
DILUPBiCGStab:  Solving for Ux, Initial residual = 0.000146364, Final residual = 1.52853e-07, No Iterations 5
DILUPBiCGStab:  Solving for Uy, Initial residual = 0.000223846, Final residual = 1.99417e-07, No Iterations 5
DILUPBiCGStab:  Solving for Uz, Initial residual = 0.00109371, Final residual = 1.03579e-06, No Iterations 5
linear solve U 101569
DICPBiCGStab:  Solving for p, Initial residual = 0.0133921, Final residual = 9.98375e-07, No Iterations 77
linear solve p 389196
time step continuity errors : sum local = 1.20777e-09, global = 4.29915e-20, cumulative = 1.66062e-19
DICPBiCGStab:  Solving for p, Initial residual = 0.0102934, Final residual = 9.70117e-07, No Iterations 81
linear solve p 410339
time step continuity errors : sum local = 1.09166e-09, global = -3.07275e-20, cumulative = 1.35335e-19
ExecutionTime = 9.25 s  ClockTime = 9 s

Time = 0.02

Courant Number mean: 0.191264 max: 0.938065
DILUPBiCGStab:  Solving for Ux, Initial residual = 0.000105714, Final residual = 1.00965e-07, No Iterations 5
DILUPBiCGStab:  Solving for Uy, Initial residual = 0.000156418, Final residual = 1.08598e-07, No Iterations 5
DILUPBiCGStab:  Solving for Uz, Initial residual = 0.000702056, Final residual = 7.97161e-07, No Iterations 5
linear solve U 102453
DICPBiCGStab:  Solving for p, Initial residual = 0.00920483, Final residual = 8.47297e-07, No Iterations 73
linear solve p 370757
time step continuity errors : sum local = 9.51817e-10, global = 1.18347e-20, cumulative = 1.47169e-19
DICPBiCGStab:  Solving for p, Initial residual = 0.00707136, Final residual = 8.88494e-07, No Iterations 69
linear solve p 349798
time step continuity errors : sum local = 9.99194e-10, global = 3.86964e-20, cumulative = 1.85866e-19
ExecutionTime = 10.13 s  ClockTime = 10 s

End

