/*---------------------------------------------------------------------------*\
  =========                 |
  \\      /  F ield         | OpenFOAM: The Open Source CFD Toolbox
   \\    /   O peration     | Website:  https://openfoam.org
    \\  /    A nd           | Version:  8
     \\/     M anipulation  |
\*---------------------------------------------------------------------------*/
Build  : 8-ef60d22ea792
Exec   : icoFoam
Date   : Sep 11 2021
Time   : 13:50:26
Host   : "uc2n513.localdomain"
PID    : 220477
I/O    : uncollated
Case   : /pfs/data5/home/kit/scc/nq7776/data/code/OBR/lidDrivenCavity3D/Variation_init/100/Variation_mesh/40/Variation_matrix_solver/CG_BJ_CUDA/1631361022
nProcs : 1
sigFpe : Enabling floating point exception trapping (FOAM_SIGFPE).
fileModificationChecking : Monitoring run-time modified files using timeStampMaster (fileModificationSkew 10)
allowSystemOperations : Allowing user-supplied system call operations

// * * * * * * * * * * * * * * * * * * * * * * * * * * * * * * * * * * * * * //
Create time

Create mesh for time = 0

Reading transportProperties

Reading field p

Reading field U

Reading/calculating face flux field phi


Starting time loop

Time = 0.0025

Courant Number mean: 0.190855 max: 0.911003
DILUPBiCGStab:  Solving for Ux, Initial residual = 0.0769217, Final residual = 3.46977e-06, No Iterations 5
DILUPBiCGStab:  Solving for Uy, Initial residual = 0.121369, Final residual = 7.54429e-06, No Iterations 5
DILUPBiCGStab:  Solving for Uz, Initial residual = 0.12361, Final residual = 1.86097e-05, No Iterations 5
linear solve U 52228
[OGL LOG] init_host_sparsity_pattern : 16 ms
[OGL LOG] matrix not stored update host matrix
[OGL LOG] update_host_mtx : 8 ms
[OGL LOG] matrix is not yet sorted, compute sorting idxs
[OGL LOG] compute_sort : 478 ms
[OGL LOG] matrix is not yet sorted, sorting host matrix
[OGL LOG] sort_host_mtx_sparsity_pattern : 10 ms
[OGL LOG] sort_host_mtx : 6 ms
[OGL LOG] init_preconditioner : 7 ms
[OGL LOG] solve : 42 ms
BJcudaGKOCG:  Solving for p, Initial residual = 0.391661, Final residual = 9.74021e-07, No Iterations 267
linear solve p 1308390
time step continuity errors : sum local = 2.32392e-09, global = -3.9921e-20, cumulative = -3.9921e-20
[OGL LOG] init_preconditioner : 0 ms
[OGL LOG] solve : 39 ms
BJcudaGKOCG:  Solving for p, Initial residual = 0.205931, Final residual = 9.5423e-07, No Iterations 274
linear solve p 41519
time step continuity errors : sum local = 1.82684e-09, global = -3.34816e-20, cumulative = -7.34026e-20
ExecutionTime = 1.72 s  ClockTime = 2 s

Time = 0.005

Courant Number mean: 0.19083 max: 0.922157
DILUPBiCGStab:  Solving for Ux, Initial residual = 0.00575695, Final residual = 4.01265e-06, No Iterations 5
DILUPBiCGStab:  Solving for Uy, Initial residual = 0.0108106, Final residual = 8.44383e-06, No Iterations 5
DILUPBiCGStab:  Solving for Uz, Initial residual = 0.0200706, Final residual = 1.79957e-05, No Iterations 5
linear solve U 46217
[OGL LOG] init_preconditioner : 0 ms
[OGL LOG] solve : 39 ms
BJcudaGKOCG:  Solving for p, Initial residual = 0.136374, Final residual = 8.8832e-07, No Iterations 273
linear solve p 41359
time step continuity errors : sum local = 6.68126e-07, global = -1.28258e-19, cumulative = -2.01661e-19
[OGL LOG] init_preconditioner : 0 ms
[OGL LOG] solve : 38 ms
BJcudaGKOCG:  Solving for p, Initial residual = 0.0992968, Final residual = 9.78922e-07, No Iterations 264
linear solve p 40328
time step continuity errors : sum local = 6.28562e-07, global = -2.28033e-20, cumulative = -2.24464e-19
ExecutionTime = 1.89 s  ClockTime = 2 s

Time = 0.0075

Courant Number mean: 0.190722 max: 0.922357
DILUPBiCGStab:  Solving for Ux, Initial residual = 0.000899382, Final residual = 5.75028e-07, No Iterations 5
DILUPBiCGStab:  Solving for Uy, Initial residual = 0.0025021, Final residual = 1.55725e-06, No Iterations 5
DILUPBiCGStab:  Solving for Uz, Initial residual = 0.00535822, Final residual = 3.76294e-06, No Iterations 5
linear solve U 46324
[OGL LOG] init_preconditioner : 0 ms
[OGL LOG] solve : 36 ms
BJcudaGKOCG:  Solving for p, Initial residual = 0.0513107, Final residual = 8.07931e-07, No Iterations 253
linear solve p 38547
time step continuity errors : sum local = 6.16619e-07, global = 6.17894e-20, cumulative = -1.62675e-19
[OGL LOG] init_preconditioner : 0 ms
[OGL LOG] solve : 39 ms
BJcudaGKOCG:  Solving for p, Initial residual = 0.0378621, Final residual = 9.20369e-07, No Iterations 251
linear solve p 41057
time step continuity errors : sum local = 6.25771e-07, global = 8.30665e-20, cumulative = -7.96085e-20
ExecutionTime = 2.05 s  ClockTime = 2 s

Time = 0.01

Courant Number mean: 0.190704 max: 0.922533
DILUPBiCGStab:  Solving for Ux, Initial residual = 0.000355168, Final residual = 3.16505e-07, No Iterations 5
DILUPBiCGStab:  Solving for Uy, Initial residual = 0.000977354, Final residual = 6.0316e-07, No Iterations 5
DILUPBiCGStab:  Solving for Uz, Initial residual = 0.00273656, Final residual = 1.51588e-06, No Iterations 5
linear solve U 46476
[OGL LOG] init_preconditioner : 0 ms
[OGL LOG] solve : 35 ms
BJcudaGKOCG:  Solving for p, Initial residual = 0.0272831, Final residual = 9.6652e-07, No Iterations 245
linear solve p 37469
time step continuity errors : sum local = 6.29154e-07, global = 2.68017e-20, cumulative = -5.28068e-20
[OGL LOG] init_preconditioner : 0 ms
[OGL LOG] solve : 35 ms
BJcudaGKOCG:  Solving for p, Initial residual = 0.0205687, Final residual = 9.15025e-07, No Iterations 244
linear solve p 37412
time step continuity errors : sum local = 6.26285e-07, global = 4.01358e-20, cumulative = -1.2671e-20
ExecutionTime = 2.2 s  ClockTime = 3 s

Time = 0.0125

Courant Number mean: 0.190674 max: 0.92242
DILUPBiCGStab:  Solving for Ux, Initial residual = 0.000166527, Final residual = 1.03165e-07, No Iterations 5
DILUPBiCGStab:  Solving for Uy, Initial residual = 0.00052746, Final residual = 2.52999e-07, No Iterations 5
DILUPBiCGStab:  Solving for Uz, Initial residual = 0.00116839, Final residual = 5.93547e-07, No Iterations 5
linear solve U 46122
[OGL LOG] init_preconditioner : 0 ms
[OGL LOG] solve : 34 ms
BJcudaGKOCG:  Solving for p, Initial residual = 0.0156922, Final residual = 9.92401e-07, No Iterations 236
linear solve p 36251
time step continuity errors : sum local = 6.25434e-07, global = 1.26248e-20, cumulative = -4.61493e-23
[OGL LOG] init_preconditioner : 0 ms
[OGL LOG] solve : 34 ms
BJcudaGKOCG:  Solving for p, Initial residual = 0.0118154, Final residual = 9.51089e-07, No Iterations 235
linear solve p 35997
time step continuity errors : sum local = 6.262e-07, global = -7.64211e-21, cumulative = -7.68826e-21
ExecutionTime = 2.34 s  ClockTime = 3 s

Time = 0.015

Courant Number mean: 0.190664 max: 0.922459
DILUPBiCGStab:  Solving for Ux, Initial residual = 0.000103798, Final residual = 6.82052e-08, No Iterations 5
DILUPBiCGStab:  Solving for Uy, Initial residual = 0.00030013, Final residual = 1.2267e-07, No Iterations 5
DILUPBiCGStab:  Solving for Uz, Initial residual = 0.000738089, Final residual = 3.43714e-07, No Iterations 5
linear solve U 46325
[OGL LOG] init_preconditioner : 0 ms
[OGL LOG] solve : 34 ms
BJcudaGKOCG:  Solving for p, Initial residual = 0.0095288, Final residual = 9.95569e-07, No Iterations 230
linear solve p 36523
time step continuity errors : sum local = 6.26635e-07, global = 4.73478e-20, cumulative = 3.96596e-20
[OGL LOG] init_preconditioner : 0 ms
[OGL LOG] solve : 33 ms
BJcudaGKOCG:  Solving for p, Initial residual = 0.00720286, Final residual = 9.29997e-07, No Iterations 229
linear solve p 35246
time step continuity errors : sum local = 6.26239e-07, global = 6.24066e-20, cumulative = 1.02066e-19
ExecutionTime = 2.5 s  ClockTime = 3 s

Time = 0.0175

Courant Number mean: 0.190653 max: 0.922415
DILUPBiCGStab:  Solving for Ux, Initial residual = 6.31956e-05, Final residual = 4.23003e-08, No Iterations 5
DILUPBiCGStab:  Solving for Uy, Initial residual = 0.000187144, Final residual = 6.54734e-08, No Iterations 5
DILUPBiCGStab:  Solving for Uz, Initial residual = 0.000448692, Final residual = 2.20918e-07, No Iterations 5
linear solve U 45902
[OGL LOG] init_preconditioner : 0 ms
[OGL LOG] solve : 14 ms
BJcudaGKOCG:  Solving for p, Initial residual = 0.00589738, Final residual = 9.12898e-07, No Iterations 98
linear solve p 16510
time step continuity errors : sum local = 6.26259e-07, global = -2.5319e-20, cumulative = 7.67472e-20
[OGL LOG] init_preconditioner : 0 ms
[OGL LOG] solve : 13 ms
BJcudaGKOCG:  Solving for p, Initial residual = 0.00445588, Final residual = 9.52024e-07, No Iterations 90
linear solve p 15458
time step continuity errors : sum local = 6.26379e-07, global = 4.3944e-21, cumulative = 8.11416e-20
ExecutionTime = 2.6 s  ClockTime = 3 s

Time = 0.02

Courant Number mean: 0.190649 max: 0.922428
DILUPBiCGStab:  Solving for Ux, Initial residual = 4.34966e-05, Final residual = 1.89251e-08, No Iterations 5
DILUPBiCGStab:  Solving for Uy, Initial residual = 0.000121023, Final residual = 4.09932e-08, No Iterations 5
DILUPBiCGStab:  Solving for Uz, Initial residual = 0.000302565, Final residual = 1.42562e-07, No Iterations 5
linear solve U 46042
[OGL LOG] init_preconditioner : 0 ms
[OGL LOG] solve : 14 ms
BJcudaGKOCG:  Solving for p, Initial residual = 0.00371648, Final residual = 9.4531e-07, No Iterations 97
linear solve p 16458
time step continuity errors : sum local = 6.26485e-07, global = 5.08235e-20, cumulative = 1.31965e-19
[OGL LOG] init_preconditioner : 0 ms
[OGL LOG] solve : 14 ms
BJcudaGKOCG:  Solving for p, Initial residual = 0.0028064, Final residual = 8.83848e-07, No Iterations 96
linear solve p 16268
time step continuity errors : sum local = 6.26281e-07, global = 1.14921e-20, cumulative = 1.43457e-19
ExecutionTime = 2.72 s  ClockTime = 3 s

Time = 0.0225

Courant Number mean: 0.190645 max: 0.92241
DILUPBiCGStab:  Solving for Ux, Initial residual = 2.8993e-05, Final residual = 1.08925e-08, No Iterations 5
DILUPBiCGStab:  Solving for Uy, Initial residual = 7.85441e-05, Final residual = 3.01537e-08, No Iterations 5
DILUPBiCGStab:  Solving for Uz, Initial residual = 0.000222612, Final residual = 1.11794e-07, No Iterations 5
linear solve U 46249
[OGL LOG] init_preconditioner : 0 ms
[OGL LOG] solve : 14 ms
BJcudaGKOCG:  Solving for p, Initial residual = 0.00235039, Final residual = 9.09925e-07, No Iterations 97
linear solve p 16445
time step continuity errors : sum local = 6.26362e-07, global = 6.40083e-20, cumulative = 2.07466e-19
[OGL LOG] init_preconditioner : 0 ms
[OGL LOG] solve : 14 ms
BJcudaGKOCG:  Solving for p, Initial residual = 0.00177294, Final residual = 8.73971e-07, No Iterations 96
linear solve p 16308
time step continuity errors : sum local = 6.26245e-07, global = -6.62386e-20, cumulative = 1.41227e-19
ExecutionTime = 2.83 s  ClockTime = 3 s

Time = 0.025

Courant Number mean: 0.190644 max: 0.922414
DILUPBiCGStab:  Solving for Ux, Initial residual = 2.09821e-05, Final residual = 7.73247e-09, No Iterations 5
DILUPBiCGStab:  Solving for Uy, Initial residual = 5.33669e-05, Final residual = 1.97332e-08, No Iterations 5
DILUPBiCGStab:  Solving for Uz, Initial residual = 0.00015573, Final residual = 7.68687e-08, No Iterations 5
linear solve U 49235
[OGL LOG] init_preconditioner : 0 ms
[OGL LOG] solve : 14 ms
BJcudaGKOCG:  Solving for p, Initial residual = 0.00149714, Final residual = 9.75086e-07, No Iterations 92
linear solve p 15965
time step continuity errors : sum local = 6.26461e-07, global = -1.30746e-20, cumulative = 1.28152e-19
[OGL LOG] init_preconditioner : 0 ms
[OGL LOG] solve : 13 ms
BJcudaGKOCG:  Solving for p, Initial residual = 0.00112845, Final residual = 9.99756e-07, No Iterations 87
linear solve p 14991
time step continuity errors : sum local = 6.26392e-07, global = 1.49782e-20, cumulative = 1.43131e-19
ExecutionTime = 2.95 s  ClockTime = 3 s

End

