/*---------------------------------------------------------------------------*\
  =========                 |
  \\      /  F ield         | OpenFOAM: The Open Source CFD Toolbox
   \\    /   O peration     | Website:  https://openfoam.org
    \\  /    A nd           | Version:  8
     \\/     M anipulation  |
\*---------------------------------------------------------------------------*/
Build  : 8-ef60d22ea792
Exec   : icoFoam
Date   : Sep 11 2021
Time   : 14:26:36
Host   : "uc2n442.localdomain"
PID    : 3721609
I/O    : uncollated
Case   : /pfs/data5/home/kit/scc/nq7776/data/code/OBR/lidDrivenCavity3D/Variation_init/100/Variation_mesh/100/Variation_matrix_solver/BiCGStab_NoPrecond_Serial/1631363125
nProcs : 1
sigFpe : Enabling floating point exception trapping (FOAM_SIGFPE).
fileModificationChecking : Monitoring run-time modified files using timeStampMaster (fileModificationSkew 10)
allowSystemOperations : Allowing user-supplied system call operations

// * * * * * * * * * * * * * * * * * * * * * * * * * * * * * * * * * * * * * //
Create time

Create mesh for time = 0

Reading transportProperties

Reading field p

Reading field U

Reading/calculating face flux field phi


Starting time loop

Time = 0.001

Courant Number mean: 0.191555 max: 0.96896
DILUPBiCGStab:  Solving for Ux, Initial residual = 9.6672e-05, Final residual = 1.54351e-06, No Iterations 5
DILUPBiCGStab:  Solving for Uy, Initial residual = 0.00025914, Final residual = 4.93349e-06, No Iterations 5
DILUPBiCGStab:  Solving for Uz, Initial residual = 0.00322927, Final residual = 7.02504e-05, No Iterations 5
linear solve U 1035778
nonePBiCGStab:  Solving for p, Initial residual = 0.00938001, Final residual = 9.80177e-07, No Iterations 566
linear solve p 15380586
time step continuity errors : sum local = 3.1921e-10, global = 2.17793e-21, cumulative = 2.17793e-21
nonePBiCGStab:  Solving for p, Initial residual = 0.00639425, Final residual = 9.60655e-07, No Iterations 528
linear solve p 14301058
time step continuity errors : sum local = 4.53586e-10, global = -4.35721e-21, cumulative = -2.17928e-21
ExecutionTime = 35.51 s  ClockTime = 36 s

Time = 0.002

Courant Number mean: 0.19156 max: 0.968963
DILUPBiCGStab:  Solving for Ux, Initial residual = 7.90899e-05, Final residual = 1.35391e-06, No Iterations 5
DILUPBiCGStab:  Solving for Uy, Initial residual = 0.00020247, Final residual = 4.08187e-06, No Iterations 5
DILUPBiCGStab:  Solving for Uz, Initial residual = 0.00226335, Final residual = 3.94325e-05, No Iterations 5
linear solve U 967208
nonePBiCGStab:  Solving for p, Initial residual = 0.00882273, Final residual = 9.80655e-07, No Iterations 547
linear solve p 14836157
time step continuity errors : sum local = 3.43001e-10, global = 8.72519e-21, cumulative = 6.54591e-21
nonePBiCGStab:  Solving for p, Initial residual = 0.00572142, Final residual = 8.30832e-07, No Iterations 576
linear solve p 15572261
time step continuity errors : sum local = 2.501e-10, global = -1.45178e-20, cumulative = -7.97191e-21
ExecutionTime = 67.35 s  ClockTime = 68 s

Time = 0.003

Courant Number mean: 0.191566 max: 0.968959
DILUPBiCGStab:  Solving for Ux, Initial residual = 4.10187e-05, Final residual = 9.82759e-07, No Iterations 5
DILUPBiCGStab:  Solving for Uy, Initial residual = 0.000126643, Final residual = 3.09034e-06, No Iterations 5
DILUPBiCGStab:  Solving for Uz, Initial residual = 0.00156099, Final residual = 2.3537e-05, No Iterations 5
linear solve U 957808
nonePBiCGStab:  Solving for p, Initial residual = 0.00523689, Final residual = 9.77673e-07, No Iterations 585
linear solve p 15824578
time step continuity errors : sum local = 2.80634e-10, global = -9.82808e-21, cumulative = -1.78e-20
nonePBiCGStab:  Solving for p, Initial residual = 0.0044368, Final residual = 1.3369e-07, No Iterations 644
linear solve p 17534922
time step continuity errors : sum local = 4.56815e-11, global = 1.85117e-20, cumulative = 7.1172e-22
ExecutionTime = 102.11 s  ClockTime = 103 s

Time = 0.004

Courant Number mean: 0.191573 max: 0.968961
DILUPBiCGStab:  Solving for Ux, Initial residual = 3.00953e-05, Final residual = 7.82702e-07, No Iterations 5
DILUPBiCGStab:  Solving for Uy, Initial residual = 9.54833e-05, Final residual = 2.54156e-06, No Iterations 5
DILUPBiCGStab:  Solving for Uz, Initial residual = 0.00114889, Final residual = 1.56376e-05, No Iterations 5
linear solve U 959137
nonePBiCGStab:  Solving for p, Initial residual = 0.0042438, Final residual = 9.48824e-07, No Iterations 514
linear solve p 13859972
time step continuity errors : sum local = 5.41366e-10, global = 2.09383e-21, cumulative = 2.80555e-21
nonePBiCGStab:  Solving for p, Initial residual = 0.00370636, Final residual = 7.59004e-07, No Iterations 515
linear solve p 13873034
time step continuity errors : sum local = 2.80165e-10, global = 1.33221e-20, cumulative = 1.61276e-20
ExecutionTime = 131.26 s  ClockTime = 132 s

Time = 0.005

Courant Number mean: 0.191579 max: 0.968962
DILUPBiCGStab:  Solving for Ux, Initial residual = 2.53931e-05, Final residual = 7.09744e-07, No Iterations 5
DILUPBiCGStab:  Solving for Uy, Initial residual = 7.76199e-05, Final residual = 2.12609e-06, No Iterations 5
DILUPBiCGStab:  Solving for Uz, Initial residual = 0.000921002, Final residual = 1.32684e-05, No Iterations 5
linear solve U 963352
nonePBiCGStab:  Solving for p, Initial residual = 0.00361618, Final residual = 5.17486e-07, No Iterations 558
linear solve p 15074836
time step continuity errors : sum local = 2.80341e-10, global = 9.57749e-21, cumulative = 2.57051e-20
nonePBiCGStab:  Solving for p, Initial residual = 0.00317235, Final residual = 9.82346e-07, No Iterations 527
linear solve p 14245472
time step continuity errors : sum local = 4.7697e-10, global = 2.19325e-21, cumulative = 2.78984e-20
ExecutionTime = 162.01 s  ClockTime = 163 s

Time = 0.006

Courant Number mean: 0.191586 max: 0.968963
DILUPBiCGStab:  Solving for Ux, Initial residual = 2.12053e-05, Final residual = 6.01647e-07, No Iterations 5
DILUPBiCGStab:  Solving for Uy, Initial residual = 6.86961e-05, Final residual = 1.97029e-06, No Iterations 5
DILUPBiCGStab:  Solving for Uz, Initial residual = 0.00077568, Final residual = 1.08103e-05, No Iterations 5
linear solve U 962947
nonePBiCGStab:  Solving for p, Initial residual = 0.00311153, Final residual = 8.00849e-07, No Iterations 524
linear solve p 14226467
time step continuity errors : sum local = 3.77065e-10, global = -4.1411e-21, cumulative = 2.37573e-20
nonePBiCGStab:  Solving for p, Initial residual = 0.00272907, Final residual = 9.70883e-07, No Iterations 512
linear solve p 13908024
time step continuity errors : sum local = 4.11419e-10, global = -3.33769e-20, cumulative = -9.61959e-21
ExecutionTime = 191.57 s  ClockTime = 192 s

Time = 0.007

Courant Number mean: 0.191591 max: 0.968963
DILUPBiCGStab:  Solving for Ux, Initial residual = 1.90311e-05, Final residual = 5.63548e-07, No Iterations 5
DILUPBiCGStab:  Solving for Uy, Initial residual = 5.82296e-05, Final residual = 1.7006e-06, No Iterations 5
DILUPBiCGStab:  Solving for Uz, Initial residual = 0.000656935, Final residual = 9.50693e-06, No Iterations 5
linear solve U 954641
nonePBiCGStab:  Solving for p, Initial residual = 0.00271167, Final residual = 9.05769e-07, No Iterations 508
linear solve p 13793650
time step continuity errors : sum local = 5.16486e-10, global = -2.0313e-21, cumulative = -1.16509e-20
nonePBiCGStab:  Solving for p, Initial residual = 0.00237764, Final residual = 9.25462e-07, No Iterations 591
linear solve p 16065220
time step continuity errors : sum local = 2.77976e-10, global = -3.46488e-20, cumulative = -4.62997e-20
ExecutionTime = 222.85 s  ClockTime = 224 s

Time = 0.008

Courant Number mean: 0.191597 max: 0.968964
DILUPBiCGStab:  Solving for Ux, Initial residual = 1.6302e-05, Final residual = 4.80791e-07, No Iterations 5
DILUPBiCGStab:  Solving for Uy, Initial residual = 5.47187e-05, Final residual = 1.62806e-06, No Iterations 5
DILUPBiCGStab:  Solving for Uz, Initial residual = 0.000610426, Final residual = 1.09239e-05, No Iterations 5
linear solve U 962549
nonePBiCGStab:  Solving for p, Initial residual = 0.00237292, Final residual = 9.52475e-07, No Iterations 546
linear solve p 14818545
time step continuity errors : sum local = 2.82886e-10, global = -2.38077e-21, cumulative = -4.86805e-20
nonePBiCGStab:  Solving for p, Initial residual = 0.0020784, Final residual = 9.983e-07, No Iterations 544
linear solve p 14789795
time step continuity errors : sum local = 5.62906e-10, global = 1.9459e-20, cumulative = -2.92215e-20
ExecutionTime = 253.89 s  ClockTime = 255 s

Time = 0.009

Courant Number mean: 0.191602 max: 0.968965
DILUPBiCGStab:  Solving for Ux, Initial residual = 1.55967e-05, Final residual = 4.71216e-07, No Iterations 5
DILUPBiCGStab:  Solving for Uy, Initial residual = 4.69457e-05, Final residual = 1.41054e-06, No Iterations 5
DILUPBiCGStab:  Solving for Uz, Initial residual = 0.000531425, Final residual = 8.08743e-06, No Iterations 5
linear solve U 962116
nonePBiCGStab:  Solving for p, Initial residual = 0.00209566, Final residual = 9.00971e-07, No Iterations 509
linear solve p 13816506
time step continuity errors : sum local = 3.81971e-10, global = -6.97309e-21, cumulative = -3.61946e-20
nonePBiCGStab:  Solving for p, Initial residual = 0.00183528, Final residual = 9.75957e-07, No Iterations 577
linear solve p 15691049
time step continuity errors : sum local = 2.89938e-10, global = -1.19361e-21, cumulative = -3.73882e-20
ExecutionTime = 284.82 s  ClockTime = 286 s

Time = 0.01

Courant Number mean: 0.191607 max: 0.968965
DILUPBiCGStab:  Solving for Ux, Initial residual = 1.33694e-05, Final residual = 4.00471e-07, No Iterations 5
DILUPBiCGStab:  Solving for Uy, Initial residual = 4.49913e-05, Final residual = 1.34286e-06, No Iterations 5
DILUPBiCGStab:  Solving for Uz, Initial residual = 0.000514551, Final residual = 1.10302e-05, No Iterations 5
linear solve U 962642
nonePBiCGStab:  Solving for p, Initial residual = 0.00185137, Final residual = 9.75284e-07, No Iterations 558
linear solve p 15155744
time step continuity errors : sum local = 2.9097e-10, global = -1.3915e-20, cumulative = -5.13031e-20
nonePBiCGStab:  Solving for p, Initial residual = 0.00161983, Final residual = 9.53781e-07, No Iterations 584
linear solve p 15866263
time step continuity errors : sum local = 2.77015e-10, global = 1.06402e-20, cumulative = -4.0663e-20
ExecutionTime = 317.26 s  ClockTime = 318 s

End

