/*---------------------------------------------------------------------------*\
  =========                 |
  \\      /  F ield         | OpenFOAM: The Open Source CFD Toolbox
   \\    /   O peration     | Website:  https://openfoam.org
    \\  /    A nd           | Version:  8
     \\/     M anipulation  |
\*---------------------------------------------------------------------------*/
Build  : 8-ef60d22ea792
Exec   : icoFoam
Date   : Sep 11 2021
Time   : 14:56:30
Host   : "uc2n442.localdomain"
PID    : 3724656
I/O    : uncollated
Case   : /pfs/data5/home/kit/scc/nq7776/data/code/OBR/lidDrivenCavity3D/Variation_init/100/Variation_mesh/35/Variation_matrix_solver/BiCGStab_NoPrecond_Serial/1631364988
nProcs : 1
sigFpe : Enabling floating point exception trapping (FOAM_SIGFPE).
fileModificationChecking : Monitoring run-time modified files using timeStampMaster (fileModificationSkew 10)
allowSystemOperations : Allowing user-supplied system call operations

// * * * * * * * * * * * * * * * * * * * * * * * * * * * * * * * * * * * * * //
Create time

Create mesh for time = 0

Reading transportProperties

Reading field p

Reading field U

Reading/calculating face flux field phi


Starting time loop

Time = 0.00285714

Courant Number mean: 0.190911 max: 0.908567
DILUPBiCGStab:  Solving for Ux, Initial residual = 0.0505974, Final residual = 1.07894e-06, No Iterations 5
DILUPBiCGStab:  Solving for Uy, Initial residual = 0.0886223, Final residual = 3.41025e-06, No Iterations 5
DILUPBiCGStab:  Solving for Uz, Initial residual = 0.109411, Final residual = 1.20546e-05, No Iterations 5
linear solve U 31977
nonePBiCGStab:  Solving for p, Initial residual = 0.486126, Final residual = 6.85052e-07, No Iterations 234
linear solve p 194551
time step continuity errors : sum local = 4.2803e-09, global = -6.05514e-20, cumulative = -6.05514e-20
nonePBiCGStab:  Solving for p, Initial residual = 0.248642, Final residual = 7.79755e-07, No Iterations 241
linear solve p 199728
time step continuity errors : sum local = 3.82589e-09, global = -3.71536e-20, cumulative = -9.7705e-20
ExecutionTime = 0.66 s  ClockTime = 0 s

Time = 0.00571429

Courant Number mean: 0.190314 max: 0.910887
DILUPBiCGStab:  Solving for Ux, Initial residual = 0.00661208, Final residual = 3.59025e-06, No Iterations 5
DILUPBiCGStab:  Solving for Uy, Initial residual = 0.0135429, Final residual = 4.87422e-06, No Iterations 5
DILUPBiCGStab:  Solving for Uz, Initial residual = 0.0309075, Final residual = 1.22147e-05, No Iterations 5
linear solve U 28618
nonePBiCGStab:  Solving for p, Initial residual = 0.200815, Final residual = 8.15269e-08, No Iterations 238
linear solve p 196680
time step continuity errors : sum local = 3.88294e-10, global = -1.93583e-20, cumulative = -1.17063e-19
nonePBiCGStab:  Solving for p, Initial residual = 0.141548, Final residual = 8.36666e-07, No Iterations 234
linear solve p 194149
time step continuity errors : sum local = 3.9599e-09, global = -3.94255e-21, cumulative = -1.21006e-19
ExecutionTime = 1.09 s  ClockTime = 1 s

Time = 0.00857143

Courant Number mean: 0.190208 max: 0.910338
DILUPBiCGStab:  Solving for Ux, Initial residual = 0.00191775, Final residual = 9.80272e-07, No Iterations 5
DILUPBiCGStab:  Solving for Uy, Initial residual = 0.00463134, Final residual = 1.82731e-06, No Iterations 5
DILUPBiCGStab:  Solving for Uz, Initial residual = 0.0123973, Final residual = 3.04388e-06, No Iterations 5
linear solve U 28311
nonePBiCGStab:  Solving for p, Initial residual = 0.0916378, Final residual = 4.72762e-07, No Iterations 242
linear solve p 200308
time step continuity errors : sum local = 2.17939e-09, global = 4.65044e-21, cumulative = -1.16355e-19
nonePBiCGStab:  Solving for p, Initial residual = 0.0658302, Final residual = 8.07652e-07, No Iterations 228
linear solve p 189073
time step continuity errors : sum local = 3.73125e-09, global = 9.16894e-20, cumulative = -2.46661e-20
ExecutionTime = 1.53 s  ClockTime = 1 s

Time = 0.0114286

Courant Number mean: 0.1903 max: 0.911286
DILUPBiCGStab:  Solving for Ux, Initial residual = 0.000755862, Final residual = 2.05126e-07, No Iterations 5
DILUPBiCGStab:  Solving for Uy, Initial residual = 0.00183499, Final residual = 3.96639e-07, No Iterations 5
DILUPBiCGStab:  Solving for Uz, Initial residual = 0.00490924, Final residual = 1.25517e-06, No Iterations 5
linear solve U 29064
nonePBiCGStab:  Solving for p, Initial residual = 0.0479675, Final residual = 9.45115e-07, No Iterations 216
linear solve p 180319
time step continuity errors : sum local = 4.08136e-09, global = 3.98719e-20, cumulative = 1.52058e-20
nonePBiCGStab:  Solving for p, Initial residual = 0.034153, Final residual = 5.20032e-07, No Iterations 214
linear solve p 177440
time step continuity errors : sum local = 1.98107e-09, global = 5.53953e-20, cumulative = 7.06011e-20
ExecutionTime = 1.94 s  ClockTime = 2 s

Time = 0.0142857

Courant Number mean: 0.19029 max: 0.911194
DILUPBiCGStab:  Solving for Ux, Initial residual = 0.000356375, Final residual = 7.59456e-08, No Iterations 5
DILUPBiCGStab:  Solving for Uy, Initial residual = 0.000882052, Final residual = 1.59674e-07, No Iterations 5
DILUPBiCGStab:  Solving for Uz, Initial residual = 0.0022433, Final residual = 4.20753e-07, No Iterations 5
linear solve U 28626
nonePBiCGStab:  Solving for p, Initial residual = 0.0253875, Final residual = 7.48017e-07, No Iterations 201
linear solve p 166666
time step continuity errors : sum local = 3.28654e-09, global = 8.01292e-20, cumulative = 1.5073e-19
nonePBiCGStab:  Solving for p, Initial residual = 0.0177938, Final residual = 7.91269e-07, No Iterations 88
linear solve p 73375
time step continuity errors : sum local = 2.68694e-09, global = -9.78751e-21, cumulative = 1.40943e-19
ExecutionTime = 2.22 s  ClockTime = 2 s

Time = 0.0171429

Courant Number mean: 0.190299 max: 0.91131
DILUPBiCGStab:  Solving for Ux, Initial residual = 0.000190427, Final residual = 4.653e-08, No Iterations 5
DILUPBiCGStab:  Solving for Uy, Initial residual = 0.000453721, Final residual = 2.96228e-08, No Iterations 5
DILUPBiCGStab:  Solving for Uz, Initial residual = 0.00124139, Final residual = 3.06428e-07, No Iterations 5
linear solve U 28662
nonePBiCGStab:  Solving for p, Initial residual = 0.0139525, Final residual = 9.83223e-07, No Iterations 174
linear solve p 144847
time step continuity errors : sum local = 4.28993e-09, global = -1.49038e-20, cumulative = 1.26039e-19
nonePBiCGStab:  Solving for p, Initial residual = 0.00976668, Final residual = 8.50449e-07, No Iterations 85
linear solve p 70875
time step continuity errors : sum local = 2.90513e-09, global = 1.59828e-20, cumulative = 1.42022e-19
ExecutionTime = 2.49 s  ClockTime = 2 s

Time = 0.02

Courant Number mean: 0.190298 max: 0.911278
DILUPBiCGStab:  Solving for Ux, Initial residual = 0.00010684, Final residual = 1.58869e-08, No Iterations 5
DILUPBiCGStab:  Solving for Uy, Initial residual = 0.000243514, Final residual = 2.78049e-08, No Iterations 5
DILUPBiCGStab:  Solving for Uz, Initial residual = 0.000743426, Final residual = 2.21241e-07, No Iterations 5
linear solve U 28345
nonePBiCGStab:  Solving for p, Initial residual = 0.00782084, Final residual = 9.92642e-07, No Iterations 161
linear solve p 133934
time step continuity errors : sum local = 4.01362e-09, global = -1.55884e-20, cumulative = 1.26433e-19
nonePBiCGStab:  Solving for p, Initial residual = 0.00546429, Final residual = 9.81087e-07, No Iterations 157
linear solve p 132672
time step continuity errors : sum local = 4.28415e-09, global = 3.59629e-20, cumulative = 1.62396e-19
ExecutionTime = 2.8 s  ClockTime = 3 s

Time = 0.0228571

Courant Number mean: 0.190301 max: 0.911306
DILUPBiCGStab:  Solving for Ux, Initial residual = 6.23532e-05, Final residual = 1.0936e-08, No Iterations 5
DILUPBiCGStab:  Solving for Uy, Initial residual = 0.000138109, Final residual = 2.16086e-08, No Iterations 5
DILUPBiCGStab:  Solving for Uz, Initial residual = 0.000512263, Final residual = 2.58316e-07, No Iterations 5
linear solve U 28309
nonePBiCGStab:  Solving for p, Initial residual = 0.00446925, Final residual = 9.91539e-07, No Iterations 164
linear solve p 137112
time step continuity errors : sum local = 3.33826e-09, global = 2.78791e-20, cumulative = 1.90275e-19
nonePBiCGStab:  Solving for p, Initial residual = 0.00314256, Final residual = 9.60372e-07, No Iterations 158
linear solve p 130827
time step continuity errors : sum local = 3.76623e-09, global = -3.75285e-20, cumulative = 1.52747e-19
ExecutionTime = 3.11 s  ClockTime = 3 s

Time = 0.0257143

Courant Number mean: 0.190303 max: 0.911295
DILUPBiCGStab:  Solving for Ux, Initial residual = 3.75908e-05, Final residual = 5.75036e-09, No Iterations 5
DILUPBiCGStab:  Solving for Uy, Initial residual = 7.83078e-05, Final residual = 1.54068e-08, No Iterations 5
DILUPBiCGStab:  Solving for Uz, Initial residual = 0.000343922, Final residual = 1.44954e-07, No Iterations 5
linear solve U 28318
nonePBiCGStab:  Solving for p, Initial residual = 0.00256941, Final residual = 9.98313e-07, No Iterations 175
linear solve p 146074
time step continuity errors : sum local = 2.43937e-09, global = -1.60518e-20, cumulative = 1.36695e-19
nonePBiCGStab:  Solving for p, Initial residual = 0.00181436, Final residual = 9.58747e-07, No Iterations 146
linear solve p 122077
time step continuity errors : sum local = 4.17945e-09, global = -1.82046e-19, cumulative = -4.53505e-20
ExecutionTime = 3.43 s  ClockTime = 3 s

Time = 0.0285714

Courant Number mean: 0.190305 max: 0.911303
DILUPBiCGStab:  Solving for Ux, Initial residual = 2.33508e-05, Final residual = 4.59628e-09, No Iterations 5
DILUPBiCGStab:  Solving for Uy, Initial residual = 4.83091e-05, Final residual = 1.02648e-08, No Iterations 5
DILUPBiCGStab:  Solving for Uz, Initial residual = 0.000242812, Final residual = 1.18636e-07, No Iterations 5
linear solve U 28465
nonePBiCGStab:  Solving for p, Initial residual = 0.00149735, Final residual = 9.83759e-07, No Iterations 163
linear solve p 136106
time step continuity errors : sum local = 2.54407e-09, global = 2.75994e-20, cumulative = -1.77511e-20
nonePBiCGStab:  Solving for p, Initial residual = 0.00106567, Final residual = 9.92437e-07, No Iterations 152
linear solve p 126427
time step continuity errors : sum local = 4.03756e-09, global = 4.17045e-20, cumulative = 2.39533e-20
ExecutionTime = 3.74 s  ClockTime = 4 s

End

