/*---------------------------------------------------------------------------*\
  =========                 |
  \\      /  F ield         | OpenFOAM: The Open Source CFD Toolbox
   \\    /   O peration     | Website:  https://openfoam.org
    \\  /    A nd           | Version:  8
     \\/     M anipulation  |
\*---------------------------------------------------------------------------*/
Build  : 8-ef60d22ea792
Exec   : icoFoam
Date   : Sep 11 2021
Time   : 13:50:57
Host   : "uc2n513.localdomain"
PID    : 220894
I/O    : uncollated
Case   : /pfs/data5/home/kit/scc/nq7776/data/code/OBR/lidDrivenCavity3D/Variation_init/100/Variation_mesh/40/Variation_matrix_solver/IR_NoPrecond_CUDA/1631361053
nProcs : 1
sigFpe : Enabling floating point exception trapping (FOAM_SIGFPE).
fileModificationChecking : Monitoring run-time modified files using timeStampMaster (fileModificationSkew 10)
allowSystemOperations : Allowing user-supplied system call operations

// * * * * * * * * * * * * * * * * * * * * * * * * * * * * * * * * * * * * * //
Create time

Create mesh for time = 0

Reading transportProperties

Reading field p

Reading field U

Reading/calculating face flux field phi


Starting time loop

Time = 0.0025

Courant Number mean: 0.190855 max: 0.911003
DILUPBiCGStab:  Solving for Ux, Initial residual = 0.0769217, Final residual = 3.46977e-06, No Iterations 5
DILUPBiCGStab:  Solving for Uy, Initial residual = 0.121369, Final residual = 7.54429e-06, No Iterations 5
DILUPBiCGStab:  Solving for Uz, Initial residual = 0.12361, Final residual = 1.86097e-05, No Iterations 5
linear solve U 53431
[OGL LOG] init_host_sparsity_pattern : 16 ms
[OGL LOG] matrix not stored update host matrix
[OGL LOG] update_host_mtx : 8 ms
[OGL LOG] matrix is not yet sorted, compute sorting idxs
[OGL LOG] compute_sort : 479 ms
[OGL LOG] matrix is not yet sorted, sorting host matrix
[OGL LOG] sort_host_mtx_sparsity_pattern : 11 ms
[OGL LOG] sort_host_mtx : 6 ms
[OGL LOG] init_preconditioner : 0 ms
[OGL LOG] solve : 74 ms
nonecudaGKOIR:  Solving for p, Initial residual = 0.391661, Final residual = 1.11235e-08, No Iterations 4
linear solve p 1341156
time step continuity errors : sum local = 2.65467e-11, global = 1.26644e-20, cumulative = 1.26644e-20
[OGL LOG] init_preconditioner : 0 ms
[OGL LOG] solve : 45 ms
nonecudaGKOIR:  Solving for p, Initial residual = 0.205931, Final residual = 5.1813e-07, No Iterations 3
linear solve p 47158
time step continuity errors : sum local = 1.00262e-09, global = -2.0267e-20, cumulative = -7.60265e-21
ExecutionTime = 1.77 s  ClockTime = 2 s

Time = 0.005

Courant Number mean: 0.19083 max: 0.922157
DILUPBiCGStab:  Solving for Ux, Initial residual = 0.00575695, Final residual = 4.01266e-06, No Iterations 5
DILUPBiCGStab:  Solving for Uy, Initial residual = 0.0108106, Final residual = 8.44358e-06, No Iterations 5
DILUPBiCGStab:  Solving for Uz, Initial residual = 0.0200712, Final residual = 1.80112e-05, No Iterations 5
linear solve U 47759
[OGL LOG] init_preconditioner : 0 ms
[OGL LOG] solve : 44 ms
nonecudaGKOIR:  Solving for p, Initial residual = 0.136374, Final residual = 3.35348e-07, No Iterations 3
linear solve p 46067
time step continuity errors : sum local = 6.67569e-07, global = -6.11933e-20, cumulative = -6.87959e-20
[OGL LOG] init_preconditioner : 0 ms
[OGL LOG] solve : 43 ms
nonecudaGKOIR:  Solving for p, Initial residual = 0.0992974, Final residual = 2.2153e-07, No Iterations 3
linear solve p 45314
time step continuity errors : sum local = 6.27777e-07, global = -4.40898e-20, cumulative = -1.12886e-19
ExecutionTime = 1.94 s  ClockTime = 2 s

Time = 0.0075

Courant Number mean: 0.190722 max: 0.922357
DILUPBiCGStab:  Solving for Ux, Initial residual = 0.000899391, Final residual = 5.75051e-07, No Iterations 5
DILUPBiCGStab:  Solving for Uy, Initial residual = 0.00250208, Final residual = 1.55721e-06, No Iterations 5
DILUPBiCGStab:  Solving for Uz, Initial residual = 0.00535995, Final residual = 3.77043e-06, No Iterations 5
linear solve U 47731
[OGL LOG] init_preconditioner : 0 ms
[OGL LOG] solve : 48 ms
nonecudaGKOIR:  Solving for p, Initial residual = 0.0513112, Final residual = 9.80274e-08, No Iterations 3
linear solve p 49935
time step continuity errors : sum local = 6.15925e-07, global = 3.41605e-20, cumulative = -7.87252e-20
[OGL LOG] init_preconditioner : 0 ms
[OGL LOG] solve : 44 ms
nonecudaGKOIR:  Solving for p, Initial residual = 0.0378626, Final residual = 7.40111e-08, No Iterations 3
linear solve p 46610
time step continuity errors : sum local = 6.24928e-07, global = 1.35575e-20, cumulative = -6.51677e-20
ExecutionTime = 2.12 s  ClockTime = 2 s

Time = 0.01

Courant Number mean: 0.190704 max: 0.922533
DILUPBiCGStab:  Solving for Ux, Initial residual = 0.00035518, Final residual = 3.16501e-07, No Iterations 5
DILUPBiCGStab:  Solving for Uy, Initial residual = 0.000977313, Final residual = 6.02902e-07, No Iterations 5
DILUPBiCGStab:  Solving for Uz, Initial residual = 0.00273756, Final residual = 1.52071e-06, No Iterations 5
linear solve U 47373
[OGL LOG] init_preconditioner : 0 ms
[OGL LOG] solve : 47 ms
nonecudaGKOIR:  Solving for p, Initial residual = 0.0272849, Final residual = 3.94794e-08, No Iterations 3
linear solve p 49569
time step continuity errors : sum local = 6.28214e-07, global = 3.94927e-21, cumulative = -6.12184e-20
[OGL LOG] init_preconditioner : 0 ms
[OGL LOG] solve : 46 ms
nonecudaGKOIR:  Solving for p, Initial residual = 0.0205702, Final residual = 3.2358e-08, No Iterations 3
linear solve p 47907
time step continuity errors : sum local = 6.25454e-07, global = -1.13034e-20, cumulative = -7.25218e-20
ExecutionTime = 2.3 s  ClockTime = 3 s

Time = 0.0125

Courant Number mean: 0.190674 max: 0.92242
DILUPBiCGStab:  Solving for Ux, Initial residual = 0.000166535, Final residual = 1.03176e-07, No Iterations 5
DILUPBiCGStab:  Solving for Uy, Initial residual = 0.000527455, Final residual = 2.53074e-07, No Iterations 5
DILUPBiCGStab:  Solving for Uz, Initial residual = 0.00116847, Final residual = 5.94381e-07, No Iterations 5
linear solve U 47487
[OGL LOG] init_preconditioner : 0 ms
[OGL LOG] solve : 44 ms
nonecudaGKOIR:  Solving for p, Initial residual = 0.0156923, Final residual = 2.53562e-08, No Iterations 3
linear solve p 45835
time step continuity errors : sum local = 6.2447e-07, global = -9.14448e-21, cumulative = -8.16663e-20
[OGL LOG] init_preconditioner : 0 ms
[OGL LOG] solve : 44 ms
nonecudaGKOIR:  Solving for p, Initial residual = 0.0118154, Final residual = 1.74073e-08, No Iterations 3
linear solve p 46240
time step continuity errors : sum local = 6.25318e-07, global = -3.24193e-20, cumulative = -1.14086e-19
ExecutionTime = 2.47 s  ClockTime = 3 s

Time = 0.015

Courant Number mean: 0.190664 max: 0.922459
DILUPBiCGStab:  Solving for Ux, Initial residual = 0.000103798, Final residual = 6.82046e-08, No Iterations 5
DILUPBiCGStab:  Solving for Uy, Initial residual = 0.00030015, Final residual = 1.22711e-07, No Iterations 5
DILUPBiCGStab:  Solving for Uz, Initial residual = 0.000738108, Final residual = 3.43034e-07, No Iterations 5
linear solve U 47074
[OGL LOG] init_preconditioner : 0 ms
[OGL LOG] solve : 42 ms
nonecudaGKOIR:  Solving for p, Initial residual = 0.00952874, Final residual = 1.4422e-08, No Iterations 3
linear solve p 44184
time step continuity errors : sum local = 6.25668e-07, global = -7.38305e-20, cumulative = -1.87916e-19
[OGL LOG] init_preconditioner : 0 ms
[OGL LOG] solve : 43 ms
nonecudaGKOIR:  Solving for p, Initial residual = 0.00720278, Final residual = 1.04981e-08, No Iterations 3
linear solve p 44954
time step continuity errors : sum local = 6.25353e-07, global = 8.98463e-20, cumulative = -9.80698e-20
ExecutionTime = 2.64 s  ClockTime = 3 s

Time = 0.0175

Courant Number mean: 0.190653 max: 0.922415
DILUPBiCGStab:  Solving for Ux, Initial residual = 6.31908e-05, Final residual = 4.22881e-08, No Iterations 5
DILUPBiCGStab:  Solving for Uy, Initial residual = 0.000187136, Final residual = 6.54419e-08, No Iterations 5
DILUPBiCGStab:  Solving for Uz, Initial residual = 0.000449075, Final residual = 2.22456e-07, No Iterations 5
linear solve U 47206
[OGL LOG] init_preconditioner : 0 ms
[OGL LOG] solve : 16 ms
nonecudaGKOIR:  Solving for p, Initial residual = 0.00589729, Final residual = 8.61865e-07, No Iterations 2
linear solve p 18491
time step continuity errors : sum local = 6.26197e-07, global = -8.61912e-20, cumulative = -1.84261e-19
[OGL LOG] init_preconditioner : 0 ms
[OGL LOG] solve : 17 ms
nonecudaGKOIR:  Solving for p, Initial residual = 0.00445599, Final residual = 6.42099e-07, No Iterations 2
linear solve p 18801
time step continuity errors : sum local = 6.25963e-07, global = 3.47576e-20, cumulative = -1.49503e-19
ExecutionTime = 2.76 s  ClockTime = 3 s

Time = 0.02

Courant Number mean: 0.190649 max: 0.922428
DILUPBiCGStab:  Solving for Ux, Initial residual = 4.35269e-05, Final residual = 1.89112e-08, No Iterations 5
DILUPBiCGStab:  Solving for Uy, Initial residual = 0.000120906, Final residual = 4.08741e-08, No Iterations 5
DILUPBiCGStab:  Solving for Uz, Initial residual = 0.000302717, Final residual = 1.42364e-07, No Iterations 5
linear solve U 47476
[OGL LOG] init_preconditioner : 0 ms
[OGL LOG] solve : 18 ms
nonecudaGKOIR:  Solving for p, Initial residual = 0.00371608, Final residual = 5.43655e-07, No Iterations 2
linear solve p 20699
time step continuity errors : sum local = 6.26005e-07, global = 8.53413e-20, cumulative = -6.41622e-20
[OGL LOG] init_preconditioner : 0 ms
[OGL LOG] solve : 21 ms
nonecudaGKOIR:  Solving for p, Initial residual = 0.00280625, Final residual = 3.8605e-07, No Iterations 2
linear solve p 23874
time step continuity errors : sum local = 6.25671e-07, global = -4.71452e-20, cumulative = -1.11307e-19
ExecutionTime = 2.88 s  ClockTime = 3 s

Time = 0.0225

Courant Number mean: 0.190645 max: 0.92241
DILUPBiCGStab:  Solving for Ux, Initial residual = 2.8982e-05, Final residual = 1.09109e-08, No Iterations 5
DILUPBiCGStab:  Solving for Uy, Initial residual = 7.85958e-05, Final residual = 3.02031e-08, No Iterations 5
DILUPBiCGStab:  Solving for Uz, Initial residual = 0.000222104, Final residual = 1.12151e-07, No Iterations 5
linear solve U 47365
[OGL LOG] init_preconditioner : 0 ms
[OGL LOG] solve : 17 ms
nonecudaGKOIR:  Solving for p, Initial residual = 0.00234897, Final residual = 3.37352e-07, No Iterations 2
linear solve p 19605
time step continuity errors : sum local = 6.25716e-07, global = 7.9856e-20, cumulative = -3.14513e-20
[OGL LOG] init_preconditioner : 0 ms
[OGL LOG] solve : 19 ms
nonecudaGKOIR:  Solving for p, Initial residual = 0.00177162, Final residual = 2.37256e-07, No Iterations 2
linear solve p 21389
time step continuity errors : sum local = 6.2555e-07, global = 2.1806e-20, cumulative = -9.64526e-21
ExecutionTime = 3 s  ClockTime = 3 s

Time = 0.025

Courant Number mean: 0.190644 max: 0.922414
DILUPBiCGStab:  Solving for Ux, Initial residual = 2.09676e-05, Final residual = 7.73424e-09, No Iterations 5
DILUPBiCGStab:  Solving for Uy, Initial residual = 5.33819e-05, Final residual = 1.96924e-08, No Iterations 5
DILUPBiCGStab:  Solving for Uz, Initial residual = 0.000155667, Final residual = 7.71553e-08, No Iterations 5
linear solve U 47509
[OGL LOG] init_preconditioner : 0 ms
[OGL LOG] solve : 35 ms
nonecudaGKOIR:  Solving for p, Initial residual = 0.00149601, Final residual = 2.093e-07, No Iterations 2
linear solve p 37588
time step continuity errors : sum local = 6.2548e-07, global = -4.47712e-20, cumulative = -5.44164e-20
[OGL LOG] init_preconditioner : 0 ms
[OGL LOG] solve : 34 ms
nonecudaGKOIR:  Solving for p, Initial residual = 0.00112744, Final residual = 1.42652e-07, No Iterations 2
linear solve p 36662
time step continuity errors : sum local = 6.25418e-07, global = 2.50481e-21, cumulative = -5.19116e-20
ExecutionTime = 3.16 s  ClockTime = 3 s

End

