/*---------------------------------------------------------------------------*\
  =========                 |
  \\      /  F ield         | OpenFOAM: The Open Source CFD Toolbox
   \\    /   O peration     | Website:  https://openfoam.org
    \\  /    A nd           | Version:  8
     \\/     M anipulation  |
\*---------------------------------------------------------------------------*/
Build  : 8-ef60d22ea792
Exec   : icoFoam
Date   : Sep 11 2021
Time   : 14:14:12
Host   : "uc2n442.localdomain"
PID    : 3720342
I/O    : uncollated
Case   : /pfs/data5/home/kit/scc/nq7776/data/code/OBR/lidDrivenCavity3D/Variation_init/100/Variation_mesh/30/Variation_matrix_solver/CG_DIC_Serial/1631362451
nProcs : 1
sigFpe : Enabling floating point exception trapping (FOAM_SIGFPE).
fileModificationChecking : Monitoring run-time modified files using timeStampMaster (fileModificationSkew 10)
allowSystemOperations : Allowing user-supplied system call operations

// * * * * * * * * * * * * * * * * * * * * * * * * * * * * * * * * * * * * * //
Create time

Create mesh for time = 0

Reading transportProperties

Reading field p

Reading field U

Reading/calculating face flux field phi


Starting time loop

Time = 0.00333333

Courant Number mean: 0.190329 max: 0.906243
DILUPBiCGStab:  Solving for Ux, Initial residual = 0.0900001, Final residual = 1.98559e-06, No Iterations 5
DILUPBiCGStab:  Solving for Uy, Initial residual = 0.151485, Final residual = 4.47204e-06, No Iterations 5
DILUPBiCGStab:  Solving for Uz, Initial residual = 0.230061, Final residual = 9.55411e-06, No Iterations 5
linear solve U 19864
DICPCG:  Solving for p, Initial residual = 0.532173, Final residual = 9.94058e-07, No Iterations 78
linear solve p 34941
time step continuity errors : sum local = 4.65645e-09, global = 8.69099e-20, cumulative = 8.69099e-20
DICPCG:  Solving for p, Initial residual = 0.319499, Final residual = 6.50975e-07, No Iterations 79
linear solve p 35717
time step continuity errors : sum local = 2.00451e-09, global = -3.75719e-20, cumulative = 4.93381e-20
ExecutionTime = 0.25 s  ClockTime = 0 s

Time = 0.00666667

Courant Number mean: 0.190231 max: 0.898516
DILUPBiCGStab:  Solving for Ux, Initial residual = 0.00891595, Final residual = 1.50307e-06, No Iterations 5
DILUPBiCGStab:  Solving for Uy, Initial residual = 0.0168192, Final residual = 2.62151e-06, No Iterations 5
DILUPBiCGStab:  Solving for Uz, Initial residual = 0.0471929, Final residual = 5.62197e-06, No Iterations 5
linear solve U 17943
DICPCG:  Solving for p, Initial residual = 0.15433, Final residual = 7.64128e-07, No Iterations 77
linear solve p 34526
time step continuity errors : sum local = 2.29864e-09, global = 2.76745e-20, cumulative = 7.70126e-20
DICPCG:  Solving for p, Initial residual = 0.094159, Final residual = 5.02961e-07, No Iterations 77
linear solve p 34614
time step continuity errors : sum local = 1.51555e-09, global = -3.96424e-20, cumulative = 3.73701e-20
ExecutionTime = 0.36 s  ClockTime = 0 s

Time = 0.01

Courant Number mean: 0.190017 max: 0.896754
DILUPBiCGStab:  Solving for Ux, Initial residual = 0.00114152, Final residual = 3.28774e-07, No Iterations 5
DILUPBiCGStab:  Solving for Uy, Initial residual = 0.00263875, Final residual = 3.33556e-07, No Iterations 5
DILUPBiCGStab:  Solving for Uz, Initial residual = 0.0129723, Final residual = 1.55063e-06, No Iterations 5
linear solve U 17585
DICPCG:  Solving for p, Initial residual = 0.0505181, Final residual = 9.35684e-07, No Iterations 72
linear solve p 32480
time step continuity errors : sum local = 2.76677e-09, global = 1.3157e-19, cumulative = 1.6894e-19
DICPCG:  Solving for p, Initial residual = 0.0335408, Final residual = 6.96867e-07, No Iterations 72
linear solve p 32751
time step continuity errors : sum local = 2.06652e-09, global = 1.11966e-19, cumulative = 2.80906e-19
ExecutionTime = 0.45 s  ClockTime = 0 s

Time = 0.0133333

Courant Number mean: 0.189923 max: 0.896669
DILUPBiCGStab:  Solving for Ux, Initial residual = 0.000490775, Final residual = 9.88157e-08, No Iterations 5
DILUPBiCGStab:  Solving for Uy, Initial residual = 0.000979359, Final residual = 1.11017e-07, No Iterations 5
DILUPBiCGStab:  Solving for Uz, Initial residual = 0.00353462, Final residual = 4.39862e-07, No Iterations 5
linear solve U 17613
DICPCG:  Solving for p, Initial residual = 0.0231855, Final residual = 8.16306e-07, No Iterations 70
linear solve p 31671
time step continuity errors : sum local = 2.38119e-09, global = 6.72879e-20, cumulative = 3.48194e-19
DICPCG:  Solving for p, Initial residual = 0.0159602, Final residual = 9.64135e-07, No Iterations 39
linear solve p 18110
time step continuity errors : sum local = 3.86362e-09, global = -1.22603e-20, cumulative = 3.35934e-19
ExecutionTime = 0.53 s  ClockTime = 0 s

Time = 0.0166667

Courant Number mean: 0.189872 max: 0.896515
DILUPBiCGStab:  Solving for Ux, Initial residual = 0.000223557, Final residual = 4.34928e-08, No Iterations 5
DILUPBiCGStab:  Solving for Uy, Initial residual = 0.000482758, Final residual = 4.77519e-08, No Iterations 5
DILUPBiCGStab:  Solving for Uz, Initial residual = 0.00175278, Final residual = 2.41384e-07, No Iterations 5
linear solve U 17634
DICPCG:  Solving for p, Initial residual = 0.0115033, Final residual = 8.82923e-07, No Iterations 68
linear solve p 30725
time step continuity errors : sum local = 2.57647e-09, global = 6.64591e-20, cumulative = 4.02393e-19
DICPCG:  Solving for p, Initial residual = 0.00800322, Final residual = 7.04695e-07, No Iterations 68
linear solve p 31006
time step continuity errors : sum local = 2.05841e-09, global = 7.19015e-20, cumulative = 4.74294e-19
ExecutionTime = 0.62 s  ClockTime = 0 s

Time = 0.02

Courant Number mean: 0.189842 max: 0.896522
DILUPBiCGStab:  Solving for Ux, Initial residual = 0.000133086, Final residual = 2.24809e-08, No Iterations 5
DILUPBiCGStab:  Solving for Uy, Initial residual = 0.000257701, Final residual = 2.44387e-08, No Iterations 5
DILUPBiCGStab:  Solving for Uz, Initial residual = 0.000891191, Final residual = 1.15612e-07, No Iterations 5
linear solve U 17667
DICPCG:  Solving for p, Initial residual = 0.0060349, Final residual = 9.43741e-07, No Iterations 32
linear solve p 14779
time step continuity errors : sum local = 3.54397e-09, global = -6.09798e-20, cumulative = 4.13315e-19
DICPCG:  Solving for p, Initial residual = 0.00424164, Final residual = 9.71573e-07, No Iterations 31
linear solve p 14536
time step continuity errors : sum local = 3.15142e-09, global = 6.87747e-20, cumulative = 4.82089e-19
ExecutionTime = 0.68 s  ClockTime = 0 s

Time = 0.0233333

Courant Number mean: 0.189822 max: 0.896474
DILUPBiCGStab:  Solving for Ux, Initial residual = 7.5363e-05, Final residual = 1.08019e-08, No Iterations 5
DILUPBiCGStab:  Solving for Uy, Initial residual = 0.000144622, Final residual = 1.28489e-08, No Iterations 5
DILUPBiCGStab:  Solving for Uz, Initial residual = 0.000594636, Final residual = 6.93967e-08, No Iterations 5
linear solve U 17574
DICPCG:  Solving for p, Initial residual = 0.0031895, Final residual = 7.92999e-07, No Iterations 30
linear solve p 13942
time step continuity errors : sum local = 2.46038e-09, global = -5.66673e-21, cumulative = 4.76423e-19
DICPCG:  Solving for p, Initial residual = 0.0022474, Final residual = 6.43338e-07, No Iterations 30
linear solve p 14003
time step continuity errors : sum local = 1.95009e-09, global = 4.43365e-20, cumulative = 5.20759e-19
ExecutionTime = 0.74 s  ClockTime = 0 s

Time = 0.0266667

Courant Number mean: 0.18981 max: 0.89647
DILUPBiCGStab:  Solving for Ux, Initial residual = 4.86964e-05, Final residual = 6.25784e-09, No Iterations 5
DILUPBiCGStab:  Solving for Uy, Initial residual = 8.43801e-05, Final residual = 6.44251e-09, No Iterations 5
DILUPBiCGStab:  Solving for Uz, Initial residual = 0.000379058, Final residual = 4.44196e-08, No Iterations 5
linear solve U 17565
DICPCG:  Solving for p, Initial residual = 0.00173607, Final residual = 8.45968e-07, No Iterations 29
linear solve p 13311
time step continuity errors : sum local = 3.06985e-09, global = 4.32962e-20, cumulative = 5.64055e-19
DICPCG:  Solving for p, Initial residual = 0.00122975, Final residual = 9.97907e-07, No Iterations 27
linear solve p 12665
time step continuity errors : sum local = 3.19353e-09, global = -1.16378e-19, cumulative = 4.47677e-19
ExecutionTime = 0.8 s  ClockTime = 0 s

Time = 0.03

Courant Number mean: 0.189802 max: 0.896453
DILUPBiCGStab:  Solving for Ux, Initial residual = 3.08092e-05, Final residual = 2.96711e-09, No Iterations 5
DILUPBiCGStab:  Solving for Uy, Initial residual = 5.32052e-05, Final residual = 3.38514e-09, No Iterations 5
DILUPBiCGStab:  Solving for Uz, Initial residual = 0.000281345, Final residual = 2.49862e-08, No Iterations 5
linear solve U 17584
DICPCG:  Solving for p, Initial residual = 0.00094062, Final residual = 8.80299e-07, No Iterations 27
linear solve p 12599
time step continuity errors : sum local = 2.62728e-09, global = -2.16084e-20, cumulative = 4.26069e-19
DICPCG:  Solving for p, Initial residual = 0.0006694, Final residual = 8.75285e-07, No Iterations 26
linear solve p 12229
time step continuity errors : sum local = 2.65571e-09, global = -1.50136e-19, cumulative = 2.75933e-19
ExecutionTime = 0.85 s  ClockTime = 0 s

Time = 0.0333333

Courant Number mean: 0.189797 max: 0.896449
DILUPBiCGStab:  Solving for Ux, Initial residual = 2.09341e-05, Final residual = 1.84286e-09, No Iterations 5
DILUPBiCGStab:  Solving for Uy, Initial residual = 3.33033e-05, Final residual = 1.61212e-09, No Iterations 5
DILUPBiCGStab:  Solving for Uz, Initial residual = 0.000197303, Final residual = 1.74997e-08, No Iterations 5
linear solve U 17570
DICPCG:  Solving for p, Initial residual = 0.000521773, Final residual = 7.92265e-07, No Iterations 27
linear solve p 12626
time step continuity errors : sum local = 2.80623e-09, global = 9.3758e-20, cumulative = 3.69691e-19
DICPCG:  Solving for p, Initial residual = 0.000372567, Final residual = 9.508e-07, No Iterations 25
linear solve p 11810
time step continuity errors : sum local = 3.03735e-09, global = 5.34962e-20, cumulative = 4.23187e-19
ExecutionTime = 0.9 s  ClockTime = 0 s

End

