/*---------------------------------------------------------------------------*\
  =========                 |
  \\      /  F ield         | OpenFOAM: The Open Source CFD Toolbox
   \\    /   O peration     | Website:  https://openfoam.org
    \\  /    A nd           | Version:  8
     \\/     M anipulation  |
\*---------------------------------------------------------------------------*/
Build  : 8-ef60d22ea792
Exec   : icoFoam
Date   : Sep 11 2021
Time   : 14:59:25
Host   : "uc2n442.localdomain"
PID    : 3725652
I/O    : uncollated
Case   : /pfs/data5/home/kit/scc/nq7776/data/code/OBR/lidDrivenCavity3D/Variation_init/100/Variation_mesh/45/Variation_matrix_solver/CG_NoPrecond_Serial/1631365162
nProcs : 1
sigFpe : Enabling floating point exception trapping (FOAM_SIGFPE).
fileModificationChecking : Monitoring run-time modified files using timeStampMaster (fileModificationSkew 10)
allowSystemOperations : Allowing user-supplied system call operations

// * * * * * * * * * * * * * * * * * * * * * * * * * * * * * * * * * * * * * //
Create time

Create mesh for time = 0

Reading transportProperties

Reading field p

Reading field U

Reading/calculating face flux field phi


Starting time loop

Time = 0.00222222

Courant Number mean: 0.190928 max: 0.914047
DILUPBiCGStab:  Solving for Ux, Initial residual = 0.0595792, Final residual = 4.86933e-06, No Iterations 5
DILUPBiCGStab:  Solving for Uy, Initial residual = 0.0975024, Final residual = 1.18416e-05, No Iterations 5
DILUPBiCGStab:  Solving for Uz, Initial residual = 0.125234, Final residual = 3.53848e-05, No Iterations 5
linear solve U 77885
nonePCG:  Solving for p, Initial residual = 0.429284, Final residual = 9.01691e-07, No Iterations 369
linear solve p 348576
time step continuity errors : sum local = 1.72905e-09, global = -6.49508e-20, cumulative = -6.49508e-20
nonePCG:  Solving for p, Initial residual = 0.201177, Final residual = 9.28612e-07, No Iterations 366
linear solve p 348055
time step continuity errors : sum local = 1.67207e-09, global = 8.85407e-20, cumulative = 2.35899e-20
ExecutionTime = 1.25 s  ClockTime = 1 s

Time = 0.00444444

Courant Number mean: 0.190905 max: 0.929693
DILUPBiCGStab:  Solving for Ux, Initial residual = 0.00558483, Final residual = 5.75155e-06, No Iterations 5
DILUPBiCGStab:  Solving for Uy, Initial residual = 0.0107013, Final residual = 1.18919e-05, No Iterations 5
DILUPBiCGStab:  Solving for Uz, Initial residual = 0.0268253, Final residual = 2.92438e-05, No Iterations 5
linear solve U 70509
nonePCG:  Solving for p, Initial residual = 0.226316, Final residual = 9.62942e-07, No Iterations 367
linear solve p 347352
time step continuity errors : sum local = 1.47649e-09, global = -3.5207e-20, cumulative = -1.16171e-20
nonePCG:  Solving for p, Initial residual = 0.154086, Final residual = 9.35591e-07, No Iterations 365
linear solve p 347352
time step continuity errors : sum local = 1.35729e-09, global = -1.32213e-20, cumulative = -2.48384e-20
ExecutionTime = 2.05 s  ClockTime = 2 s

Time = 0.00666667

Courant Number mean: 0.190867 max: 0.930873
DILUPBiCGStab:  Solving for Ux, Initial residual = 0.00160089, Final residual = 1.97004e-06, No Iterations 5
DILUPBiCGStab:  Solving for Uy, Initial residual = 0.00403764, Final residual = 4.80991e-06, No Iterations 5
DILUPBiCGStab:  Solving for Uz, Initial residual = 0.0116504, Final residual = 1.16976e-05, No Iterations 5
linear solve U 69456
nonePCG:  Solving for p, Initial residual = 0.101694, Final residual = 9.08682e-07, No Iterations 358
linear solve p 340117
time step continuity errors : sum local = 1.30019e-09, global = -6.97497e-22, cumulative = -2.55359e-20
nonePCG:  Solving for p, Initial residual = 0.0701926, Final residual = 9.73923e-07, No Iterations 355
linear solve p 337619
time step continuity errors : sum local = 1.40325e-09, global = -1.44544e-20, cumulative = -3.99903e-20
ExecutionTime = 2.84 s  ClockTime = 3 s

Time = 0.00888889

Courant Number mean: 0.190895 max: 0.931103
DILUPBiCGStab:  Solving for Ux, Initial residual = 0.000646278, Final residual = 9.83034e-07, No Iterations 5
DILUPBiCGStab:  Solving for Uy, Initial residual = 0.00163888, Final residual = 1.63743e-06, No Iterations 5
DILUPBiCGStab:  Solving for Uz, Initial residual = 0.00471817, Final residual = 4.57574e-06, No Iterations 5
linear solve U 68946
nonePCG:  Solving for p, Initial residual = 0.0528934, Final residual = 9.47972e-07, No Iterations 350
linear solve p 334663
time step continuity errors : sum local = 1.2951e-09, global = 1.39213e-20, cumulative = -2.60691e-20
nonePCG:  Solving for p, Initial residual = 0.038393, Final residual = 9.30019e-07, No Iterations 348
linear solve p 331350
time step continuity errors : sum local = 1.26166e-09, global = -2.57931e-20, cumulative = -5.18622e-20
ExecutionTime = 3.62 s  ClockTime = 4 s

Time = 0.0111111

Courant Number mean: 0.190873 max: 0.931033
DILUPBiCGStab:  Solving for Ux, Initial residual = 0.000313634, Final residual = 3.36168e-07, No Iterations 5
DILUPBiCGStab:  Solving for Uy, Initial residual = 0.000835192, Final residual = 8.23381e-07, No Iterations 5
DILUPBiCGStab:  Solving for Uz, Initial residual = 0.00234867, Final residual = 2.20736e-06, No Iterations 5
linear solve U 69919
nonePCG:  Solving for p, Initial residual = 0.0293648, Final residual = 9.25071e-07, No Iterations 344
linear solve p 327801
time step continuity errors : sum local = 1.26151e-09, global = 1.03172e-19, cumulative = 5.13098e-20
nonePCG:  Solving for p, Initial residual = 0.0215211, Final residual = 9.27046e-07, No Iterations 342
linear solve p 326233
time step continuity errors : sum local = 1.26739e-09, global = 4.67682e-20, cumulative = 9.8078e-20
ExecutionTime = 4.39 s  ClockTime = 5 s

Time = 0.0133333

Courant Number mean: 0.190876 max: 0.931058
DILUPBiCGStab:  Solving for Ux, Initial residual = 0.000178942, Final residual = 2.32248e-07, No Iterations 5
DILUPBiCGStab:  Solving for Uy, Initial residual = 0.000452393, Final residual = 4.23304e-07, No Iterations 5
DILUPBiCGStab:  Solving for Uz, Initial residual = 0.00128975, Final residual = 1.18355e-06, No Iterations 5
linear solve U 69804
nonePCG:  Solving for p, Initial residual = 0.0175471, Final residual = 9.63803e-07, No Iterations 334
linear solve p 316058
time step continuity errors : sum local = 1.30324e-09, global = -5.71905e-21, cumulative = 9.2359e-20
nonePCG:  Solving for p, Initial residual = 0.0130377, Final residual = 9.9965e-07, No Iterations 332
linear solve p 314076
time step continuity errors : sum local = 1.34991e-09, global = -1.69385e-20, cumulative = 7.54205e-20
ExecutionTime = 5.13 s  ClockTime = 5 s

Time = 0.0155556

Courant Number mean: 0.190871 max: 0.931023
DILUPBiCGStab:  Solving for Ux, Initial residual = 0.000105789, Final residual = 1.10585e-07, No Iterations 5
DILUPBiCGStab:  Solving for Uy, Initial residual = 0.000276306, Final residual = 2.78168e-07, No Iterations 5
DILUPBiCGStab:  Solving for Uz, Initial residual = 0.000764943, Final residual = 5.56114e-07, No Iterations 5
linear solve U 69614
nonePCG:  Solving for p, Initial residual = 0.0108814, Final residual = 9.52025e-07, No Iterations 321
linear solve p 305016
time step continuity errors : sum local = 1.28727e-09, global = 1.38007e-22, cumulative = 7.55585e-20
nonePCG:  Solving for p, Initial residual = 0.00813418, Final residual = 9.61569e-07, No Iterations 319
linear solve p 303920
time step continuity errors : sum local = 1.3009e-09, global = -8.14828e-20, cumulative = -5.92429e-21
ExecutionTime = 5.86 s  ClockTime = 6 s

Time = 0.0177778

Courant Number mean: 0.190873 max: 0.931034
DILUPBiCGStab:  Solving for Ux, Initial residual = 6.8064e-05, Final residual = 6.21004e-08, No Iterations 5
DILUPBiCGStab:  Solving for Uy, Initial residual = 0.000175175, Final residual = 1.38724e-07, No Iterations 5
DILUPBiCGStab:  Solving for Uz, Initial residual = 0.000485981, Final residual = 4.37249e-07, No Iterations 5
linear solve U 69351
nonePCG:  Solving for p, Initial residual = 0.00693281, Final residual = 9.21786e-07, No Iterations 149
linear solve p 143444
time step continuity errors : sum local = 1.4209e-09, global = 1.29743e-20, cumulative = 7.04998e-21
nonePCG:  Solving for p, Initial residual = 0.00521121, Final residual = 9.86651e-07, No Iterations 142
linear solve p 135820
time step continuity errors : sum local = 1.39667e-09, global = 7.51418e-21, cumulative = 1.45642e-20
ExecutionTime = 6.25 s  ClockTime = 7 s

Time = 0.02

Courant Number mean: 0.190873 max: 0.931017
DILUPBiCGStab:  Solving for Ux, Initial residual = 4.46296e-05, Final residual = 3.31931e-08, No Iterations 5
DILUPBiCGStab:  Solving for Uy, Initial residual = 0.0001185, Final residual = 8.63154e-08, No Iterations 5
DILUPBiCGStab:  Solving for Uz, Initial residual = 0.000327855, Final residual = 2.60034e-07, No Iterations 5
linear solve U 69805
nonePCG:  Solving for p, Initial residual = 0.00449832, Final residual = 9.74875e-07, No Iterations 134
linear solve p 128503
time step continuity errors : sum local = 1.48388e-09, global = -1.02121e-20, cumulative = 4.35201e-21
nonePCG:  Solving for p, Initial residual = 0.00339167, Final residual = 9.39177e-07, No Iterations 131
linear solve p 125356
time step continuity errors : sum local = 1.3038e-09, global = 4.13876e-20, cumulative = 4.57396e-20
ExecutionTime = 6.62 s  ClockTime = 7 s

Time = 0.0222222

Courant Number mean: 0.190876 max: 0.931022
DILUPBiCGStab:  Solving for Ux, Initial residual = 3.07677e-05, Final residual = 1.91554e-08, No Iterations 5
DILUPBiCGStab:  Solving for Uy, Initial residual = 8.0888e-05, Final residual = 4.36182e-08, No Iterations 5
DILUPBiCGStab:  Solving for Uz, Initial residual = 0.000232766, Final residual = 2.23442e-07, No Iterations 5
linear solve U 69892
nonePCG:  Solving for p, Initial residual = 0.00294671, Final residual = 9.98866e-07, No Iterations 138
linear solve p 132608
time step continuity errors : sum local = 1.58975e-09, global = 5.61429e-20, cumulative = 1.01882e-19
nonePCG:  Solving for p, Initial residual = 0.00222484, Final residual = 9.96323e-07, No Iterations 134
linear solve p 129507
time step continuity errors : sum local = 1.4279e-09, global = 7.17785e-20, cumulative = 1.73661e-19
ExecutionTime = 6.99 s  ClockTime = 7 s

End

