/*---------------------------------------------------------------------------*\
  =========                 |
  \\      /  F ield         | OpenFOAM: The Open Source CFD Toolbox
   \\    /   O peration     | Website:  https://openfoam.org
    \\  /    A nd           | Version:  8
     \\/     M anipulation  |
\*---------------------------------------------------------------------------*/
Build  : 8-ef60d22ea792
Exec   : icoFoam
Date   : Sep 11 2021
Time   : 14:40:28
Host   : "uc2n513.localdomain"
PID    : 231545
I/O    : uncollated
Case   : /pfs/data5/home/kit/scc/nq7776/data/code/OBR/lidDrivenCavity3D/Variation_init/100/Variation_mesh/35/Variation_matrix_solver/BiCGStab_NoPrecond_CUDA/1631364025
nProcs : 1
sigFpe : Enabling floating point exception trapping (FOAM_SIGFPE).
fileModificationChecking : Monitoring run-time modified files using timeStampMaster (fileModificationSkew 10)
allowSystemOperations : Allowing user-supplied system call operations

// * * * * * * * * * * * * * * * * * * * * * * * * * * * * * * * * * * * * * //
Create time

Create mesh for time = 0

Reading transportProperties

Reading field p

Reading field U

Reading/calculating face flux field phi


Starting time loop

Time = 0.00285714

Courant Number mean: 0.190911 max: 0.908567
DILUPBiCGStab:  Solving for Ux, Initial residual = 0.0505974, Final residual = 1.07894e-06, No Iterations 5
DILUPBiCGStab:  Solving for Uy, Initial residual = 0.0886223, Final residual = 3.41025e-06, No Iterations 5
DILUPBiCGStab:  Solving for Uz, Initial residual = 0.109411, Final residual = 1.20546e-05, No Iterations 5
linear solve U 31911
[OGL LOG] init_host_sparsity_pattern : 11 ms
[OGL LOG] matrix not stored update host matrix
[OGL LOG] update_host_mtx : 5 ms
[OGL LOG] matrix is not yet sorted, compute sorting idxs
[OGL LOG] compute_sort : 318 ms
[OGL LOG] matrix is not yet sorted, sorting host matrix
[OGL LOG] sort_host_mtx_sparsity_pattern : 7 ms
[OGL LOG] sort_host_mtx : 4 ms
[OGL LOG] init_preconditioner : 0 ms
[OGL LOG] solve : 65 ms
nonecudaGKOBiCGStab:  Solving for p, Initial residual = 0.486126, Final residual = 9.22951e-07, No Iterations 232
linear solve p 1147105
time step continuity errors : sum local = 5.76674e-09, global = -6.14503e-20, cumulative = -6.14503e-20
[OGL LOG] init_preconditioner : 0 ms
[OGL LOG] solve : 66 ms
nonecudaGKOBiCGStab:  Solving for p, Initial residual = 0.248642, Final residual = 2.50916e-07, No Iterations 242
linear solve p 68114
time step continuity errors : sum local = 1.23113e-09, global = 1.99745e-20, cumulative = -4.14758e-20
ExecutionTime = 1.48 s  ClockTime = 2 s

Time = 0.00571429

Courant Number mean: 0.190314 max: 0.910887
DILUPBiCGStab:  Solving for Ux, Initial residual = 0.00661178, Final residual = 3.5893e-06, No Iterations 5
DILUPBiCGStab:  Solving for Uy, Initial residual = 0.0135429, Final residual = 4.87471e-06, No Iterations 5
DILUPBiCGStab:  Solving for Uz, Initial residual = 0.0308935, Final residual = 1.21491e-05, No Iterations 5
linear solve U 29018
[OGL LOG] init_preconditioner : 0 ms
[OGL LOG] solve : 65 ms
nonecudaGKOBiCGStab:  Solving for p, Initial residual = 0.200804, Final residual = 7.194e-07, No Iterations 238
linear solve p 66928
time step continuity errors : sum local = 4.95444e-07, global = 6.31405e-20, cumulative = 2.16647e-20
[OGL LOG] init_preconditioner : 0 ms
[OGL LOG] solve : 65 ms
nonecudaGKOBiCGStab:  Solving for p, Initial residual = 0.141549, Final residual = 6.52078e-07, No Iterations 235
linear solve p 66127
time step continuity errors : sum local = 4.26537e-07, global = 4.46932e-20, cumulative = 6.63578e-20
ExecutionTime = 1.66 s  ClockTime = 2 s

Time = 0.00857143

Courant Number mean: 0.190208 max: 0.910338
DILUPBiCGStab:  Solving for Ux, Initial residual = 0.00191733, Final residual = 9.80387e-07, No Iterations 5
DILUPBiCGStab:  Solving for Uy, Initial residual = 0.00463193, Final residual = 1.82747e-06, No Iterations 5
DILUPBiCGStab:  Solving for Uz, Initial residual = 0.0123884, Final residual = 3.04868e-06, No Iterations 5
linear solve U 28986
[OGL LOG] init_preconditioner : 0 ms
[OGL LOG] solve : 65 ms
nonecudaGKOBiCGStab:  Solving for p, Initial residual = 0.0916335, Final residual = 9.07428e-07, No Iterations 238
linear solve p 67064
time step continuity errors : sum local = 4.09796e-07, global = 9.99648e-21, cumulative = 7.63543e-20
[OGL LOG] init_preconditioner : 0 ms
[OGL LOG] solve : 63 ms
nonecudaGKOBiCGStab:  Solving for p, Initial residual = 0.0658288, Final residual = 6.54542e-07, No Iterations 230
linear solve p 64810
time step continuity errors : sum local = 4.23609e-07, global = -3.34606e-20, cumulative = 4.28937e-20
ExecutionTime = 1.84 s  ClockTime = 2 s

Time = 0.0114286

Courant Number mean: 0.190301 max: 0.911286
DILUPBiCGStab:  Solving for Ux, Initial residual = 0.00075603, Final residual = 2.05408e-07, No Iterations 5
DILUPBiCGStab:  Solving for Uy, Initial residual = 0.00183565, Final residual = 3.96935e-07, No Iterations 5
DILUPBiCGStab:  Solving for Uz, Initial residual = 0.00492658, Final residual = 1.33779e-06, No Iterations 5
linear solve U 28569
[OGL LOG] init_preconditioner : 0 ms
[OGL LOG] solve : 60 ms
nonecudaGKOBiCGStab:  Solving for p, Initial residual = 0.0479752, Final residual = 6.6055e-07, No Iterations 219
linear solve p 62004
time step continuity errors : sum local = 4.27636e-07, global = 1.87504e-20, cumulative = 6.16441e-20
[OGL LOG] init_preconditioner : 0 ms
[OGL LOG] solve : 59 ms
nonecudaGKOBiCGStab:  Solving for p, Initial residual = 0.0341629, Final residual = 9.13995e-07, No Iterations 216
linear solve p 61064
time step continuity errors : sum local = 4.24747e-07, global = -1.99776e-20, cumulative = 4.16665e-20
ExecutionTime = 2.01 s  ClockTime = 2 s

Time = 0.0142857

Courant Number mean: 0.19029 max: 0.911194
DILUPBiCGStab:  Solving for Ux, Initial residual = 0.000356676, Final residual = 7.67341e-08, No Iterations 5
DILUPBiCGStab:  Solving for Uy, Initial residual = 0.000882286, Final residual = 1.59098e-07, No Iterations 5
DILUPBiCGStab:  Solving for Uz, Initial residual = 0.00226686, Final residual = 4.47786e-07, No Iterations 5
linear solve U 29678
[OGL LOG] init_preconditioner : 0 ms
[OGL LOG] solve : 56 ms
nonecudaGKOBiCGStab:  Solving for p, Initial residual = 0.0253918, Final residual = 9.36723e-07, No Iterations 205
linear solve p 58158
time step continuity errors : sum local = 4.22606e-07, global = 5.66152e-20, cumulative = 9.82817e-20
[OGL LOG] init_preconditioner : 0 ms
[OGL LOG] solve : 56 ms
nonecudaGKOBiCGStab:  Solving for p, Initial residual = 0.0177999, Final residual = 9.32402e-07, No Iterations 202
linear solve p 57310
time step continuity errors : sum local = 4.24302e-07, global = -6.48161e-20, cumulative = 3.34656e-20
ExecutionTime = 2.18 s  ClockTime = 2 s

Time = 0.0171429

Courant Number mean: 0.190299 max: 0.91131
DILUPBiCGStab:  Solving for Ux, Initial residual = 0.00019058, Final residual = 4.64966e-08, No Iterations 5
DILUPBiCGStab:  Solving for Uy, Initial residual = 0.000453981, Final residual = 3.07071e-08, No Iterations 5
DILUPBiCGStab:  Solving for Uz, Initial residual = 0.00126389, Final residual = 3.93995e-07, No Iterations 5
linear solve U 28949
[OGL LOG] init_preconditioner : 0 ms
[OGL LOG] solve : 54 ms
nonecudaGKOBiCGStab:  Solving for p, Initial residual = 0.0139563, Final residual = 8.7166e-07, No Iterations 196
linear solve p 55725
time step continuity errors : sum local = 4.23555e-07, global = -3.07652e-20, cumulative = 2.70039e-21
[OGL LOG] init_preconditioner : 0 ms
[OGL LOG] solve : 55 ms
nonecudaGKOBiCGStab:  Solving for p, Initial residual = 0.00977072, Final residual = 8.60673e-07, No Iterations 200
linear solve p 56669
time step continuity errors : sum local = 4.23047e-07, global = 7.94472e-20, cumulative = 8.21475e-20
ExecutionTime = 2.34 s  ClockTime = 3 s

Time = 0.02

Courant Number mean: 0.190298 max: 0.911278
DILUPBiCGStab:  Solving for Ux, Initial residual = 0.000106403, Final residual = 1.58172e-08, No Iterations 5
DILUPBiCGStab:  Solving for Uy, Initial residual = 0.00024321, Final residual = 2.8468e-08, No Iterations 5
DILUPBiCGStab:  Solving for Uz, Initial residual = 0.000732883, Final residual = 1.6681e-07, No Iterations 5
linear solve U 28596
[OGL LOG] init_preconditioner : 0 ms
[OGL LOG] solve : 43 ms
nonecudaGKOBiCGStab:  Solving for p, Initial residual = 0.0078122, Final residual = 9.44929e-07, No Iterations 156
linear solve p 44921
time step continuity errors : sum local = 4.24815e-07, global = -9.51955e-20, cumulative = -1.30479e-20
[OGL LOG] init_preconditioner : 0 ms
[OGL LOG] solve : 23 ms
nonecudaGKOBiCGStab:  Solving for p, Initial residual = 0.00545562, Final residual = 9.946e-07, No Iterations 82
linear solve p 24623
time step continuity errors : sum local = 4.23145e-07, global = -7.22761e-20, cumulative = -8.5324e-20
ExecutionTime = 2.46 s  ClockTime = 3 s

Time = 0.0228571

Courant Number mean: 0.190301 max: 0.911306
DILUPBiCGStab:  Solving for Ux, Initial residual = 6.18866e-05, Final residual = 1.05989e-08, No Iterations 5
DILUPBiCGStab:  Solving for Uy, Initial residual = 0.000136367, Final residual = 2.28428e-08, No Iterations 5
DILUPBiCGStab:  Solving for Uz, Initial residual = 0.000444594, Final residual = 1.53205e-07, No Iterations 5
linear solve U 31269
[OGL LOG] init_preconditioner : 0 ms
[OGL LOG] solve : 42 ms
nonecudaGKOBiCGStab:  Solving for p, Initial residual = 0.00445406, Final residual = 9.99802e-07, No Iterations 151
linear solve p 43630
time step continuity errors : sum local = 4.24988e-07, global = 5.87688e-20, cumulative = -2.65552e-20
[OGL LOG] init_preconditioner : 0 ms
[OGL LOG] solve : 20 ms
nonecudaGKOBiCGStab:  Solving for p, Initial residual = 0.00312604, Final residual = 9.21371e-07, No Iterations 72
linear solve p 21864
time step continuity errors : sum local = 4.23531e-07, global = 3.88314e-20, cumulative = 1.22762e-20
ExecutionTime = 2.58 s  ClockTime = 3 s

Time = 0.0257143

Courant Number mean: 0.190303 max: 0.911295
DILUPBiCGStab:  Solving for Ux, Initial residual = 3.74736e-05, Final residual = 5.8617e-09, No Iterations 5
DILUPBiCGStab:  Solving for Uy, Initial residual = 7.72136e-05, Final residual = 1.67298e-08, No Iterations 5
DILUPBiCGStab:  Solving for Uz, Initial residual = 0.000306661, Final residual = 1.33343e-07, No Iterations 5
linear solve U 28676
[OGL LOG] init_preconditioner : 0 ms
[OGL LOG] solve : 40 ms
nonecudaGKOBiCGStab:  Solving for p, Initial residual = 0.00256731, Final residual = 9.97225e-07, No Iterations 145
linear solve p 41851
time step continuity errors : sum local = 4.25003e-07, global = -1.3899e-20, cumulative = -1.62281e-21
[OGL LOG] init_preconditioner : 0 ms
[OGL LOG] solve : 19 ms
nonecudaGKOBiCGStab:  Solving for p, Initial residual = 0.001811, Final residual = 6.57924e-07, No Iterations 67
linear solve p 20582
time step continuity errors : sum local = 4.23127e-07, global = -4.79892e-20, cumulative = -4.9612e-20
ExecutionTime = 2.69 s  ClockTime = 3 s

Time = 0.0285714

Courant Number mean: 0.190305 max: 0.911303
DILUPBiCGStab:  Solving for Ux, Initial residual = 2.32194e-05, Final residual = 4.95249e-09, No Iterations 5
DILUPBiCGStab:  Solving for Uy, Initial residual = 4.73931e-05, Final residual = 1.09343e-08, No Iterations 5
DILUPBiCGStab:  Solving for Uz, Initial residual = 0.000212196, Final residual = 8.8694e-08, No Iterations 5
linear solve U 28676
[OGL LOG] init_preconditioner : 0 ms
[OGL LOG] solve : 28 ms
nonecudaGKOBiCGStab:  Solving for p, Initial residual = 0.00149088, Final residual = 9.9998e-07, No Iterations 100
linear solve p 29677
time step continuity errors : sum local = 4.25083e-07, global = 1.2904e-21, cumulative = -4.83216e-20
[OGL LOG] init_preconditioner : 0 ms
[OGL LOG] solve : 18 ms
nonecudaGKOBiCGStab:  Solving for p, Initial residual = 0.00105816, Final residual = 9.98755e-07, No Iterations 63
linear solve p 19356
time step continuity errors : sum local = 4.23685e-07, global = 7.27641e-20, cumulative = 2.44425e-20
ExecutionTime = 2.79 s  ClockTime = 3 s

End

