/*---------------------------------------------------------------------------*\
  =========                 |
  \\      /  F ield         | OpenFOAM: The Open Source CFD Toolbox
   \\    /   O peration     | Website:  https://openfoam.org
    \\  /    A nd           | Version:  8
     \\/     M anipulation  |
\*---------------------------------------------------------------------------*/
Build  : 8-ef60d22ea792
Exec   : icoFoam
Date   : Sep 11 2021
Time   : 13:35:41
Host   : "uc2n442.localdomain"
PID    : 3704886
I/O    : uncollated
Case   : /pfs/data5/home/kit/scc/nq7776/data/code/OBR/lidDrivenCavity3D/Variation_init/100/Variation_mesh/5/Variation_matrix_solver/CG_DIC_Serial/1631360141
nProcs : 1
sigFpe : Enabling floating point exception trapping (FOAM_SIGFPE).
fileModificationChecking : Monitoring run-time modified files using timeStampMaster (fileModificationSkew 10)
allowSystemOperations : Allowing user-supplied system call operations

// * * * * * * * * * * * * * * * * * * * * * * * * * * * * * * * * * * * * * //
Create time

Create mesh for time = 0

Reading transportProperties

Reading field p

Reading field U

Reading/calculating face flux field phi


Starting time loop

Time = 0.02

Courant Number mean: 0.165966 max: 0.393736
DILUPBiCGStab:  Solving for Ux, Initial residual = 0.257055, Final residual = 2.34833e-13, No Iterations 5
DILUPBiCGStab:  Solving for Uy, Initial residual = 0.188796, Final residual = 5.98254e-14, No Iterations 5
DILUPBiCGStab:  Solving for Uz, Initial residual = 0.171115, Final residual = 6.75568e-14, No Iterations 5
linear solve U 179
DICPCG:  Solving for p, Initial residual = 0.607222, Final residual = 1.35882e-07, No Iterations 14
linear solve p 78
time step continuity errors : sum local = 1.18373e-08, global = 5.52954e-19, cumulative = 5.52954e-19
DICPCG:  Solving for p, Initial residual = 0.279374, Final residual = 5.29067e-07, No Iterations 13
linear solve p 48
time step continuity errors : sum local = 2.39419e-08, global = -3.3749e-20, cumulative = 5.19205e-19
ExecutionTime = 0.04 s  ClockTime = 0 s

Time = 0.04

Courant Number mean: 0.153195 max: 0.395566
DILUPBiCGStab:  Solving for Ux, Initial residual = 0.0697041, Final residual = 3.44951e-14, No Iterations 5
DILUPBiCGStab:  Solving for Uy, Initial residual = 0.0816975, Final residual = 4.41302e-14, No Iterations 5
DILUPBiCGStab:  Solving for Uz, Initial residual = 0.163154, Final residual = 1.83491e-13, No Iterations 5
linear solve U 100
DICPCG:  Solving for p, Initial residual = 0.204314, Final residual = 3.78109e-07, No Iterations 13
linear solve p 41
time step continuity errors : sum local = 1.84979e-08, global = 2.7383e-19, cumulative = 7.93035e-19
DICPCG:  Solving for p, Initial residual = 0.0753345, Final residual = 9.2934e-08, No Iterations 13
linear solve p 41
time step continuity errors : sum local = 4.91577e-09, global = -1.30999e-18, cumulative = -5.16955e-19
ExecutionTime = 0.04 s  ClockTime = 0 s

Time = 0.06

Courant Number mean: 0.149929 max: 0.386832
DILUPBiCGStab:  Solving for Ux, Initial residual = 0.0141012, Final residual = 1.86589e-15, No Iterations 5
DILUPBiCGStab:  Solving for Uy, Initial residual = 0.0173193, Final residual = 4.10864e-15, No Iterations 5
DILUPBiCGStab:  Solving for Uz, Initial residual = 0.106787, Final residual = 9.06148e-14, No Iterations 5
linear solve U 108
DICPCG:  Solving for p, Initial residual = 0.0134466, Final residual = 5.66551e-07, No Iterations 11
linear solve p 37
time step continuity errors : sum local = 3.05413e-08, global = 1.43612e-18, cumulative = 9.19163e-19
DICPCG:  Solving for p, Initial residual = 0.00251707, Final residual = 1.74792e-07, No Iterations 11
linear solve p 37
time step continuity errors : sum local = 9.41283e-09, global = 6.9642e-19, cumulative = 1.61558e-18
ExecutionTime = 0.04 s  ClockTime = 0 s

Time = 0.08

Courant Number mean: 0.149047 max: 0.383246
DILUPBiCGStab:  Solving for Ux, Initial residual = 0.00404268, Final residual = 6.31763e-16, No Iterations 5
DILUPBiCGStab:  Solving for Uy, Initial residual = 0.00513061, Final residual = 1.19401e-15, No Iterations 5
DILUPBiCGStab:  Solving for Uz, Initial residual = 0.0354892, Final residual = 3.12989e-14, No Iterations 5
linear solve U 94
DICPCG:  Solving for p, Initial residual = 0.00345193, Final residual = 2.41683e-07, No Iterations 11
linear solve p 36
time step continuity errors : sum local = 1.30003e-08, global = 2.7833e-19, cumulative = 1.89391e-18
DICPCG:  Solving for p, Initial residual = 0.00137507, Final residual = 7.0621e-07, No Iterations 10
linear solve p 34
time step continuity errors : sum local = 3.80022e-08, global = -1.82853e-18, cumulative = 6.53804e-20
ExecutionTime = 0.04 s  ClockTime = 0 s

Time = 0.1

Courant Number mean: 0.148704 max: 0.381708
DILUPBiCGStab:  Solving for Ux, Initial residual = 0.00124528, Final residual = 2.73493e-16, No Iterations 5
DILUPBiCGStab:  Solving for Uy, Initial residual = 0.00166854, Final residual = 2.55704e-16, No Iterations 5
DILUPBiCGStab:  Solving for Uz, Initial residual = 0.0148809, Final residual = 8.34666e-15, No Iterations 5
linear solve U 95
DICPCG:  Solving for p, Initial residual = 0.00100366, Final residual = 5.45754e-07, No Iterations 10
linear solve p 35
time step continuity errors : sum local = 2.94838e-08, global = -1.07203e-19, cumulative = -4.18223e-20
DICPCG:  Solving for p, Initial residual = 0.000355991, Final residual = 9.24208e-07, No Iterations 9
linear solve p 32
time step continuity errors : sum local = 5.00481e-08, global = 7.02111e-19, cumulative = 6.60289e-19
ExecutionTime = 0.04 s  ClockTime = 0 s

Time = 0.12

Courant Number mean: 0.148579 max: 0.381103
DILUPBiCGStab:  Solving for Ux, Initial residual = 0.000408175, Final residual = 1.14049e-16, No Iterations 5
DILUPBiCGStab:  Solving for Uy, Initial residual = 0.000559344, Final residual = 6.89565e-17, No Iterations 5
DILUPBiCGStab:  Solving for Uz, Initial residual = 0.00595457, Final residual = 2.35762e-15, No Iterations 5
linear solve U 94
DICPCG:  Solving for p, Initial residual = 0.000390512, Final residual = 7.81839e-07, No Iterations 9
linear solve p 33
time step continuity errors : sum local = 4.22595e-08, global = -3.57938e-19, cumulative = 3.02351e-19
DICPCG:  Solving for p, Initial residual = 0.000145757, Final residual = 3.05026e-07, No Iterations 9
linear solve p 32
time step continuity errors : sum local = 1.6537e-08, global = 1.03093e-18, cumulative = 1.33328e-18
ExecutionTime = 0.04 s  ClockTime = 0 s

Time = 0.14

Courant Number mean: 0.148534 max: 0.380874
DILUPBiCGStab:  Solving for Ux, Initial residual = 0.000140729, Final residual = 4.60493e-17, No Iterations 5
DILUPBiCGStab:  Solving for Uy, Initial residual = 0.000195051, Final residual = 2.60288e-17, No Iterations 5
DILUPBiCGStab:  Solving for Uz, Initial residual = 0.00241954, Final residual = 6.65076e-16, No Iterations 5
linear solve U 140
DICPCG:  Solving for p, Initial residual = 0.000151912, Final residual = 2.86822e-07, No Iterations 9
linear solve p 36
time step continuity errors : sum local = 1.54969e-08, global = 2.10699e-19, cumulative = 1.54398e-18
DICPCG:  Solving for p, Initial residual = 5.45683e-05, Final residual = 5.16537e-07, No Iterations 8
linear solve p 34
time step continuity errors : sum local = 2.78281e-08, global = -9.21876e-19, cumulative = 6.22106e-19
ExecutionTime = 0.04 s  ClockTime = 0 s

Time = 0.16

Courant Number mean: 0.148518 max: 0.38079
DILUPBiCGStab:  Solving for Ux, Initial residual = 5.06363e-05, Final residual = 1.80336e-17, No Iterations 5
DILUPBiCGStab:  Solving for Uy, Initial residual = 7.02221e-05, Final residual = 1.41202e-17, No Iterations 5
DILUPBiCGStab:  Solving for Uz, Initial residual = 0.000980699, Final residual = 2.08548e-16, No Iterations 5
linear solve U 101
DICPCG:  Solving for p, Initial residual = 5.84591e-05, Final residual = 7.94675e-07, No Iterations 4
linear solve p 27
time step continuity errors : sum local = 7.29583e-08, global = -5.33498e-19, cumulative = 8.86076e-20
DICPCG:  Solving for p, Initial residual = 2.09853e-05, Final residual = 6.59134e-07, No Iterations 3
linear solve p 23
time step continuity errors : sum local = 5.02273e-08, global = 3.23461e-19, cumulative = 4.12068e-19
ExecutionTime = 0.04 s  ClockTime = 0 s

Time = 0.18

Courant Number mean: 0.148512 max: 0.38076
DILUPBiCGStab:  Solving for Ux, Initial residual = 1.89666e-05, Final residual = 7.59755e-18, No Iterations 5
DILUPBiCGStab:  Solving for Uy, Initial residual = 2.60706e-05, Final residual = 6.58977e-18, No Iterations 5
DILUPBiCGStab:  Solving for Uz, Initial residual = 0.000399286, Final residual = 6.74827e-17, No Iterations 5
linear solve U 115
DICPCG:  Solving for p, Initial residual = 2.2409e-05, Final residual = 8.53803e-07, No Iterations 3
linear solve p 24
time step continuity errors : sum local = 7.03061e-08, global = 1.15819e-18, cumulative = 1.57025e-18
DICPCG:  Solving for p, Initial residual = 7.84981e-06, Final residual = 4.7395e-07, No Iterations 3
linear solve p 22
time step continuity errors : sum local = 4.41862e-08, global = 1.07725e-18, cumulative = 2.64751e-18
ExecutionTime = 0.04 s  ClockTime = 0 s

Time = 0.2

Courant Number mean: 0.148511 max: 0.380749
DILUPBiCGStab:  Solving for Ux, Initial residual = 7.25415e-06, Final residual = 3.31717e-18, No Iterations 5
DILUPBiCGStab:  Solving for Uy, Initial residual = 9.90338e-06, Final residual = 4.95095e-18, No Iterations 5
DILUPBiCGStab:  Solving for Uz, Initial residual = 0.000161768, Final residual = 2.77008e-17, No Iterations 5
linear solve U 93
DICPCG:  Solving for p, Initial residual = 8.54217e-06, Final residual = 5.34971e-07, No Iterations 3
linear solve p 23
time step continuity errors : sum local = 5.10706e-08, global = 5.09543e-21, cumulative = 2.6526e-18
DICPCG:  Solving for p, Initial residual = 3.18123e-06, Final residual = 5.46848e-07, No Iterations 2
linear solve p 21
time step continuity errors : sum local = 4.88488e-08, global = -4.40523e-19, cumulative = 2.21208e-18
ExecutionTime = 0.04 s  ClockTime = 0 s

End

