/*---------------------------------------------------------------------------*\
  =========                 |
  \\      /  F ield         | OpenFOAM: The Open Source CFD Toolbox
   \\    /   O peration     | Website:  https://openfoam.org
    \\  /    A nd           | Version:  8
     \\/     M anipulation  |
\*---------------------------------------------------------------------------*/
Build  : 8-ef60d22ea792
Exec   : icoFoam
Date   : Sep 11 2021
Time   : 13:50:34
Host   : "uc2n513.localdomain"
PID    : 220580
I/O    : uncollated
Case   : /pfs/data5/home/kit/scc/nq7776/data/code/OBR/lidDrivenCavity3D/Variation_init/100/Variation_mesh/40/Variation_matrix_solver/BiCGStab_ILU_CUDA/1631361029
nProcs : 1
sigFpe : Enabling floating point exception trapping (FOAM_SIGFPE).
fileModificationChecking : Monitoring run-time modified files using timeStampMaster (fileModificationSkew 10)
allowSystemOperations : Allowing user-supplied system call operations

// * * * * * * * * * * * * * * * * * * * * * * * * * * * * * * * * * * * * * //
Create time

Create mesh for time = 0

Reading transportProperties

Reading field p

Reading field U

Reading/calculating face flux field phi


Starting time loop

Time = 0.0025

Courant Number mean: 0.190855 max: 0.911003
DILUPBiCGStab:  Solving for Ux, Initial residual = 0.0769217, Final residual = 3.46977e-06, No Iterations 5
DILUPBiCGStab:  Solving for Uy, Initial residual = 0.121369, Final residual = 7.54429e-06, No Iterations 5
DILUPBiCGStab:  Solving for Uz, Initial residual = 0.12361, Final residual = 1.86097e-05, No Iterations 5
linear solve U 52525
[OGL LOG] init_host_sparsity_pattern : 16 ms
[OGL LOG] matrix not stored update host matrix
[OGL LOG] update_host_mtx : 8 ms
[OGL LOG] matrix is not yet sorted, compute sorting idxs
[OGL LOG] compute_sort : 478 ms
[OGL LOG] matrix is not yet sorted, sorting host matrix
[OGL LOG] sort_host_mtx_sparsity_pattern : 10 ms
[OGL LOG] sort_host_mtx : 7 ms
[OGL LOG] init_preconditioner : 20 ms
[OGL LOG] solve : 125 ms
ILUcudaGKOBiCGStab:  Solving for p, Initial residual = 0.391661, Final residual = 9.21405e-07, No Iterations 85
linear solve p 1405217
time step continuity errors : sum local = 2.20681e-09, global = -6.68494e-20, cumulative = -6.68494e-20
[OGL LOG] init_preconditioner : 0 ms
[OGL LOG] solve : 105 ms
ILUcudaGKOBiCGStab:  Solving for p, Initial residual = 0.205931, Final residual = 6.38172e-07, No Iterations 72
linear solve p 107684
time step continuity errors : sum local = 1.2415e-09, global = 2.31552e-20, cumulative = -4.36941e-20
ExecutionTime = 1.89 s  ClockTime = 2 s

Time = 0.005

Courant Number mean: 0.19083 max: 0.922157
DILUPBiCGStab:  Solving for Ux, Initial residual = 0.00575698, Final residual = 4.01331e-06, No Iterations 5
DILUPBiCGStab:  Solving for Uy, Initial residual = 0.0108107, Final residual = 8.44482e-06, No Iterations 5
DILUPBiCGStab:  Solving for Uz, Initial residual = 0.0200644, Final residual = 1.78438e-05, No Iterations 5
linear solve U 46791
[OGL LOG] init_preconditioner : 0 ms
[OGL LOG] solve : 114 ms
ILUcudaGKOBiCGStab:  Solving for p, Initial residual = 0.136376, Final residual = 5.01708e-07, No Iterations 76
linear solve p 115683
time step continuity errors : sum local = 6.6771e-07, global = -6.04576e-20, cumulative = -1.04152e-19
[OGL LOG] init_preconditioner : 0 ms
[OGL LOG] solve : 117 ms
ILUcudaGKOBiCGStab:  Solving for p, Initial residual = 0.0993001, Final residual = 4.91317e-07, No Iterations 80
linear solve p 119168
time step continuity errors : sum local = 6.28071e-07, global = -7.66021e-20, cumulative = -1.80754e-19
ExecutionTime = 2.2 s  ClockTime = 2 s

Time = 0.0075

Courant Number mean: 0.190722 max: 0.922357
DILUPBiCGStab:  Solving for Ux, Initial residual = 0.000899419, Final residual = 5.75748e-07, No Iterations 5
DILUPBiCGStab:  Solving for Uy, Initial residual = 0.00250222, Final residual = 1.55849e-06, No Iterations 5
DILUPBiCGStab:  Solving for Uz, Initial residual = 0.00535098, Final residual = 3.72075e-06, No Iterations 5
linear solve U 47023
[OGL LOG] init_preconditioner : 0 ms
[OGL LOG] solve : 101 ms
ILUcudaGKOBiCGStab:  Solving for p, Initial residual = 0.0513111, Final residual = 9.10012e-07, No Iterations 69
linear solve p 103275
time step continuity errors : sum local = 6.17787e-07, global = -4.3215e-20, cumulative = -2.23969e-19
[OGL LOG] init_preconditioner : 0 ms
[OGL LOG] solve : 106 ms
ILUcudaGKOBiCGStab:  Solving for p, Initial residual = 0.0378634, Final residual = 8.74567e-07, No Iterations 72
linear solve p 108662
time step continuity errors : sum local = 6.25885e-07, global = 1.00469e-19, cumulative = -1.235e-19
ExecutionTime = 2.49 s  ClockTime = 2 s

Time = 0.01

Courant Number mean: 0.190704 max: 0.922533
DILUPBiCGStab:  Solving for Ux, Initial residual = 0.000355457, Final residual = 3.16446e-07, No Iterations 5
DILUPBiCGStab:  Solving for Uy, Initial residual = 0.000976633, Final residual = 6.00194e-07, No Iterations 5
DILUPBiCGStab:  Solving for Uz, Initial residual = 0.00273098, Final residual = 1.49835e-06, No Iterations 5
linear solve U 46628
[OGL LOG] init_preconditioner : 0 ms
[OGL LOG] solve : 92 ms
ILUcudaGKOBiCGStab:  Solving for p, Initial residual = 0.0272803, Final residual = 6.69891e-07, No Iterations 63
linear solve p 93887
time step continuity errors : sum local = 6.29656e-07, global = -3.52575e-20, cumulative = -1.58758e-19
[OGL LOG] init_preconditioner : 0 ms
[OGL LOG] solve : 46 ms
ILUcudaGKOBiCGStab:  Solving for p, Initial residual = 0.0205658, Final residual = 9.54542e-07, No Iterations 31
linear solve p 48379
time step continuity errors : sum local = 6.27581e-07, global = 3.08259e-20, cumulative = -1.27932e-19
ExecutionTime = 2.71 s  ClockTime = 3 s

Time = 0.0125

Courant Number mean: 0.190674 max: 0.922421
DILUPBiCGStab:  Solving for Ux, Initial residual = 0.000166981, Final residual = 1.0305e-07, No Iterations 5
DILUPBiCGStab:  Solving for Uy, Initial residual = 0.000527512, Final residual = 2.50039e-07, No Iterations 5
DILUPBiCGStab:  Solving for Uz, Initial residual = 0.00118591, Final residual = 6.24359e-07, No Iterations 5
linear solve U 46516
[OGL LOG] init_preconditioner : 0 ms
[OGL LOG] solve : 96 ms
ILUcudaGKOBiCGStab:  Solving for p, Initial residual = 0.0156997, Final residual = 7.09971e-07, No Iterations 64
linear solve p 98653
time step continuity errors : sum local = 6.25628e-07, global = -5.85199e-20, cumulative = -1.86452e-19
[OGL LOG] init_preconditioner : 0 ms
[OGL LOG] solve : 85 ms
ILUcudaGKOBiCGStab:  Solving for p, Initial residual = 0.0118232, Final residual = 9.9646e-07, No Iterations 58
linear solve p 86946
time step continuity errors : sum local = 6.264e-07, global = -2.55785e-20, cumulative = -2.1203e-19
ExecutionTime = 2.98 s  ClockTime = 3 s

Time = 0.015

Courant Number mean: 0.190664 max: 0.922459
DILUPBiCGStab:  Solving for Ux, Initial residual = 0.000103878, Final residual = 6.82053e-08, No Iterations 5
DILUPBiCGStab:  Solving for Uy, Initial residual = 0.000300917, Final residual = 1.24e-07, No Iterations 5
DILUPBiCGStab:  Solving for Uz, Initial residual = 0.00075607, Final residual = 3.68721e-07, No Iterations 5
linear solve U 46863
[OGL LOG] init_preconditioner : 0 ms
[OGL LOG] solve : 43 ms
ILUcudaGKOBiCGStab:  Solving for p, Initial residual = 0.00953125, Final residual = 9.65441e-07, No Iterations 29
linear solve p 44768
time step continuity errors : sum local = 6.27799e-07, global = -2.04283e-20, cumulative = -2.32458e-19
[OGL LOG] init_preconditioner : 0 ms
[OGL LOG] solve : 42 ms
ILUcudaGKOBiCGStab:  Solving for p, Initial residual = 0.00720498, Final residual = 7.29707e-07, No Iterations 28
linear solve p 44020
time step continuity errors : sum local = 6.26756e-07, global = -4.56686e-20, cumulative = -2.78127e-19
ExecutionTime = 3.15 s  ClockTime = 3 s

Time = 0.0175

Courant Number mean: 0.190653 max: 0.922415
DILUPBiCGStab:  Solving for Ux, Initial residual = 6.33393e-05, Final residual = 4.22485e-08, No Iterations 5
DILUPBiCGStab:  Solving for Uy, Initial residual = 0.000187317, Final residual = 6.50041e-08, No Iterations 5
DILUPBiCGStab:  Solving for Uz, Initial residual = 0.000459621, Final residual = 2.25274e-07, No Iterations 5
linear solve U 46645
[OGL LOG] init_preconditioner : 0 ms
[OGL LOG] solve : 35 ms
ILUcudaGKOBiCGStab:  Solving for p, Initial residual = 0.00589989, Final residual = 7.16032e-07, No Iterations 23
linear solve p 36807
time step continuity errors : sum local = 6.26273e-07, global = -1.02166e-19, cumulative = -3.80293e-19
[OGL LOG] init_preconditioner : 0 ms
[OGL LOG] solve : 42 ms
ILUcudaGKOBiCGStab:  Solving for p, Initial residual = 0.00445771, Final residual = 8.68812e-07, No Iterations 28
linear solve p 44029
time step continuity errors : sum local = 6.26403e-07, global = 9.07355e-20, cumulative = -2.89557e-19
ExecutionTime = 3.31 s  ClockTime = 3 s

Time = 0.02

Courant Number mean: 0.190649 max: 0.922428
DILUPBiCGStab:  Solving for Ux, Initial residual = 4.3523e-05, Final residual = 1.91254e-08, No Iterations 5
DILUPBiCGStab:  Solving for Uy, Initial residual = 0.000121449, Final residual = 4.15489e-08, No Iterations 5
DILUPBiCGStab:  Solving for Uz, Initial residual = 0.000311368, Final residual = 1.58479e-07, No Iterations 5
linear solve U 46359
[OGL LOG] init_preconditioner : 0 ms
[OGL LOG] solve : 38 ms
ILUcudaGKOBiCGStab:  Solving for p, Initial residual = 0.00371967, Final residual = 7.89627e-07, No Iterations 25
linear solve p 39810
time step continuity errors : sum local = 6.2739e-07, global = 6.33e-20, cumulative = -2.26257e-19
[OGL LOG] init_preconditioner : 0 ms
[OGL LOG] solve : 38 ms
ILUcudaGKOBiCGStab:  Solving for p, Initial residual = 0.00280894, Final residual = 5.85676e-07, No Iterations 25
linear solve p 39739
time step continuity errors : sum local = 6.26438e-07, global = -4.30423e-20, cumulative = -2.69299e-19
ExecutionTime = 3.46 s  ClockTime = 3 s

Time = 0.0225

Courant Number mean: 0.190645 max: 0.92241
DILUPBiCGStab:  Solving for Ux, Initial residual = 2.90164e-05, Final residual = 1.12899e-08, No Iterations 5
DILUPBiCGStab:  Solving for Uy, Initial residual = 7.89721e-05, Final residual = 3.04798e-08, No Iterations 5
DILUPBiCGStab:  Solving for Uz, Initial residual = 0.000232251, Final residual = 1.16266e-07, No Iterations 5
linear solve U 47275
[OGL LOG] init_preconditioner : 0 ms
[OGL LOG] solve : 40 ms
ILUcudaGKOBiCGStab:  Solving for p, Initial residual = 0.00235333, Final residual = 8.04074e-07, No Iterations 27
linear solve p 42620
time step continuity errors : sum local = 6.26181e-07, global = 4.40076e-20, cumulative = -2.25292e-19
[OGL LOG] init_preconditioner : 0 ms
[OGL LOG] solve : 39 ms
ILUcudaGKOBiCGStab:  Solving for p, Initial residual = 0.00177525, Final residual = 8.42357e-07, No Iterations 26
linear solve p 41127
time step continuity errors : sum local = 6.26371e-07, global = -5.12397e-20, cumulative = -2.76532e-19
ExecutionTime = 3.63 s  ClockTime = 3 s

Time = 0.025

Courant Number mean: 0.190644 max: 0.922414
DILUPBiCGStab:  Solving for Ux, Initial residual = 2.10496e-05, Final residual = 7.80032e-09, No Iterations 5
DILUPBiCGStab:  Solving for Uy, Initial residual = 5.35946e-05, Final residual = 1.99337e-08, No Iterations 5
DILUPBiCGStab:  Solving for Uz, Initial residual = 0.000173223, Final residual = 8.71109e-08, No Iterations 5
linear solve U 46420
[OGL LOG] init_preconditioner : 0 ms
[OGL LOG] solve : 40 ms
ILUcudaGKOBiCGStab:  Solving for p, Initial residual = 0.00150106, Final residual = 9.58701e-07, No Iterations 27
linear solve p 41889
time step continuity errors : sum local = 6.27254e-07, global = -4.05898e-20, cumulative = -3.17121e-19
[OGL LOG] init_preconditioner : 0 ms
[OGL LOG] solve : 39 ms
ILUcudaGKOBiCGStab:  Solving for p, Initial residual = 0.00113203, Final residual = 9.68179e-07, No Iterations 26
linear solve p 41113
time step continuity errors : sum local = 6.26986e-07, global = 2.29315e-20, cumulative = -2.9419e-19
ExecutionTime = 3.79 s  ClockTime = 4 s

End

