/*---------------------------------------------------------------------------*\
  =========                 |
  \\      /  F ield         | OpenFOAM: The Open Source CFD Toolbox
   \\    /   O peration     | Website:  https://openfoam.org
    \\  /    A nd           | Version:  8
     \\/     M anipulation  |
\*---------------------------------------------------------------------------*/
Build  : 8-ef60d22ea792
Exec   : icoFoam
Date   : Sep 11 2021
Time   : 14:14:18
Host   : "uc2n442.localdomain"
PID    : 3720540
I/O    : uncollated
Case   : /pfs/data5/home/kit/scc/nq7776/data/code/OBR/lidDrivenCavity3D/Variation_init/100/Variation_mesh/30/Variation_matrix_solver/CG_NoPrecond_Serial/1631362457
nProcs : 1
sigFpe : Enabling floating point exception trapping (FOAM_SIGFPE).
fileModificationChecking : Monitoring run-time modified files using timeStampMaster (fileModificationSkew 10)
allowSystemOperations : Allowing user-supplied system call operations

// * * * * * * * * * * * * * * * * * * * * * * * * * * * * * * * * * * * * * //
Create time

Create mesh for time = 0

Reading transportProperties

Reading field p

Reading field U

Reading/calculating face flux field phi


Starting time loop

Time = 0.00333333

Courant Number mean: 0.190329 max: 0.906243
DILUPBiCGStab:  Solving for Ux, Initial residual = 0.0900001, Final residual = 1.98559e-06, No Iterations 5
DILUPBiCGStab:  Solving for Uy, Initial residual = 0.151485, Final residual = 4.47204e-06, No Iterations 5
DILUPBiCGStab:  Solving for Uz, Initial residual = 0.230061, Final residual = 9.55411e-06, No Iterations 5
linear solve U 19902
nonePCG:  Solving for p, Initial residual = 0.532173, Final residual = 9.51962e-07, No Iterations 249
linear solve p 59754
time step continuity errors : sum local = 4.45849e-09, global = -1.26452e-19, cumulative = -1.26452e-19
nonePCG:  Solving for p, Initial residual = 0.319499, Final residual = 9.16128e-07, No Iterations 248
linear solve p 59462
time step continuity errors : sum local = 2.82098e-09, global = -8.732e-20, cumulative = -2.13772e-19
ExecutionTime = 0.3 s  ClockTime = 0 s

Time = 0.00666667

Courant Number mean: 0.190231 max: 0.898516
DILUPBiCGStab:  Solving for Ux, Initial residual = 0.00891595, Final residual = 1.50306e-06, No Iterations 5
DILUPBiCGStab:  Solving for Uy, Initial residual = 0.0168192, Final residual = 2.62153e-06, No Iterations 5
DILUPBiCGStab:  Solving for Uz, Initial residual = 0.0471925, Final residual = 5.62192e-06, No Iterations 5
linear solve U 18134
nonePCG:  Solving for p, Initial residual = 0.15433, Final residual = 8.87595e-07, No Iterations 243
linear solve p 58640
time step continuity errors : sum local = 2.67026e-09, global = 2.19158e-20, cumulative = -1.91856e-19
nonePCG:  Solving for p, Initial residual = 0.0941591, Final residual = 9.00289e-07, No Iterations 240
linear solve p 57603
time step continuity errors : sum local = 2.71226e-09, global = 2.41187e-20, cumulative = -1.67737e-19
ExecutionTime = 0.44 s  ClockTime = 0 s

Time = 0.01

Courant Number mean: 0.190017 max: 0.896754
DILUPBiCGStab:  Solving for Ux, Initial residual = 0.00114152, Final residual = 3.28768e-07, No Iterations 5
DILUPBiCGStab:  Solving for Uy, Initial residual = 0.00263872, Final residual = 3.33578e-07, No Iterations 5
DILUPBiCGStab:  Solving for Uz, Initial residual = 0.0129721, Final residual = 1.55086e-06, No Iterations 5
linear solve U 18623
nonePCG:  Solving for p, Initial residual = 0.0505179, Final residual = 9.74404e-07, No Iterations 234
linear solve p 56469
time step continuity errors : sum local = 2.88148e-09, global = 1.6005e-20, cumulative = -1.51732e-19
nonePCG:  Solving for p, Initial residual = 0.0335403, Final residual = 8.88707e-07, No Iterations 232
linear solve p 55999
time step continuity errors : sum local = 2.6356e-09, global = -7.72418e-20, cumulative = -2.28974e-19
ExecutionTime = 0.59 s  ClockTime = 0 s

Time = 0.0133333

Courant Number mean: 0.189923 max: 0.896669
DILUPBiCGStab:  Solving for Ux, Initial residual = 0.000490778, Final residual = 9.88211e-08, No Iterations 5
DILUPBiCGStab:  Solving for Uy, Initial residual = 0.000979355, Final residual = 1.11026e-07, No Iterations 5
DILUPBiCGStab:  Solving for Uz, Initial residual = 0.00353507, Final residual = 4.40113e-07, No Iterations 5
linear solve U 17765
nonePCG:  Solving for p, Initial residual = 0.0231862, Final residual = 9.60324e-07, No Iterations 223
linear solve p 53550
time step continuity errors : sum local = 2.80196e-09, global = -1.36043e-19, cumulative = -3.65017e-19
nonePCG:  Solving for p, Initial residual = 0.0159606, Final residual = 9.60672e-07, No Iterations 220
linear solve p 52690
time step continuity errors : sum local = 2.79568e-09, global = -2.84452e-20, cumulative = -3.93462e-19
ExecutionTime = 0.72 s  ClockTime = 1 s

Time = 0.0166667

Courant Number mean: 0.189872 max: 0.896515
DILUPBiCGStab:  Solving for Ux, Initial residual = 0.000223453, Final residual = 4.3589e-08, No Iterations 5
DILUPBiCGStab:  Solving for Uy, Initial residual = 0.000482672, Final residual = 4.74426e-08, No Iterations 5
DILUPBiCGStab:  Solving for Uz, Initial residual = 0.00174683, Final residual = 2.34815e-07, No Iterations 5
linear solve U 17661
nonePCG:  Solving for p, Initial residual = 0.0115019, Final residual = 9.87096e-07, No Iterations 113
linear solve p 27929
time step continuity errors : sum local = 3.0391e-09, global = -1.37638e-19, cumulative = -5.311e-19
nonePCG:  Solving for p, Initial residual = 0.00800154, Final residual = 9.62542e-07, No Iterations 111
linear solve p 26898
time step continuity errors : sum local = 2.91949e-09, global = -1.01197e-19, cumulative = -6.32297e-19
ExecutionTime = 0.8 s  ClockTime = 1 s

Time = 0.02

Courant Number mean: 0.189842 max: 0.896522
DILUPBiCGStab:  Solving for Ux, Initial residual = 0.000133123, Final residual = 2.24627e-08, No Iterations 5
DILUPBiCGStab:  Solving for Uy, Initial residual = 0.000257538, Final residual = 2.43953e-08, No Iterations 5
DILUPBiCGStab:  Solving for Uz, Initial residual = 0.000890594, Final residual = 1.15225e-07, No Iterations 5
linear solve U 17633
nonePCG:  Solving for p, Initial residual = 0.00603553, Final residual = 9.95233e-07, No Iterations 100
linear solve p 24375
time step continuity errors : sum local = 3.21843e-09, global = 9.17695e-20, cumulative = -5.40527e-19
nonePCG:  Solving for p, Initial residual = 0.00424229, Final residual = 9.83496e-07, No Iterations 98
linear solve p 24136
time step continuity errors : sum local = 2.8942e-09, global = 4.91267e-20, cumulative = -4.914e-19
ExecutionTime = 0.88 s  ClockTime = 1 s

Time = 0.0233333

Courant Number mean: 0.189822 max: 0.896474
DILUPBiCGStab:  Solving for Ux, Initial residual = 7.53325e-05, Final residual = 1.08109e-08, No Iterations 5
DILUPBiCGStab:  Solving for Uy, Initial residual = 0.000144672, Final residual = 1.28008e-08, No Iterations 5
DILUPBiCGStab:  Solving for Uz, Initial residual = 0.000592907, Final residual = 6.89683e-08, No Iterations 5
linear solve U 17959
nonePCG:  Solving for p, Initial residual = 0.00318988, Final residual = 9.80169e-07, No Iterations 96
linear solve p 23313
time step continuity errors : sum local = 3.04464e-09, global = -9.08155e-20, cumulative = -5.82216e-19
nonePCG:  Solving for p, Initial residual = 0.00224767, Final residual = 9.59351e-07, No Iterations 94
linear solve p 23093
time step continuity errors : sum local = 2.89388e-09, global = 1.20333e-19, cumulative = -4.61883e-19
ExecutionTime = 0.97 s  ClockTime = 1 s

Time = 0.0266667

Courant Number mean: 0.18981 max: 0.89647
DILUPBiCGStab:  Solving for Ux, Initial residual = 4.87391e-05, Final residual = 6.2608e-09, No Iterations 5
DILUPBiCGStab:  Solving for Uy, Initial residual = 8.43104e-05, Final residual = 6.48777e-09, No Iterations 5
DILUPBiCGStab:  Solving for Uz, Initial residual = 0.000378284, Final residual = 4.42452e-08, No Iterations 5
linear solve U 17599
nonePCG:  Solving for p, Initial residual = 0.00173679, Final residual = 9.23795e-07, No Iterations 90
linear solve p 21801
time step continuity errors : sum local = 2.93993e-09, global = 4.84577e-20, cumulative = -4.13425e-19
nonePCG:  Solving for p, Initial residual = 0.00123032, Final residual = 9.24583e-07, No Iterations 88
linear solve p 21287
time step continuity errors : sum local = 2.72306e-09, global = 2.38262e-20, cumulative = -3.89599e-19
ExecutionTime = 1.04 s  ClockTime = 1 s

Time = 0.03

Courant Number mean: 0.189802 max: 0.896454
DILUPBiCGStab:  Solving for Ux, Initial residual = 3.07776e-05, Final residual = 2.97337e-09, No Iterations 5
DILUPBiCGStab:  Solving for Uy, Initial residual = 5.32204e-05, Final residual = 3.34827e-09, No Iterations 5
DILUPBiCGStab:  Solving for Uz, Initial residual = 0.000281052, Final residual = 2.41797e-08, No Iterations 5
linear solve U 17408
nonePCG:  Solving for p, Initial residual = 0.000940493, Final residual = 8.79235e-07, No Iterations 88
linear solve p 21728
time step continuity errors : sum local = 2.72343e-09, global = -9.34811e-20, cumulative = -4.8308e-19
nonePCG:  Solving for p, Initial residual = 0.00066948, Final residual = 9.04555e-07, No Iterations 86
linear solve p 21818
time step continuity errors : sum local = 2.71105e-09, global = -5.61599e-20, cumulative = -5.3924e-19
ExecutionTime = 1.11 s  ClockTime = 1 s

Time = 0.0333333

Courant Number mean: 0.189797 max: 0.896449
DILUPBiCGStab:  Solving for Ux, Initial residual = 2.09338e-05, Final residual = 1.84578e-09, No Iterations 5
DILUPBiCGStab:  Solving for Uy, Initial residual = 3.32436e-05, Final residual = 1.64951e-09, No Iterations 5
DILUPBiCGStab:  Solving for Uz, Initial residual = 0.000196732, Final residual = 1.76147e-08, No Iterations 5
linear solve U 18096
nonePCG:  Solving for p, Initial residual = 0.000520752, Final residual = 9.71483e-07, No Iterations 83
linear solve p 20335
time step continuity errors : sum local = 3.01561e-09, global = -1.78226e-20, cumulative = -5.57063e-19
nonePCG:  Solving for p, Initial residual = 0.000372014, Final residual = 9.91015e-07, No Iterations 78
linear solve p 19089
time step continuity errors : sum local = 2.91511e-09, global = 1.61145e-20, cumulative = -5.40948e-19
ExecutionTime = 1.18 s  ClockTime = 1 s

End

