/*---------------------------------------------------------------------------*\
  =========                 |
  \\      /  F ield         | OpenFOAM: The Open Source CFD Toolbox
   \\    /   O peration     | Website:  https://openfoam.org
    \\  /    A nd           | Version:  8
     \\/     M anipulation  |
\*---------------------------------------------------------------------------*/
Build  : 8-ef60d22ea792
Exec   : icoFoam
Date   : Sep 11 2021
Time   : 14:44:18
Host   : "uc2n513.localdomain"
PID    : 233808
I/O    : uncollated
Case   : /pfs/data5/home/kit/scc/nq7776/data/code/OBR/lidDrivenCavity3D/Variation_init/100/Variation_mesh/45/Variation_matrix_solver/BiCGStab_NoPrecond_CUDA/1631364253
nProcs : 1
sigFpe : Enabling floating point exception trapping (FOAM_SIGFPE).
fileModificationChecking : Monitoring run-time modified files using timeStampMaster (fileModificationSkew 10)
allowSystemOperations : Allowing user-supplied system call operations

// * * * * * * * * * * * * * * * * * * * * * * * * * * * * * * * * * * * * * //
Create time

Create mesh for time = 0

Reading transportProperties

Reading field p

Reading field U

Reading/calculating face flux field phi


Starting time loop

Time = 0.00222222

Courant Number mean: 0.190928 max: 0.914047
DILUPBiCGStab:  Solving for Ux, Initial residual = 0.0595792, Final residual = 4.86933e-06, No Iterations 5
DILUPBiCGStab:  Solving for Uy, Initial residual = 0.0975024, Final residual = 1.18416e-05, No Iterations 5
DILUPBiCGStab:  Solving for Uz, Initial residual = 0.125234, Final residual = 3.53848e-05, No Iterations 5
linear solve U 77785
[OGL LOG] init_host_sparsity_pattern : 25 ms
[OGL LOG] matrix not stored update host matrix
[OGL LOG] update_host_mtx : 13 ms
[OGL LOG] matrix is not yet sorted, compute sorting idxs
[OGL LOG] compute_sort : 709 ms
[OGL LOG] matrix is not yet sorted, sorting host matrix
[OGL LOG] sort_host_mtx_sparsity_pattern : 17 ms
[OGL LOG] sort_host_mtx : 9 ms
[OGL LOG] init_preconditioner : 0 ms
[OGL LOG] solve : 87 ms
nonecudaGKOBiCGStab:  Solving for p, Initial residual = 0.429284, Final residual = 9.79254e-07, No Iterations 303
linear solve p 1597855
time step continuity errors : sum local = 2.79379e-09, global = -5.0748e-20, cumulative = -5.0748e-20
[OGL LOG] init_preconditioner : 0 ms
[OGL LOG] solve : 85 ms
nonecudaGKOBiCGStab:  Solving for p, Initial residual = 0.201177, Final residual = 5.6944e-07, No Iterations 297
linear solve p 88295
time step continuity errors : sum local = 2.0503e-09, global = 5.73361e-20, cumulative = 6.58814e-21
ExecutionTime = 2.24 s  ClockTime = 2 s

Time = 0.00444444

Courant Number mean: 0.190905 max: 0.929693
DILUPBiCGStab:  Solving for Ux, Initial residual = 0.00558514, Final residual = 5.75093e-06, No Iterations 5
DILUPBiCGStab:  Solving for Uy, Initial residual = 0.0107017, Final residual = 1.18824e-05, No Iterations 5
DILUPBiCGStab:  Solving for Uz, Initial residual = 0.0268496, Final residual = 2.97639e-05, No Iterations 5
linear solve U 70127
[OGL LOG] init_preconditioner : 0 ms
[OGL LOG] solve : 88 ms
nonecudaGKOBiCGStab:  Solving for p, Initial residual = 0.226322, Final residual = 8.63578e-07, No Iterations 303
linear solve p 91727
time step continuity errors : sum local = 4.86378e-07, global = 3.66315e-20, cumulative = 4.32196e-20
[OGL LOG] init_preconditioner : 0 ms
[OGL LOG] solve : 86 ms
nonecudaGKOBiCGStab:  Solving for p, Initial residual = 0.154091, Final residual = 9.70343e-08, No Iterations 300
linear solve p 89286
time step continuity errors : sum local = 4.50161e-07, global = -6.01172e-20, cumulative = -1.68976e-20
ExecutionTime = 2.53 s  ClockTime = 2 s

Time = 0.00666667

Courant Number mean: 0.190867 max: 0.930874
DILUPBiCGStab:  Solving for Ux, Initial residual = 0.00160173, Final residual = 1.98066e-06, No Iterations 5
DILUPBiCGStab:  Solving for Uy, Initial residual = 0.00403853, Final residual = 4.80123e-06, No Iterations 5
DILUPBiCGStab:  Solving for Uz, Initial residual = 0.0116948, Final residual = 1.19484e-05, No Iterations 5
linear solve U 69310
[OGL LOG] init_preconditioner : 0 ms
[OGL LOG] solve : 85 ms
nonecudaGKOBiCGStab:  Solving for p, Initial residual = 0.101708, Final residual = 5.43961e-07, No Iterations 298
linear solve p 88327
time step continuity errors : sum local = 4.37516e-07, global = -8.19644e-21, cumulative = -2.5094e-20
[OGL LOG] init_preconditioner : 0 ms
[OGL LOG] solve : 82 ms
nonecudaGKOBiCGStab:  Solving for p, Initial residual = 0.0702058, Final residual = 2.60755e-07, No Iterations 280
linear solve p 85546
time step continuity errors : sum local = 4.49088e-07, global = 2.43736e-20, cumulative = -7.20462e-22
ExecutionTime = 2.83 s  ClockTime = 2 s

Time = 0.00888889

Courant Number mean: 0.190895 max: 0.931104
DILUPBiCGStab:  Solving for Ux, Initial residual = 0.000646468, Final residual = 9.81788e-07, No Iterations 5
DILUPBiCGStab:  Solving for Uy, Initial residual = 0.00164, Final residual = 1.63802e-06, No Iterations 5
DILUPBiCGStab:  Solving for Uz, Initial residual = 0.00475528, Final residual = 4.71063e-06, No Iterations 5
linear solve U 69514
[OGL LOG] init_preconditioner : 0 ms
[OGL LOG] solve : 81 ms
nonecudaGKOBiCGStab:  Solving for p, Initial residual = 0.0529089, Final residual = 9.64976e-07, No Iterations 283
linear solve p 84170
time step continuity errors : sum local = 4.54977e-07, global = -4.92878e-20, cumulative = -5.00082e-20
[OGL LOG] init_preconditioner : 0 ms
[OGL LOG] solve : 79 ms
nonecudaGKOBiCGStab:  Solving for p, Initial residual = 0.0384066, Final residual = 9.89795e-07, No Iterations 276
linear solve p 82527
time step continuity errors : sum local = 4.50841e-07, global = -4.62996e-20, cumulative = -9.63078e-20
ExecutionTime = 3.11 s  ClockTime = 3 s

Time = 0.0111111

Courant Number mean: 0.190873 max: 0.931033
DILUPBiCGStab:  Solving for Ux, Initial residual = 0.000314855, Final residual = 3.42958e-07, No Iterations 5
DILUPBiCGStab:  Solving for Uy, Initial residual = 0.000836298, Final residual = 8.24662e-07, No Iterations 5
DILUPBiCGStab:  Solving for Uz, Initial residual = 0.0024029, Final residual = 2.45714e-06, No Iterations 5
linear solve U 69930
[OGL LOG] init_preconditioner : 0 ms
[OGL LOG] solve : 77 ms
nonecudaGKOBiCGStab:  Solving for p, Initial residual = 0.0293903, Final residual = 9.24635e-07, No Iterations 264
linear solve p 80160
time step continuity errors : sum local = 4.48089e-07, global = -1.91102e-20, cumulative = -1.15418e-19
[OGL LOG] init_preconditioner : 0 ms
[OGL LOG] solve : 74 ms
nonecudaGKOBiCGStab:  Solving for p, Initial residual = 0.0215467, Final residual = 9.47473e-07, No Iterations 257
linear solve p 76966
time step continuity errors : sum local = 4.50123e-07, global = 2.95492e-20, cumulative = -8.58688e-20
ExecutionTime = 3.39 s  ClockTime = 3 s

Time = 0.0133333

Courant Number mean: 0.190876 max: 0.931059
DILUPBiCGStab:  Solving for Ux, Initial residual = 0.000179135, Final residual = 2.32286e-07, No Iterations 5
DILUPBiCGStab:  Solving for Uy, Initial residual = 0.000455783, Final residual = 4.20426e-07, No Iterations 5
DILUPBiCGStab:  Solving for Uz, Initial residual = 0.00138621, Final residual = 1.59154e-06, No Iterations 5
linear solve U 70003
[OGL LOG] init_preconditioner : 0 ms
[OGL LOG] solve : 69 ms
nonecudaGKOBiCGStab:  Solving for p, Initial residual = 0.0175756, Final residual = 8.80872e-07, No Iterations 237
linear solve p 71746
time step continuity errors : sum local = 4.51133e-07, global = -8.96011e-20, cumulative = -1.7547e-19
[OGL LOG] init_preconditioner : 0 ms
[OGL LOG] solve : 73 ms
nonecudaGKOBiCGStab:  Solving for p, Initial residual = 0.0130637, Final residual = 9.01308e-07, No Iterations 253
linear solve p 75931
time step continuity errors : sum local = 4.49943e-07, global = -1.01171e-20, cumulative = -1.85587e-19
ExecutionTime = 3.66 s  ClockTime = 3 s

Time = 0.0155556

Courant Number mean: 0.190871 max: 0.931023
DILUPBiCGStab:  Solving for Ux, Initial residual = 0.000107211, Final residual = 1.10729e-07, No Iterations 5
DILUPBiCGStab:  Solving for Uy, Initial residual = 0.00027767, Final residual = 2.84463e-07, No Iterations 5
DILUPBiCGStab:  Solving for Uz, Initial residual = 0.000860173, Final residual = 8.32459e-07, No Iterations 5
linear solve U 70596
[OGL LOG] init_preconditioner : 0 ms
[OGL LOG] solve : 62 ms
nonecudaGKOBiCGStab:  Solving for p, Initial residual = 0.0109128, Final residual = 9.70701e-07, No Iterations 215
linear solve p 65261
time step continuity errors : sum local = 4.50533e-07, global = 8.39634e-21, cumulative = -1.77191e-19
[OGL LOG] init_preconditioner : 0 ms
[OGL LOG] solve : 59 ms
nonecudaGKOBiCGStab:  Solving for p, Initial residual = 0.00816316, Final residual = 7.57024e-07, No Iterations 205
linear solve p 62474
time step continuity errors : sum local = 4.50124e-07, global = 5.27199e-20, cumulative = -1.24471e-19
ExecutionTime = 3.9 s  ClockTime = 4 s

Time = 0.0177778

Courant Number mean: 0.190873 max: 0.931034
DILUPBiCGStab:  Solving for Ux, Initial residual = 6.82946e-05, Final residual = 6.55628e-08, No Iterations 5
DILUPBiCGStab:  Solving for Uy, Initial residual = 0.000180147, Final residual = 1.4016e-07, No Iterations 5
DILUPBiCGStab:  Solving for Uz, Initial residual = 0.000622686, Final residual = 7.04723e-07, No Iterations 5
linear solve U 69943
[OGL LOG] init_preconditioner : 0 ms
[OGL LOG] solve : 61 ms
nonecudaGKOBiCGStab:  Solving for p, Initial residual = 0.00697032, Final residual = 9.35091e-07, No Iterations 210
linear solve p 63762
time step continuity errors : sum local = 4.50118e-07, global = 9.63339e-20, cumulative = -2.81369e-20
[OGL LOG] init_preconditioner : 0 ms
[OGL LOG] solve : 62 ms
nonecudaGKOBiCGStab:  Solving for p, Initial residual = 0.00524631, Final residual = 9.26641e-07, No Iterations 217
linear solve p 65551
time step continuity errors : sum local = 4.5011e-07, global = -1.27179e-21, cumulative = -2.94087e-20
ExecutionTime = 4.14 s  ClockTime = 4 s

Time = 0.02

Courant Number mean: 0.190873 max: 0.931017
DILUPBiCGStab:  Solving for Ux, Initial residual = 4.63693e-05, Final residual = 3.69633e-08, No Iterations 5
DILUPBiCGStab:  Solving for Uy, Initial residual = 0.000120222, Final residual = 9.84969e-08, No Iterations 5
DILUPBiCGStab:  Solving for Uz, Initial residual = 0.000446588, Final residual = 5.36023e-07, No Iterations 5
linear solve U 69424
[OGL LOG] init_preconditioner : 0 ms
[OGL LOG] solve : 68 ms
nonecudaGKOBiCGStab:  Solving for p, Initial residual = 0.00453376, Final residual = 9.80114e-07, No Iterations 230
linear solve p 71288
time step continuity errors : sum local = 4.49573e-07, global = 2.48984e-20, cumulative = -4.51033e-21
[OGL LOG] init_preconditioner : 0 ms
[OGL LOG] solve : 61 ms
nonecudaGKOBiCGStab:  Solving for p, Initial residual = 0.00342543, Final residual = 9.36611e-07, No Iterations 210
linear solve p 64493
time step continuity errors : sum local = 4.50604e-07, global = -9.00915e-21, cumulative = -1.35195e-20
ExecutionTime = 4.4 s  ClockTime = 4 s

Time = 0.0222222

Courant Number mean: 0.190876 max: 0.931023
DILUPBiCGStab:  Solving for Ux, Initial residual = 3.10832e-05, Final residual = 2.63599e-08, No Iterations 5
DILUPBiCGStab:  Solving for Uy, Initial residual = 8.61673e-05, Final residual = 6.17072e-08, No Iterations 5
DILUPBiCGStab:  Solving for Uz, Initial residual = 0.000349762, Final residual = 4.04632e-07, No Iterations 5
linear solve U 69924
[OGL LOG] init_preconditioner : 0 ms
[OGL LOG] solve : 69 ms
nonecudaGKOBiCGStab:  Solving for p, Initial residual = 0.00298209, Final residual = 4.63363e-07, No Iterations 240
linear solve p 72101
time step continuity errors : sum local = 4.4919e-07, global = 8.45693e-20, cumulative = 7.10499e-20
[OGL LOG] init_preconditioner : 0 ms
[OGL LOG] solve : 65 ms
nonecudaGKOBiCGStab:  Solving for p, Initial residual = 0.00225889, Final residual = 9.46359e-07, No Iterations 225
linear solve p 67843
time step continuity errors : sum local = 4.49534e-07, global = 5.54131e-20, cumulative = 1.26463e-19
ExecutionTime = 4.66 s  ClockTime = 4 s

End

