/*---------------------------------------------------------------------------*\
  =========                 |
  \\      /  F ield         | OpenFOAM: The Open Source CFD Toolbox
   \\    /   O peration     | Website:  https://openfoam.org
    \\  /    A nd           | Version:  8
     \\/     M anipulation  |
\*---------------------------------------------------------------------------*/
Build  : 8-ef60d22ea792
Exec   : icoFoam
Date   : Sep 11 2021
Time   : 14:42:40
Host   : "uc2n513.localdomain"
PID    : 233138
I/O    : uncollated
Case   : /pfs/data5/home/kit/scc/nq7776/data/code/OBR/lidDrivenCavity3D/Variation_init/100/Variation_mesh/60/Variation_matrix_solver/CG_NoPrecond_CUDA/1631364151
nProcs : 1
sigFpe : Enabling floating point exception trapping (FOAM_SIGFPE).
fileModificationChecking : Monitoring run-time modified files using timeStampMaster (fileModificationSkew 10)
allowSystemOperations : Allowing user-supplied system call operations

// * * * * * * * * * * * * * * * * * * * * * * * * * * * * * * * * * * * * * //
Create time

Create mesh for time = 0

Reading transportProperties

Reading field p

Reading field U

Reading/calculating face flux field phi


Starting time loop

Time = 0.00166667

Courant Number mean: 0.191334 max: 0.95794
DILUPBiCGStab:  Solving for Ux, Initial residual = 0.0784069, Final residual = 7.98028e-06, No Iterations 5
DILUPBiCGStab:  Solving for Uy, Initial residual = 0.151717, Final residual = 1.9553e-05, No Iterations 5
DILUPBiCGStab:  Solving for Uz, Initial residual = 0.170934, Final residual = 5.87202e-05, No Iterations 5
linear solve U 215402
[OGL LOG] init_host_sparsity_pattern : 62 ms
[OGL LOG] matrix not stored update host matrix
[OGL LOG] update_host_mtx : 31 ms
[OGL LOG] matrix is not yet sorted, compute sorting idxs
[OGL LOG] compute_sort : 1759 ms
[OGL LOG] matrix is not yet sorted, sorting host matrix
[OGL LOG] sort_host_mtx_sparsity_pattern : 40 ms
[OGL LOG] sort_host_mtx : 22 ms
[OGL LOG] init_preconditioner : 0 ms
[OGL LOG] solve : 173 ms
nonecudaGKOCG:  Solving for p, Initial residual = 0.575692, Final residual = 9.7214e-07, No Iterations 491
linear solve p 2842142
time step continuity errors : sum local = 1.25004e-09, global = -5.8468e-20, cumulative = -5.8468e-20
[OGL LOG] init_preconditioner : 0 ms
[OGL LOG] solve : 172 ms
nonecudaGKOCG:  Solving for p, Initial residual = 0.295463, Final residual = 9.55869e-07, No Iterations 492
linear solve p 178921
time step continuity errors : sum local = 7.74367e-10, global = -8.56604e-21, cumulative = -6.7034e-20
ExecutionTime = 4.32 s  ClockTime = 4 s

Time = 0.00333333

Courant Number mean: 0.191279 max: 0.948742
DILUPBiCGStab:  Solving for Ux, Initial residual = 0.00518961, Final residual = 4.53456e-06, No Iterations 5
DILUPBiCGStab:  Solving for Uy, Initial residual = 0.0106552, Final residual = 7.70426e-06, No Iterations 5
DILUPBiCGStab:  Solving for Uz, Initial residual = 0.0155439, Final residual = 4.40749e-05, No Iterations 5
linear solve U 197027
[OGL LOG] init_preconditioner : 0 ms
[OGL LOG] solve : 166 ms
nonecudaGKOCG:  Solving for p, Initial residual = 0.146155, Final residual = 9.96379e-07, No Iterations 481
linear solve p 172809
time step continuity errors : sum local = 3.00401e-07, global = 3.56043e-20, cumulative = -3.14298e-20
[OGL LOG] init_preconditioner : 0 ms
[OGL LOG] solve : 167 ms
nonecudaGKOCG:  Solving for p, Initial residual = 0.0785997, Final residual = 9.5367e-07, No Iterations 479
linear solve p 173835
time step continuity errors : sum local = 2.89357e-07, global = 2.34744e-20, cumulative = -7.9554e-21
ExecutionTime = 4.98 s  ClockTime = 5 s

Time = 0.005

Courant Number mean: 0.191277 max: 0.948279
DILUPBiCGStab:  Solving for Ux, Initial residual = 0.000612492, Final residual = 1.84437e-06, No Iterations 5
DILUPBiCGStab:  Solving for Uy, Initial residual = 0.00141218, Final residual = 3.7383e-06, No Iterations 5
DILUPBiCGStab:  Solving for Uz, Initial residual = 0.00368141, Final residual = 1.37661e-05, No Iterations 5
linear solve U 200726
[OGL LOG] init_preconditioner : 0 ms
[OGL LOG] solve : 160 ms
nonecudaGKOCG:  Solving for p, Initial residual = 0.057849, Final residual = 9.65425e-07, No Iterations 462
linear solve p 167521
time step continuity errors : sum local = 2.8629e-07, global = -4.73802e-21, cumulative = -1.26934e-20
[OGL LOG] init_preconditioner : 0 ms
[OGL LOG] solve : 160 ms
nonecudaGKOCG:  Solving for p, Initial residual = 0.0407986, Final residual = 9.26259e-07, No Iterations 460
linear solve p 166409
time step continuity errors : sum local = 2.87732e-07, global = 3.30626e-20, cumulative = 2.03692e-20
ExecutionTime = 5.65 s  ClockTime = 6 s

Time = 0.00666667

Courant Number mean: 0.191272 max: 0.948309
DILUPBiCGStab:  Solving for Ux, Initial residual = 0.000276778, Final residual = 8.17403e-07, No Iterations 5
DILUPBiCGStab:  Solving for Uy, Initial residual = 0.000724471, Final residual = 1.54694e-06, No Iterations 5
DILUPBiCGStab:  Solving for Uz, Initial residual = 0.00213015, Final residual = 6.08735e-06, No Iterations 5
linear solve U 196379
[OGL LOG] init_preconditioner : 0 ms
[OGL LOG] solve : 157 ms
nonecudaGKOCG:  Solving for p, Initial residual = 0.0370791, Final residual = 9.76588e-07, No Iterations 455
linear solve p 164219
time step continuity errors : sum local = 2.8836e-07, global = -1.98408e-20, cumulative = 5.28371e-22
[OGL LOG] init_preconditioner : 0 ms
[OGL LOG] solve : 156 ms
nonecudaGKOCG:  Solving for p, Initial residual = 0.0275084, Final residual = 9.55248e-07, No Iterations 450
linear solve p 163130
time step continuity errors : sum local = 2.88048e-07, global = 2.54683e-20, cumulative = 2.59967e-20
ExecutionTime = 6.29 s  ClockTime = 6 s

Time = 0.00833333

Courant Number mean: 0.191272 max: 0.948269
DILUPBiCGStab:  Solving for Ux, Initial residual = 0.000164939, Final residual = 5.37693e-07, No Iterations 5
DILUPBiCGStab:  Solving for Uy, Initial residual = 0.00045595, Final residual = 1.06008e-06, No Iterations 5
DILUPBiCGStab:  Solving for Uz, Initial residual = 0.00120507, Final residual = 3.80347e-06, No Iterations 5
linear solve U 196838
[OGL LOG] init_preconditioner : 0 ms
[OGL LOG] solve : 155 ms
nonecudaGKOCG:  Solving for p, Initial residual = 0.0256054, Final residual = 9.6948e-07, No Iterations 444
linear solve p 161860
time step continuity errors : sum local = 2.87963e-07, global = -4.47475e-20, cumulative = -1.87509e-20
[OGL LOG] init_preconditioner : 0 ms
[OGL LOG] solve : 156 ms
nonecudaGKOCG:  Solving for p, Initial residual = 0.0193284, Final residual = 9.91441e-07, No Iterations 442
linear solve p 162795
time step continuity errors : sum local = 2.87985e-07, global = -3.34491e-22, cumulative = -1.90854e-20
ExecutionTime = 6.93 s  ClockTime = 7 s

Time = 0.01

Courant Number mean: 0.191274 max: 0.948301
DILUPBiCGStab:  Solving for Ux, Initial residual = 0.000116029, Final residual = 3.15388e-07, No Iterations 5
DILUPBiCGStab:  Solving for Uy, Initial residual = 0.000325667, Final residual = 7.01357e-07, No Iterations 5
DILUPBiCGStab:  Solving for Uz, Initial residual = 0.000785359, Final residual = 2.08374e-06, No Iterations 5
linear solve U 195863
[OGL LOG] init_preconditioner : 0 ms
[OGL LOG] solve : 142 ms
nonecudaGKOCG:  Solving for p, Initial residual = 0.0183676, Final residual = 9.16743e-07, No Iterations 412
linear solve p 148777
time step continuity errors : sum local = 2.87967e-07, global = 4.3944e-23, cumulative = -1.90414e-20
[OGL LOG] init_preconditioner : 0 ms
[OGL LOG] solve : 142 ms
nonecudaGKOCG:  Solving for p, Initial residual = 0.0140929, Final residual = 9.71702e-07, No Iterations 409
linear solve p 149242
time step continuity errors : sum local = 2.87978e-07, global = -1.9733e-20, cumulative = -3.87744e-20
ExecutionTime = 7.55 s  ClockTime = 8 s

Time = 0.0116667

Courant Number mean: 0.191275 max: 0.948277
DILUPBiCGStab:  Solving for Ux, Initial residual = 8.07434e-05, Final residual = 1.87713e-07, No Iterations 5
DILUPBiCGStab:  Solving for Uy, Initial residual = 0.000231121, Final residual = 4.34704e-07, No Iterations 5
DILUPBiCGStab:  Solving for Uz, Initial residual = 0.000524499, Final residual = 1.41389e-06, No Iterations 5
linear solve U 197023
[OGL LOG] init_preconditioner : 0 ms
[OGL LOG] solve : 140 ms
nonecudaGKOCG:  Solving for p, Initial residual = 0.0133587, Final residual = 9.13582e-07, No Iterations 406
linear solve p 146780
time step continuity errors : sum local = 2.87988e-07, global = -1.9605e-20, cumulative = -5.83794e-20
[OGL LOG] init_preconditioner : 0 ms
[OGL LOG] solve : 143 ms
nonecudaGKOCG:  Solving for p, Initial residual = 0.0103248, Final residual = 9.93782e-07, No Iterations 404
linear solve p 149789
time step continuity errors : sum local = 2.87985e-07, global = -1.55596e-21, cumulative = -5.99353e-20
ExecutionTime = 8.16 s  ClockTime = 8 s

Time = 0.0133333

Courant Number mean: 0.191278 max: 0.948293
DILUPBiCGStab:  Solving for Ux, Initial residual = 6.06238e-05, Final residual = 1.13615e-07, No Iterations 5
DILUPBiCGStab:  Solving for Uy, Initial residual = 0.000170491, Final residual = 2.44714e-07, No Iterations 5
DILUPBiCGStab:  Solving for Uz, Initial residual = 0.000365084, Final residual = 9.34759e-07, No Iterations 5
linear solve U 196367
[OGL LOG] init_preconditioner : 0 ms
[OGL LOG] solve : 148 ms
nonecudaGKOCG:  Solving for p, Initial residual = 0.00984367, Final residual = 9.70292e-07, No Iterations 427
linear solve p 154925
time step continuity errors : sum local = 2.87971e-07, global = 3.21307e-20, cumulative = -2.78046e-20
[OGL LOG] init_preconditioner : 0 ms
[OGL LOG] solve : 148 ms
nonecudaGKOCG:  Solving for p, Initial residual = 0.00765613, Final residual = 9.83173e-07, No Iterations 425
linear solve p 155181
time step continuity errors : sum local = 2.87994e-07, global = 8.7857e-20, cumulative = 6.00524e-20
ExecutionTime = 8.79 s  ClockTime = 9 s

Time = 0.015

Courant Number mean: 0.19128 max: 0.94828
DILUPBiCGStab:  Solving for Ux, Initial residual = 4.43212e-05, Final residual = 6.90452e-08, No Iterations 5
DILUPBiCGStab:  Solving for Uy, Initial residual = 0.000127659, Final residual = 1.58538e-07, No Iterations 5
DILUPBiCGStab:  Solving for Uz, Initial residual = 0.000265585, Final residual = 6.18258e-07, No Iterations 5
linear solve U 195554
[OGL LOG] init_preconditioner : 0 ms
[OGL LOG] solve : 139 ms
nonecudaGKOCG:  Solving for p, Initial residual = 0.00729322, Final residual = 9.62126e-07, No Iterations 395
linear solve p 146489
time step continuity errors : sum local = 2.87995e-07, global = -1.16141e-20, cumulative = 4.84382e-20
[OGL LOG] init_preconditioner : 0 ms
[OGL LOG] solve : 136 ms
nonecudaGKOCG:  Solving for p, Initial residual = 0.00569331, Final residual = 9.59358e-07, No Iterations 393
linear solve p 143316
time step continuity errors : sum local = 2.8798e-07, global = 4.44579e-20, cumulative = 9.28961e-20
ExecutionTime = 9.4 s  ClockTime = 9 s

Time = 0.0166667

Courant Number mean: 0.191283 max: 0.948289
DILUPBiCGStab:  Solving for Ux, Initial residual = 3.41715e-05, Final residual = 4.11609e-08, No Iterations 5
DILUPBiCGStab:  Solving for Uy, Initial residual = 9.57747e-05, Final residual = 1.01596e-07, No Iterations 5
DILUPBiCGStab:  Solving for Uz, Initial residual = 0.000192643, Final residual = 4.61845e-07, No Iterations 5
linear solve U 196154
[OGL LOG] init_preconditioner : 0 ms
[OGL LOG] solve : 66 ms
nonecudaGKOCG:  Solving for p, Initial residual = 0.00543466, Final residual = 9.98036e-07, No Iterations 189
linear solve p 72514
time step continuity errors : sum local = 2.88145e-07, global = -1.62082e-20, cumulative = 7.66879e-20
[OGL LOG] init_preconditioner : 0 ms
[OGL LOG] solve : 66 ms
nonecudaGKOCG:  Solving for p, Initial residual = 0.00426012, Final residual = 9.37349e-07, No Iterations 186
linear solve p 73053
time step continuity errors : sum local = 2.8804e-07, global = 9.54265e-21, cumulative = 8.62306e-20
ExecutionTime = 9.86 s  ClockTime = 10 s

End

