/*---------------------------------------------------------------------------*\
  =========                 |
  \\      /  F ield         | OpenFOAM: The Open Source CFD Toolbox
   \\    /   O peration     | Website:  https://openfoam.org
    \\  /    A nd           | Version:  8
     \\/     M anipulation  |
\*---------------------------------------------------------------------------*/
Build  : 8-ef60d22ea792
Exec   : icoFoam
Date   : Sep 11 2021
Time   : 14:44:57
Host   : "uc2n513.localdomain"
PID    : 234229
I/O    : uncollated
Case   : /pfs/data5/home/kit/scc/nq7776/data/code/OBR/lidDrivenCavity3D/Variation_init/100/Variation_mesh/45/Variation_matrix_solver/BiCGStab_BJ_CUDA/1631364292
nProcs : 1
sigFpe : Enabling floating point exception trapping (FOAM_SIGFPE).
fileModificationChecking : Monitoring run-time modified files using timeStampMaster (fileModificationSkew 10)
allowSystemOperations : Allowing user-supplied system call operations

// * * * * * * * * * * * * * * * * * * * * * * * * * * * * * * * * * * * * * //
Create time

Create mesh for time = 0

Reading transportProperties

Reading field p

Reading field U

Reading/calculating face flux field phi


Starting time loop

Time = 0.00222222

Courant Number mean: 0.190928 max: 0.914047
DILUPBiCGStab:  Solving for Ux, Initial residual = 0.0595792, Final residual = 4.86933e-06, No Iterations 5
DILUPBiCGStab:  Solving for Uy, Initial residual = 0.0975024, Final residual = 1.18416e-05, No Iterations 5
DILUPBiCGStab:  Solving for Uz, Initial residual = 0.125234, Final residual = 3.53848e-05, No Iterations 5
linear solve U 78110
[OGL LOG] init_host_sparsity_pattern : 25 ms
[OGL LOG] matrix not stored update host matrix
[OGL LOG] update_host_mtx : 13 ms
[OGL LOG] matrix is not yet sorted, compute sorting idxs
[OGL LOG] compute_sort : 708 ms
[OGL LOG] matrix is not yet sorted, sorting host matrix
[OGL LOG] sort_host_mtx_sparsity_pattern : 16 ms
[OGL LOG] sort_host_mtx : 9 ms
[OGL LOG] init_preconditioner : 10 ms
[OGL LOG] solve : 76 ms
BJcudaGKOBiCGStab:  Solving for p, Initial residual = 0.429284, Final residual = 9.87338e-07, No Iterations 238
linear solve p 1600959
time step continuity errors : sum local = 2.21434e-09, global = -4.11634e-21, cumulative = -4.11634e-21
[OGL LOG] init_preconditioner : 0 ms
[OGL LOG] solve : 76 ms
BJcudaGKOBiCGStab:  Solving for p, Initial residual = 0.201177, Final residual = 9.48511e-07, No Iterations 240
linear solve p 79514
time step continuity errors : sum local = 1.76481e-09, global = -3.28354e-20, cumulative = -3.69517e-20
ExecutionTime = 2.24 s  ClockTime = 2 s

Time = 0.00444444

Courant Number mean: 0.190905 max: 0.929693
DILUPBiCGStab:  Solving for Ux, Initial residual = 0.00558485, Final residual = 5.75067e-06, No Iterations 5
DILUPBiCGStab:  Solving for Uy, Initial residual = 0.0107014, Final residual = 1.18893e-05, No Iterations 5
DILUPBiCGStab:  Solving for Uz, Initial residual = 0.0268362, Final residual = 2.97476e-05, No Iterations 5
linear solve U 70264
[OGL LOG] init_preconditioner : 0 ms
[OGL LOG] solve : 74 ms
BJcudaGKOBiCGStab:  Solving for p, Initial residual = 0.226312, Final residual = 9.14669e-07, No Iterations 229
linear solve p 77145
time step continuity errors : sum local = 4.85186e-07, global = -9.64194e-21, cumulative = -4.65937e-20
[OGL LOG] init_preconditioner : 0 ms
[OGL LOG] solve : 70 ms
BJcudaGKOBiCGStab:  Solving for p, Initial residual = 0.154085, Final residual = 9.91294e-07, No Iterations 221
linear solve p 73381
time step continuity errors : sum local = 4.50729e-07, global = -6.95422e-20, cumulative = -1.16136e-19
ExecutionTime = 2.5 s  ClockTime = 2 s

Time = 0.00666667

Courant Number mean: 0.190867 max: 0.930874
DILUPBiCGStab:  Solving for Ux, Initial residual = 0.00160092, Final residual = 1.96686e-06, No Iterations 5
DILUPBiCGStab:  Solving for Uy, Initial residual = 0.00403814, Final residual = 4.81446e-06, No Iterations 5
DILUPBiCGStab:  Solving for Uz, Initial residual = 0.0116698, Final residual = 1.20331e-05, No Iterations 5
linear solve U 69892
[OGL LOG] init_preconditioner : 0 ms
[OGL LOG] solve : 68 ms
BJcudaGKOBiCGStab:  Solving for p, Initial residual = 0.101698, Final residual = 8.81508e-07, No Iterations 214
linear solve p 70921
time step continuity errors : sum local = 4.37115e-07, global = 2.40992e-20, cumulative = -9.20367e-20
[OGL LOG] init_preconditioner : 0 ms
[OGL LOG] solve : 65 ms
BJcudaGKOBiCGStab:  Solving for p, Initial residual = 0.0701976, Final residual = 3.08589e-07, No Iterations 206
linear solve p 68562
time step continuity errors : sum local = 4.48748e-07, global = -8.40484e-21, cumulative = -1.00442e-19
ExecutionTime = 2.76 s  ClockTime = 3 s

Time = 0.00888889

Courant Number mean: 0.190895 max: 0.931104
DILUPBiCGStab:  Solving for Ux, Initial residual = 0.000646321, Final residual = 9.81948e-07, No Iterations 5
DILUPBiCGStab:  Solving for Uy, Initial residual = 0.00163925, Final residual = 1.63524e-06, No Iterations 5
DILUPBiCGStab:  Solving for Uz, Initial residual = 0.00473815, Final residual = 4.68478e-06, No Iterations 5
linear solve U 73232
[OGL LOG] init_preconditioner : 0 ms
[OGL LOG] solve : 69 ms
BJcudaGKOBiCGStab:  Solving for p, Initial residual = 0.0529027, Final residual = 3.94617e-07, No Iterations 216
linear solve p 71973
time step continuity errors : sum local = 4.53793e-07, global = -1.78094e-20, cumulative = -1.18251e-19
[OGL LOG] init_preconditioner : 0 ms
[OGL LOG] solve : 60 ms
BJcudaGKOBiCGStab:  Solving for p, Initial residual = 0.0384018, Final residual = 9.81673e-07, No Iterations 189
linear solve p 63483
time step continuity errors : sum local = 4.49896e-07, global = -8.16657e-20, cumulative = -1.99917e-19
ExecutionTime = 3.02 s  ClockTime = 3 s

Time = 0.0111111

Courant Number mean: 0.190874 max: 0.931033
DILUPBiCGStab:  Solving for Ux, Initial residual = 0.000313927, Final residual = 3.38325e-07, No Iterations 5
DILUPBiCGStab:  Solving for Uy, Initial residual = 0.000835556, Final residual = 8.29513e-07, No Iterations 5
DILUPBiCGStab:  Solving for Uz, Initial residual = 0.00236386, Final residual = 2.25824e-06, No Iterations 5
linear solve U 69903
[OGL LOG] init_preconditioner : 0 ms
[OGL LOG] solve : 67 ms
BJcudaGKOBiCGStab:  Solving for p, Initial residual = 0.0293721, Final residual = 8.21319e-07, No Iterations 210
linear solve p 70090
time step continuity errors : sum local = 4.47679e-07, global = 3.79756e-20, cumulative = -1.61941e-19
[OGL LOG] init_preconditioner : 0 ms
[OGL LOG] solve : 65 ms
BJcudaGKOBiCGStab:  Solving for p, Initial residual = 0.0215293, Final residual = 9.33163e-07, No Iterations 205
linear solve p 68107
time step continuity errors : sum local = 4.49357e-07, global = 1.83795e-21, cumulative = -1.60103e-19
ExecutionTime = 3.27 s  ClockTime = 3 s

Time = 0.0133333

Courant Number mean: 0.190876 max: 0.931059
DILUPBiCGStab:  Solving for Ux, Initial residual = 0.000178908, Final residual = 2.32274e-07, No Iterations 5
DILUPBiCGStab:  Solving for Uy, Initial residual = 0.000453015, Final residual = 4.17745e-07, No Iterations 5
DILUPBiCGStab:  Solving for Uz, Initial residual = 0.0013088, Final residual = 1.3072e-06, No Iterations 5
linear solve U 70586
[OGL LOG] init_preconditioner : 0 ms
[OGL LOG] solve : 63 ms
BJcudaGKOBiCGStab:  Solving for p, Initial residual = 0.0175527, Final residual = 9.72365e-07, No Iterations 197
linear solve p 66135
time step continuity errors : sum local = 4.50103e-07, global = -3.62983e-20, cumulative = -1.96401e-19
[OGL LOG] init_preconditioner : 0 ms
[OGL LOG] solve : 52 ms
BJcudaGKOBiCGStab:  Solving for p, Initial residual = 0.0130428, Final residual = 7.83539e-07, No Iterations 164
linear solve p 55553
time step continuity errors : sum local = 4.49647e-07, global = 3.95025e-21, cumulative = -1.92451e-19
ExecutionTime = 3.51 s  ClockTime = 3 s

Time = 0.0155556

Courant Number mean: 0.190871 max: 0.931023
DILUPBiCGStab:  Solving for Ux, Initial residual = 0.000106237, Final residual = 1.10411e-07, No Iterations 5
DILUPBiCGStab:  Solving for Uy, Initial residual = 0.000276561, Final residual = 2.83978e-07, No Iterations 5
DILUPBiCGStab:  Solving for Uz, Initial residual = 0.000781135, Final residual = 6.13181e-07, No Iterations 5
linear solve U 69897
[OGL LOG] init_preconditioner : 0 ms
[OGL LOG] solve : 58 ms
BJcudaGKOBiCGStab:  Solving for p, Initial residual = 0.0108877, Final residual = 8.39508e-07, No Iterations 181
linear solve p 60910
time step continuity errors : sum local = 4.49158e-07, global = 2.41619e-20, cumulative = -1.68289e-19
[OGL LOG] init_preconditioner : 0 ms
[OGL LOG] solve : 29 ms
BJcudaGKOBiCGStab:  Solving for p, Initial residual = 0.00814042, Final residual = 9.21165e-07, No Iterations 87
linear solve p 31897
time step continuity errors : sum local = 4.50678e-07, global = 1.13921e-21, cumulative = -1.6715e-19
ExecutionTime = 3.72 s  ClockTime = 4 s

Time = 0.0177778

Courant Number mean: 0.190873 max: 0.931034
DILUPBiCGStab:  Solving for Ux, Initial residual = 6.80069e-05, Final residual = 6.35578e-08, No Iterations 5
DILUPBiCGStab:  Solving for Uy, Initial residual = 0.000177368, Final residual = 1.37704e-07, No Iterations 5
DILUPBiCGStab:  Solving for Uz, Initial residual = 0.000538539, Final residual = 5.31045e-07, No Iterations 5
linear solve U 69806
[OGL LOG] init_preconditioner : 0 ms
[OGL LOG] solve : 63 ms
BJcudaGKOBiCGStab:  Solving for p, Initial residual = 0.0069489, Final residual = 9.57428e-07, No Iterations 199
linear solve p 66607
time step continuity errors : sum local = 4.49493e-07, global = 6.57436e-20, cumulative = -1.01406e-19
[OGL LOG] init_preconditioner : 0 ms
[OGL LOG] solve : 60 ms
BJcudaGKOBiCGStab:  Solving for p, Initial residual = 0.00522708, Final residual = 9.76164e-07, No Iterations 190
linear solve p 63625
time step continuity errors : sum local = 4.49422e-07, global = 3.3627e-20, cumulative = -6.77794e-20
ExecutionTime = 3.97 s  ClockTime = 4 s

Time = 0.02

Courant Number mean: 0.190873 max: 0.931017
DILUPBiCGStab:  Solving for Ux, Initial residual = 4.54163e-05, Final residual = 3.40146e-08, No Iterations 5
DILUPBiCGStab:  Solving for Uy, Initial residual = 0.000119236, Final residual = 8.99197e-08, No Iterations 5
DILUPBiCGStab:  Solving for Uz, Initial residual = 0.000368281, Final residual = 3.24725e-07, No Iterations 5
linear solve U 69859
[OGL LOG] init_preconditioner : 0 ms
[OGL LOG] solve : 63 ms
BJcudaGKOBiCGStab:  Solving for p, Initial residual = 0.00450631, Final residual = 9.75268e-07, No Iterations 197
linear solve p 65776
time step continuity errors : sum local = 4.49356e-07, global = 1.74861e-20, cumulative = -5.02932e-20
[OGL LOG] init_preconditioner : 0 ms
[OGL LOG] solve : 28 ms
BJcudaGKOBiCGStab:  Solving for p, Initial residual = 0.00339919, Final residual = 9.20242e-07, No Iterations 84
linear solve p 30810
time step continuity errors : sum local = 4.50523e-07, global = -9.66813e-21, cumulative = -5.99614e-20
ExecutionTime = 4.18 s  ClockTime = 4 s

Time = 0.0222222

Courant Number mean: 0.190876 max: 0.931023
DILUPBiCGStab:  Solving for Ux, Initial residual = 3.07547e-05, Final residual = 2.2509e-08, No Iterations 5
DILUPBiCGStab:  Solving for Uy, Initial residual = 8.30203e-05, Final residual = 4.90314e-08, No Iterations 5
DILUPBiCGStab:  Solving for Uz, Initial residual = 0.000293992, Final residual = 3.18274e-07, No Iterations 5
linear solve U 72885
[OGL LOG] init_preconditioner : 0 ms
[OGL LOG] solve : 63 ms
BJcudaGKOBiCGStab:  Solving for p, Initial residual = 0.0029626, Final residual = 8.67419e-07, No Iterations 198
linear solve p 66264
time step continuity errors : sum local = 4.49351e-07, global = -4.233e-20, cumulative = -1.02291e-19
[OGL LOG] init_preconditioner : 0 ms
[OGL LOG] solve : 66 ms
BJcudaGKOBiCGStab:  Solving for p, Initial residual = 0.00224062, Final residual = 6.56565e-07, No Iterations 207
linear solve p 69190
time step continuity errors : sum local = 4.49181e-07, global = -4.5366e-20, cumulative = -1.47657e-19
ExecutionTime = 4.44 s  ClockTime = 4 s

End

