/*---------------------------------------------------------------------------*\
  =========                 |
  \\      /  F ield         | OpenFOAM: The Open Source CFD Toolbox
   \\    /   O peration     | Website:  https://openfoam.org
    \\  /    A nd           | Version:  8
     \\/     M anipulation  |
\*---------------------------------------------------------------------------*/
Build  : 8-ef60d22ea792
Exec   : icoFoam
Date   : Sep 11 2021
Time   : 13:35:42
Host   : "uc2n442.localdomain"
PID    : 3705016
I/O    : uncollated
Case   : /pfs/data5/home/kit/scc/nq7776/data/code/OBR/lidDrivenCavity3D/Variation_init/100/Variation_mesh/5/Variation_matrix_solver/BiCGStab_NoPrecond_Serial/1631360142
nProcs : 1
sigFpe : Enabling floating point exception trapping (FOAM_SIGFPE).
fileModificationChecking : Monitoring run-time modified files using timeStampMaster (fileModificationSkew 10)
allowSystemOperations : Allowing user-supplied system call operations

// * * * * * * * * * * * * * * * * * * * * * * * * * * * * * * * * * * * * * //
Create time

Create mesh for time = 0

Reading transportProperties

Reading field p

Reading field U

Reading/calculating face flux field phi


Starting time loop

Time = 0.02

Courant Number mean: 0.165966 max: 0.393736
DILUPBiCGStab:  Solving for Ux, Initial residual = 0.257055, Final residual = 2.34833e-13, No Iterations 5
DILUPBiCGStab:  Solving for Uy, Initial residual = 0.188796, Final residual = 5.98254e-14, No Iterations 5
DILUPBiCGStab:  Solving for Uz, Initial residual = 0.171115, Final residual = 6.75568e-14, No Iterations 5
linear solve U 176
nonePBiCGStab:  Solving for p, Initial residual = 0.607222, Final residual = 7.65217e-07, No Iterations 29
linear solve p 107
time step continuity errors : sum local = 1.32426e-07, global = -7.52536e-19, cumulative = -7.52536e-19
nonePBiCGStab:  Solving for p, Initial residual = 0.279373, Final residual = 3.40727e-07, No Iterations 29
linear solve p 78
time step continuity errors : sum local = 3.06009e-08, global = -2.0395e-19, cumulative = -9.56485e-19
ExecutionTime = 0.03 s  ClockTime = 0 s

Time = 0.04

Courant Number mean: 0.153195 max: 0.395566
DILUPBiCGStab:  Solving for Ux, Initial residual = 0.069704, Final residual = 3.44946e-14, No Iterations 5
DILUPBiCGStab:  Solving for Uy, Initial residual = 0.0816975, Final residual = 4.41253e-14, No Iterations 5
DILUPBiCGStab:  Solving for Uz, Initial residual = 0.163152, Final residual = 1.83583e-13, No Iterations 5
linear solve U 100
nonePBiCGStab:  Solving for p, Initial residual = 0.204314, Final residual = 5.31432e-07, No Iterations 27
linear solve p 68
time step continuity errors : sum local = 5.15826e-08, global = -2.89844e-20, cumulative = -9.8547e-19
nonePBiCGStab:  Solving for p, Initial residual = 0.075335, Final residual = 5.14436e-07, No Iterations 25
linear solve p 65
time step continuity errors : sum local = 5.39894e-08, global = 1.03364e-19, cumulative = -8.82105e-19
ExecutionTime = 0.03 s  ClockTime = 0 s

Time = 0.06

Courant Number mean: 0.149929 max: 0.386832
DILUPBiCGStab:  Solving for Ux, Initial residual = 0.0141014, Final residual = 1.86622e-15, No Iterations 5
DILUPBiCGStab:  Solving for Uy, Initial residual = 0.0173191, Final residual = 4.10824e-15, No Iterations 5
DILUPBiCGStab:  Solving for Uz, Initial residual = 0.106777, Final residual = 9.0418e-14, No Iterations 5
linear solve U 93
nonePBiCGStab:  Solving for p, Initial residual = 0.0134466, Final residual = 7.10465e-07, No Iterations 25
linear solve p 65
time step continuity errors : sum local = 5.05237e-08, global = 5.8432e-20, cumulative = -8.23673e-19
nonePBiCGStab:  Solving for p, Initial residual = 0.0025175, Final residual = 7.3722e-07, No Iterations 22
linear solve p 58
time step continuity errors : sum local = 7.91919e-08, global = -6.23496e-19, cumulative = -1.44717e-18
ExecutionTime = 0.03 s  ClockTime = 0 s

Time = 0.08

Courant Number mean: 0.149047 max: 0.383246
DILUPBiCGStab:  Solving for Ux, Initial residual = 0.00404236, Final residual = 6.306e-16, No Iterations 5
DILUPBiCGStab:  Solving for Uy, Initial residual = 0.00513096, Final residual = 1.18934e-15, No Iterations 5
DILUPBiCGStab:  Solving for Uz, Initial residual = 0.035506, Final residual = 3.16893e-14, No Iterations 5
linear solve U 116
nonePBiCGStab:  Solving for p, Initial residual = 0.00345316, Final residual = 3.91438e-07, No Iterations 24
linear solve p 63
time step continuity errors : sum local = 4.00421e-08, global = 8.45379e-19, cumulative = -6.0179e-19
nonePBiCGStab:  Solving for p, Initial residual = 0.0013766, Final residual = 5.49293e-07, No Iterations 22
linear solve p 60
time step continuity errors : sum local = 5.35247e-08, global = -1.88677e-18, cumulative = -2.48856e-18
ExecutionTime = 0.03 s  ClockTime = 0 s

Time = 0.1

Courant Number mean: 0.148704 max: 0.381708
DILUPBiCGStab:  Solving for Ux, Initial residual = 0.00124561, Final residual = 2.74691e-16, No Iterations 5
DILUPBiCGStab:  Solving for Uy, Initial residual = 0.00166827, Final residual = 2.5477e-16, No Iterations 5
DILUPBiCGStab:  Solving for Uz, Initial residual = 0.0148632, Final residual = 8.17432e-15, No Iterations 5
linear solve U 95
nonePBiCGStab:  Solving for p, Initial residual = 0.00100395, Final residual = 4.99036e-07, No Iterations 23
linear solve p 61
time step continuity errors : sum local = 5.35043e-08, global = -9.12546e-20, cumulative = -2.57981e-18
nonePBiCGStab:  Solving for p, Initial residual = 0.000355164, Final residual = 9.76304e-07, No Iterations 20
linear solve p 57
time step continuity errors : sum local = 1.01415e-07, global = 5.02181e-20, cumulative = -2.52959e-18
ExecutionTime = 0.03 s  ClockTime = 0 s

Time = 0.12

Courant Number mean: 0.148579 max: 0.381103
DILUPBiCGStab:  Solving for Ux, Initial residual = 0.000408493, Final residual = 1.15182e-16, No Iterations 5
DILUPBiCGStab:  Solving for Uy, Initial residual = 0.000559063, Final residual = 6.74331e-17, No Iterations 5
DILUPBiCGStab:  Solving for Uz, Initial residual = 0.00593823, Final residual = 2.26923e-15, No Iterations 5
linear solve U 95
nonePBiCGStab:  Solving for p, Initial residual = 0.000390606, Final residual = 7.45158e-07, No Iterations 21
linear solve p 57
time step continuity errors : sum local = 8.00303e-08, global = -3.36629e-19, cumulative = -2.86622e-18
nonePBiCGStab:  Solving for p, Initial residual = 0.000145105, Final residual = 9.62897e-07, No Iterations 17
linear solve p 63
time step continuity errors : sum local = 1.0316e-07, global = -1.39264e-18, cumulative = -4.25886e-18
ExecutionTime = 0.04 s  ClockTime = 0 s

Time = 0.14

Courant Number mean: 0.148534 max: 0.380874
DILUPBiCGStab:  Solving for Ux, Initial residual = 0.000141089, Final residual = 4.73846e-17, No Iterations 5
DILUPBiCGStab:  Solving for Uy, Initial residual = 0.000194852, Final residual = 2.09198e-17, No Iterations 5
DILUPBiCGStab:  Solving for Uz, Initial residual = 0.00240269, Final residual = 5.78203e-16, No Iterations 5
linear solve U 100
nonePBiCGStab:  Solving for p, Initial residual = 0.000152088, Final residual = 6.26481e-07, No Iterations 10
linear solve p 38
time step continuity errors : sum local = 3.89017e-08, global = -6.20187e-19, cumulative = -4.87905e-18
nonePBiCGStab:  Solving for p, Initial residual = 5.38393e-05, Final residual = 7.87786e-07, No Iterations 8
linear solve p 34
time step continuity errors : sum local = 6.87372e-08, global = -5.89747e-19, cumulative = -5.4688e-18
ExecutionTime = 0.04 s  ClockTime = 0 s

Time = 0.16

Courant Number mean: 0.148518 max: 0.38079
DILUPBiCGStab:  Solving for Ux, Initial residual = 5.07952e-05, Final residual = 1.85647e-17, No Iterations 5
DILUPBiCGStab:  Solving for Uy, Initial residual = 7.00841e-05, Final residual = 1.5733e-17, No Iterations 5
DILUPBiCGStab:  Solving for Uz, Initial residual = 0.000981308, Final residual = 2.27564e-16, No Iterations 5
linear solve U 95
nonePBiCGStab:  Solving for p, Initial residual = 5.83084e-05, Final residual = 9.15754e-07, No Iterations 8
linear solve p 31
time step continuity errors : sum local = 5.48823e-08, global = 2.35449e-19, cumulative = -5.23335e-18
nonePBiCGStab:  Solving for p, Initial residual = 2.06459e-05, Final residual = 8.19072e-07, No Iterations 6
linear solve p 27
time step continuity errors : sum local = 5.2524e-08, global = -7.05949e-19, cumulative = -5.9393e-18
ExecutionTime = 0.04 s  ClockTime = 0 s

Time = 0.18

Courant Number mean: 0.148512 max: 0.38076
DILUPBiCGStab:  Solving for Ux, Initial residual = 1.91162e-05, Final residual = 7.98606e-18, No Iterations 5
DILUPBiCGStab:  Solving for Uy, Initial residual = 2.5936e-05, Final residual = 8.76735e-18, No Iterations 5
DILUPBiCGStab:  Solving for Uz, Initial residual = 0.000400821, Final residual = 8.65827e-17, No Iterations 5
linear solve U 92
nonePBiCGStab:  Solving for p, Initial residual = 2.21277e-05, Final residual = 9.66333e-07, No Iterations 6
linear solve p 27
time step continuity errors : sum local = 5.4076e-08, global = -1.68646e-18, cumulative = -7.62575e-18
nonePBiCGStab:  Solving for p, Initial residual = 7.58744e-06, Final residual = 9.95674e-07, No Iterations 4
linear solve p 23
time step continuity errors : sum local = 5.3992e-08, global = 2.02494e-20, cumulative = -7.6055e-18
ExecutionTime = 0.04 s  ClockTime = 0 s

Time = 0.2

Courant Number mean: 0.148511 max: 0.380749
DILUPBiCGStab:  Solving for Ux, Initial residual = 7.41354e-06, Final residual = 3.66605e-18, No Iterations 5
DILUPBiCGStab:  Solving for Uy, Initial residual = 9.84728e-06, Final residual = 4.71661e-18, No Iterations 5
DILUPBiCGStab:  Solving for Uz, Initial residual = 0.000162759, Final residual = 3.6027e-17, No Iterations 5
linear solve U 98
nonePBiCGStab:  Solving for p, Initial residual = 8.19449e-06, Final residual = 9.01958e-07, No Iterations 4
linear solve p 25
time step continuity errors : sum local = 4.89312e-08, global = -1.14078e-18, cumulative = -8.74629e-18
nonePBiCGStab:  Solving for p, Initial residual = 2.24454e-06, Final residual = 9.2861e-07, No Iterations 1
linear solve p 18
time step continuity errors : sum local = 5.12451e-08, global = 3.36696e-19, cumulative = -8.40959e-18
ExecutionTime = 0.04 s  ClockTime = 0 s

End

