/*---------------------------------------------------------------------------*\
  =========                 |
  \\      /  F ield         | OpenFOAM: The Open Source CFD Toolbox
   \\    /   O peration     | Website:  https://openfoam.org
    \\  /    A nd           | Version:  8
     \\/     M anipulation  |
\*---------------------------------------------------------------------------*/
Build  : 8-ef60d22ea792
Exec   : icoFoam
Date   : Sep 11 2021
Time   : 13:50:42
Host   : "uc2n513.localdomain"
PID    : 220689
I/O    : uncollated
Case   : /pfs/data5/home/kit/scc/nq7776/data/code/OBR/lidDrivenCavity3D/Variation_init/100/Variation_mesh/40/Variation_matrix_solver/BiCGStab_NoPrecond_CUDA/1631361038
nProcs : 1
sigFpe : Enabling floating point exception trapping (FOAM_SIGFPE).
fileModificationChecking : Monitoring run-time modified files using timeStampMaster (fileModificationSkew 10)
allowSystemOperations : Allowing user-supplied system call operations

// * * * * * * * * * * * * * * * * * * * * * * * * * * * * * * * * * * * * * //
Create time

Create mesh for time = 0

Reading transportProperties

Reading field p

Reading field U

Reading/calculating face flux field phi


Starting time loop

Time = 0.0025

Courant Number mean: 0.190855 max: 0.911003
DILUPBiCGStab:  Solving for Ux, Initial residual = 0.0769217, Final residual = 3.46977e-06, No Iterations 5
DILUPBiCGStab:  Solving for Uy, Initial residual = 0.121369, Final residual = 7.54429e-06, No Iterations 5
DILUPBiCGStab:  Solving for Uz, Initial residual = 0.12361, Final residual = 1.86097e-05, No Iterations 5
linear solve U 51817
[OGL LOG] init_host_sparsity_pattern : 16 ms
[OGL LOG] matrix not stored update host matrix
[OGL LOG] update_host_mtx : 9 ms
[OGL LOG] matrix is not yet sorted, compute sorting idxs
[OGL LOG] compute_sort : 480 ms
[OGL LOG] matrix is not yet sorted, sorting host matrix
[OGL LOG] sort_host_mtx_sparsity_pattern : 11 ms
[OGL LOG] sort_host_mtx : 6 ms
[OGL LOG] init_preconditioner : 0 ms
[OGL LOG] solve : 74 ms
nonecudaGKOBiCGStab:  Solving for p, Initial residual = 0.391661, Final residual = 9.80778e-07, No Iterations 264
linear solve p 1331890
time step continuity errors : sum local = 4.53354e-09, global = 2.79483e-20, cumulative = 2.79483e-20
[OGL LOG] init_preconditioner : 0 ms
[OGL LOG] solve : 71 ms
nonecudaGKOBiCGStab:  Solving for p, Initial residual = 0.205931, Final residual = 9.52098e-07, No Iterations 264
linear solve p 73370
time step continuity errors : sum local = 3.64513e-09, global = -1.28223e-20, cumulative = 1.5126e-20
ExecutionTime = 1.77 s  ClockTime = 2 s

Time = 0.005

Courant Number mean: 0.19083 max: 0.922157
DILUPBiCGStab:  Solving for Ux, Initial residual = 0.0057574, Final residual = 4.01798e-06, No Iterations 5
DILUPBiCGStab:  Solving for Uy, Initial residual = 0.0108112, Final residual = 8.43561e-06, No Iterations 5
DILUPBiCGStab:  Solving for Uz, Initial residual = 0.0201193, Final residual = 1.8652e-05, No Iterations 5
linear solve U 46392
[OGL LOG] init_preconditioner : 0 ms
[OGL LOG] solve : 69 ms
nonecudaGKOBiCGStab:  Solving for p, Initial residual = 0.13639, Final residual = 8.95721e-07, No Iterations 258
linear solve p 71471
time step continuity errors : sum local = 6.69585e-07, global = 6.87485e-20, cumulative = 8.38746e-20
[OGL LOG] init_preconditioner : 0 ms
[OGL LOG] solve : 68 ms
nonecudaGKOBiCGStab:  Solving for p, Initial residual = 0.0993097, Final residual = 9.82085e-07, No Iterations 254
linear solve p 70461
time step continuity errors : sum local = 6.3019e-07, global = -7.6142e-21, cumulative = 7.62604e-20
ExecutionTime = 1.99 s  ClockTime = 2 s

Time = 0.0075

Courant Number mean: 0.190722 max: 0.922357
DILUPBiCGStab:  Solving for Ux, Initial residual = 0.000900992, Final residual = 5.89911e-07, No Iterations 5
DILUPBiCGStab:  Solving for Uy, Initial residual = 0.00250252, Final residual = 1.53847e-06, No Iterations 5
DILUPBiCGStab:  Solving for Uz, Initial residual = 0.00547782, Final residual = 4.29538e-06, No Iterations 5
linear solve U 49251
[OGL LOG] init_preconditioner : 0 ms
[OGL LOG] solve : 66 ms
nonecudaGKOBiCGStab:  Solving for p, Initial residual = 0.0513383, Final residual = 6.69772e-07, No Iterations 244
linear solve p 67996
time step continuity errors : sum local = 6.16502e-07, global = 1.59718e-19, cumulative = 2.35979e-19
[OGL LOG] init_preconditioner : 0 ms
[OGL LOG] solve : 65 ms
nonecudaGKOBiCGStab:  Solving for p, Initial residual = 0.0378883, Final residual = 7.68199e-07, No Iterations 243
linear solve p 67423
time step continuity errors : sum local = 6.25922e-07, global = 2.70896e-20, cumulative = 2.63068e-19
ExecutionTime = 2.21 s  ClockTime = 2 s

Time = 0.01

Courant Number mean: 0.190705 max: 0.922533
DILUPBiCGStab:  Solving for Ux, Initial residual = 0.000355363, Final residual = 3.16579e-07, No Iterations 5
DILUPBiCGStab:  Solving for Uy, Initial residual = 0.000979562, Final residual = 6.06485e-07, No Iterations 5
DILUPBiCGStab:  Solving for Uz, Initial residual = 0.00281333, Final residual = 1.70813e-06, No Iterations 5
linear solve U 46129
[OGL LOG] init_preconditioner : 0 ms
[OGL LOG] solve : 62 ms
nonecudaGKOBiCGStab:  Solving for p, Initial residual = 0.027301, Final residual = 8.61231e-07, No Iterations 229
linear solve p 63954
time step continuity errors : sum local = 6.30242e-07, global = -4.08028e-20, cumulative = 2.22265e-19
[OGL LOG] init_preconditioner : 0 ms
[OGL LOG] solve : 60 ms
nonecudaGKOBiCGStab:  Solving for p, Initial residual = 0.0205837, Final residual = 9.72677e-07, No Iterations 222
linear solve p 62047
time step continuity errors : sum local = 6.27971e-07, global = -9.54665e-20, cumulative = 1.26799e-19
ExecutionTime = 2.41 s  ClockTime = 2 s

Time = 0.0125

Courant Number mean: 0.190674 max: 0.922421
DILUPBiCGStab:  Solving for Ux, Initial residual = 0.000167953, Final residual = 1.02946e-07, No Iterations 5
DILUPBiCGStab:  Solving for Uy, Initial residual = 0.00052761, Final residual = 2.43986e-07, No Iterations 5
DILUPBiCGStab:  Solving for Uz, Initial residual = 0.00125629, Final residual = 7.72837e-07, No Iterations 5
linear solve U 46988
[OGL LOG] init_preconditioner : 0 ms
[OGL LOG] solve : 62 ms
nonecudaGKOBiCGStab:  Solving for p, Initial residual = 0.0157168, Final residual = 9.23841e-07, No Iterations 231
linear solve p 64538
time step continuity errors : sum local = 6.25495e-07, global = 3.4725e-20, cumulative = 1.61524e-19
[OGL LOG] init_preconditioner : 0 ms
[OGL LOG] solve : 54 ms
nonecudaGKOBiCGStab:  Solving for p, Initial residual = 0.011838, Final residual = 9.71273e-07, No Iterations 200
linear solve p 56168
time step continuity errors : sum local = 6.27017e-07, global = -1.82704e-20, cumulative = 1.43254e-19
ExecutionTime = 2.62 s  ClockTime = 3 s

Time = 0.015

Courant Number mean: 0.190664 max: 0.922459
DILUPBiCGStab:  Solving for Ux, Initial residual = 0.000103836, Final residual = 6.87419e-08, No Iterations 5
DILUPBiCGStab:  Solving for Uy, Initial residual = 0.000303573, Final residual = 1.30175e-07, No Iterations 5
DILUPBiCGStab:  Solving for Uz, Initial residual = 0.000831937, Final residual = 5.65585e-07, No Iterations 5
linear solve U 46028
[OGL LOG] init_preconditioner : 0 ms
[OGL LOG] solve : 55 ms
nonecudaGKOBiCGStab:  Solving for p, Initial residual = 0.00954745, Final residual = 7.38669e-07, No Iterations 203
linear solve p 56947
time step continuity errors : sum local = 6.26981e-07, global = -1.11866e-20, cumulative = 1.32067e-19
[OGL LOG] init_preconditioner : 0 ms
[OGL LOG] solve : 52 ms
nonecudaGKOBiCGStab:  Solving for p, Initial residual = 0.00721951, Final residual = 9.89288e-07, No Iterations 191
linear solve p 53842
time step continuity errors : sum local = 6.27645e-07, global = 3.23578e-20, cumulative = 1.64425e-19
ExecutionTime = 2.81 s  ClockTime = 3 s

Time = 0.0175

Courant Number mean: 0.190653 max: 0.922415
DILUPBiCGStab:  Solving for Ux, Initial residual = 6.42697e-05, Final residual = 4.21707e-08, No Iterations 5
DILUPBiCGStab:  Solving for Uy, Initial residual = 0.000187528, Final residual = 6.26938e-08, No Iterations 5
DILUPBiCGStab:  Solving for Uz, Initial residual = 0.000550488, Final residual = 4.09124e-07, No Iterations 5
linear solve U 46095
[OGL LOG] init_preconditioner : 0 ms
[OGL LOG] solve : 50 ms
nonecudaGKOBiCGStab:  Solving for p, Initial residual = 0.00591969, Final residual = 9.8478e-07, No Iterations 185
linear solve p 52400
time step continuity errors : sum local = 6.27476e-07, global = 7.27464e-20, cumulative = 2.37171e-19
[OGL LOG] init_preconditioner : 0 ms
[OGL LOG] solve : 49 ms
nonecudaGKOBiCGStab:  Solving for p, Initial residual = 0.0044766, Final residual = 9.83918e-07, No Iterations 181
linear solve p 51180
time step continuity errors : sum local = 6.27849e-07, global = 3.82054e-22, cumulative = 2.37553e-19
ExecutionTime = 2.99 s  ClockTime = 3 s

Time = 0.02

Courant Number mean: 0.190649 max: 0.922428
DILUPBiCGStab:  Solving for Ux, Initial residual = 4.3448e-05, Final residual = 2.62443e-08, No Iterations 5
DILUPBiCGStab:  Solving for Uy, Initial residual = 0.000125907, Final residual = 4.69168e-08, No Iterations 5
DILUPBiCGStab:  Solving for Uz, Initial residual = 0.000424563, Final residual = 3.56051e-07, No Iterations 5
linear solve U 46248
[OGL LOG] init_preconditioner : 0 ms
[OGL LOG] solve : 58 ms
nonecudaGKOBiCGStab:  Solving for p, Initial residual = 0.00374731, Final residual = 9.99575e-07, No Iterations 215
linear solve p 60093
time step continuity errors : sum local = 6.26431e-07, global = 1.89735e-20, cumulative = 2.56527e-19
[OGL LOG] init_preconditioner : 0 ms
[OGL LOG] solve : 59 ms
nonecudaGKOBiCGStab:  Solving for p, Initial residual = 0.00283577, Final residual = 9.97576e-07, No Iterations 218
linear solve p 60833
time step continuity errors : sum local = 6.26457e-07, global = 1.35332e-20, cumulative = 2.7006e-19
ExecutionTime = 3.19 s  ClockTime = 3 s

Time = 0.0225

Courant Number mean: 0.190645 max: 0.922409
DILUPBiCGStab:  Solving for Ux, Initial residual = 3.02912e-05, Final residual = 1.68035e-08, No Iterations 5
DILUPBiCGStab:  Solving for Uy, Initial residual = 7.96572e-05, Final residual = 2.68938e-08, No Iterations 5
DILUPBiCGStab:  Solving for Uz, Initial residual = 0.000316326, Final residual = 2.48775e-07, No Iterations 5
linear solve U 45871
[OGL LOG] init_preconditioner : 0 ms
[OGL LOG] solve : 54 ms
nonecudaGKOBiCGStab:  Solving for p, Initial residual = 0.00236583, Final residual = 9.94935e-07, No Iterations 198
linear solve p 55914
time step continuity errors : sum local = 6.26579e-07, global = 6.09219e-21, cumulative = 2.76152e-19
[OGL LOG] init_preconditioner : 0 ms
[OGL LOG] solve : 43 ms
nonecudaGKOBiCGStab:  Solving for p, Initial residual = 0.0017872, Final residual = 9.99025e-07, No Iterations 151
linear solve p 45041
time step continuity errors : sum local = 6.27902e-07, global = 1.19306e-19, cumulative = 3.95458e-19
ExecutionTime = 3.36 s  ClockTime = 3 s

Time = 0.025

Courant Number mean: 0.190644 max: 0.922414
DILUPBiCGStab:  Solving for Ux, Initial residual = 2.10069e-05, Final residual = 1.353e-08, No Iterations 5
DILUPBiCGStab:  Solving for Uy, Initial residual = 5.67814e-05, Final residual = 2.401e-08, No Iterations 5
DILUPBiCGStab:  Solving for Uz, Initial residual = 0.000246414, Final residual = 2.301e-07, No Iterations 5
linear solve U 46599
[OGL LOG] init_preconditioner : 0 ms
[OGL LOG] solve : 46 ms
nonecudaGKOBiCGStab:  Solving for p, Initial residual = 0.00151988, Final residual = 8.94796e-07, No Iterations 171
linear solve p 48472
time step continuity errors : sum local = 6.27589e-07, global = -9.82691e-21, cumulative = 3.85631e-19
[OGL LOG] init_preconditioner : 0 ms
[OGL LOG] solve : 44 ms
nonecudaGKOBiCGStab:  Solving for p, Initial residual = 0.00114978, Final residual = 9.92504e-07, No Iterations 163
linear solve p 46440
time step continuity errors : sum local = 6.27966e-07, global = -7.97485e-20, cumulative = 3.05883e-19
ExecutionTime = 3.54 s  ClockTime = 3 s

End

