/*---------------------------------------------------------------------------*\
  =========                 |
  \\      /  F ield         | OpenFOAM: The Open Source CFD Toolbox
   \\    /   O peration     | Website:  https://openfoam.org
    \\  /    A nd           | Version:  8
     \\/     M anipulation  |
\*---------------------------------------------------------------------------*/
Build  : 8-ef60d22ea792
Exec   : icoFoam
Date   : Sep 11 2021
Time   : 14:16:23
Host   : "uc2n442.localdomain"
PID    : 3720852
I/O    : uncollated
Case   : /pfs/data5/home/kit/scc/nq7776/data/code/OBR/lidDrivenCavity3D/Variation_init/100/Variation_mesh/70/Variation_matrix_solver/BiCGStab_NoPrecond_Serial/1631362562
nProcs : 1
sigFpe : Enabling floating point exception trapping (FOAM_SIGFPE).
fileModificationChecking : Monitoring run-time modified files using timeStampMaster (fileModificationSkew 10)
allowSystemOperations : Allowing user-supplied system call operations

// * * * * * * * * * * * * * * * * * * * * * * * * * * * * * * * * * * * * * //
Create time

Create mesh for time = 0

Reading transportProperties

Reading field p

Reading field U

Reading/calculating face flux field phi


Starting time loop

Time = 0.00142857

Courant Number mean: 0.191369 max: 0.960255
DILUPBiCGStab:  Solving for Ux, Initial residual = 0.123219, Final residual = 1.08625e-05, No Iterations 5
DILUPBiCGStab:  Solving for Uy, Initial residual = 0.236374, Final residual = 2.69981e-05, No Iterations 5
DILUPBiCGStab:  Solving for Uz, Initial residual = 0.30937, Final residual = 0.000142646, No Iterations 5
linear solve U 336763
nonePBiCGStab:  Solving for p, Initial residual = 0.562471, Final residual = 8.60967e-07, No Iterations 449
linear solve p 4041790
time step continuity errors : sum local = 2.00247e-09, global = 1.7788e-20, cumulative = 1.7788e-20
nonePBiCGStab:  Solving for p, Initial residual = 0.247874, Final residual = 6.62813e-07, No Iterations 459
linear solve p 4048830
time step continuity errors : sum local = 8.32825e-10, global = -2.29616e-20, cumulative = -5.1736e-21
ExecutionTime = 10.21 s  ClockTime = 10 s

Time = 0.00285714

Courant Number mean: 0.191442 max: 0.955464
DILUPBiCGStab:  Solving for Ux, Initial residual = 0.00494501, Final residual = 1.87751e-05, No Iterations 5
DILUPBiCGStab:  Solving for Uy, Initial residual = 0.0102623, Final residual = 3.24966e-05, No Iterations 5
DILUPBiCGStab:  Solving for Uz, Initial residual = 0.0334394, Final residual = 0.000126441, No Iterations 5
linear solve U 321334
nonePBiCGStab:  Solving for p, Initial residual = 0.235879, Final residual = 6.94639e-07, No Iterations 461
linear solve p 4067099
time step continuity errors : sum local = 9.55189e-10, global = 3.61473e-21, cumulative = -1.55887e-21
nonePBiCGStab:  Solving for p, Initial residual = 0.161731, Final residual = 7.17183e-07, No Iterations 467
linear solve p 4115261
time step continuity errors : sum local = 9.5912e-10, global = 7.56227e-21, cumulative = 6.0034e-21
ExecutionTime = 18.87 s  ClockTime = 19 s

Time = 0.00428571

Courant Number mean: 0.19146 max: 0.955931
DILUPBiCGStab:  Solving for Ux, Initial residual = 0.00112562, Final residual = 4.28048e-06, No Iterations 5
DILUPBiCGStab:  Solving for Uy, Initial residual = 0.0029286, Final residual = 9.9975e-06, No Iterations 5
DILUPBiCGStab:  Solving for Uz, Initial residual = 0.0150077, Final residual = 6.86232e-05, No Iterations 5
linear solve U 316108
nonePBiCGStab:  Solving for p, Initial residual = 0.144166, Final residual = 2.42204e-07, No Iterations 430
linear solve p 3772636
time step continuity errors : sum local = 2.84488e-10, global = 2.80848e-20, cumulative = 3.40882e-20
nonePBiCGStab:  Solving for p, Initial residual = 0.103432, Final residual = 9.85403e-07, No Iterations 470
linear solve p 4123275
time step continuity errors : sum local = 7.08583e-10, global = 3.68777e-20, cumulative = 7.09659e-20
ExecutionTime = 27.24 s  ClockTime = 28 s

Time = 0.00571429

Courant Number mean: 0.191438 max: 0.955696
DILUPBiCGStab:  Solving for Ux, Initial residual = 0.000669437, Final residual = 1.44402e-06, No Iterations 5
DILUPBiCGStab:  Solving for Uy, Initial residual = 0.00178464, Final residual = 4.61702e-06, No Iterations 5
DILUPBiCGStab:  Solving for Uz, Initial residual = 0.00729182, Final residual = 3.14545e-05, No Iterations 5
linear solve U 312152
nonePBiCGStab:  Solving for p, Initial residual = 0.100044, Final residual = 5.27849e-07, No Iterations 440
linear solve p 3875209
time step continuity errors : sum local = 3.65955e-10, global = -1.27291e-21, cumulative = 6.9693e-20
nonePBiCGStab:  Solving for p, Initial residual = 0.0728933, Final residual = 2.87441e-07, No Iterations 439
linear solve p 3852089
time step continuity errors : sum local = 2.39346e-10, global = -1.95042e-20, cumulative = 5.01889e-20
ExecutionTime = 35.43 s  ClockTime = 36 s

Time = 0.00714286

Courant Number mean: 0.191433 max: 0.95573
DILUPBiCGStab:  Solving for Ux, Initial residual = 0.000437729, Final residual = 1.30942e-06, No Iterations 5
DILUPBiCGStab:  Solving for Uy, Initial residual = 0.00118043, Final residual = 2.93973e-06, No Iterations 5
DILUPBiCGStab:  Solving for Uz, Initial residual = 0.00456402, Final residual = 1.66774e-05, No Iterations 5
linear solve U 312689
nonePBiCGStab:  Solving for p, Initial residual = 0.0697812, Final residual = 5.96393e-07, No Iterations 421
linear solve p 3710740
time step continuity errors : sum local = 4.23169e-10, global = 8.06241e-21, cumulative = 5.82513e-20
nonePBiCGStab:  Solving for p, Initial residual = 0.0506584, Final residual = 5.69357e-07, No Iterations 436
linear solve p 3824252
time step continuity errors : sum local = 4.08096e-10, global = -3.05989e-21, cumulative = 5.51914e-20
ExecutionTime = 43.43 s  ClockTime = 44 s

Time = 0.00857143

Courant Number mean: 0.191428 max: 0.9557
DILUPBiCGStab:  Solving for Ux, Initial residual = 0.000300557, Final residual = 8.31459e-07, No Iterations 5
DILUPBiCGStab:  Solving for Uy, Initial residual = 0.000805249, Final residual = 1.83954e-06, No Iterations 5
DILUPBiCGStab:  Solving for Uz, Initial residual = 0.00288325, Final residual = 9.12873e-06, No Iterations 5
linear solve U 312228
nonePBiCGStab:  Solving for p, Initial residual = 0.0503153, Final residual = 6.30898e-07, No Iterations 354
linear solve p 3157770
time step continuity errors : sum local = 4.68435e-10, global = 8.60641e-21, cumulative = 6.37978e-20
nonePBiCGStab:  Solving for p, Initial residual = 0.0367829, Final residual = 7.84297e-07, No Iterations 364
linear solve p 3201569
time step continuity errors : sum local = 9.20783e-10, global = 1.82578e-20, cumulative = 8.20556e-20
ExecutionTime = 50.26 s  ClockTime = 51 s

Time = 0.01

Courant Number mean: 0.191426 max: 0.955692
DILUPBiCGStab:  Solving for Ux, Initial residual = 0.000210484, Final residual = 6.70703e-07, No Iterations 5
DILUPBiCGStab:  Solving for Uy, Initial residual = 0.000564282, Final residual = 1.22955e-06, No Iterations 5
DILUPBiCGStab:  Solving for Uz, Initial residual = 0.00200259, Final residual = 6.40521e-06, No Iterations 5
linear solve U 317303
nonePBiCGStab:  Solving for p, Initial residual = 0.0362979, Final residual = 9.84148e-07, No Iterations 343
linear solve p 2991524
time step continuity errors : sum local = 7.51291e-10, global = 1.43742e-20, cumulative = 9.64298e-20
nonePBiCGStab:  Solving for p, Initial residual = 0.0265963, Final residual = 8.95738e-07, No Iterations 345
linear solve p 3021780
time step continuity errors : sum local = 1.04918e-09, global = -2.24552e-20, cumulative = 7.39747e-20
ExecutionTime = 56.76 s  ClockTime = 57 s

Time = 0.0114286

Courant Number mean: 0.191426 max: 0.955688
DILUPBiCGStab:  Solving for Ux, Initial residual = 0.000149191, Final residual = 4.35135e-07, No Iterations 5
DILUPBiCGStab:  Solving for Uy, Initial residual = 0.000404207, Final residual = 7.80661e-07, No Iterations 5
DILUPBiCGStab:  Solving for Uz, Initial residual = 0.00141848, Final residual = 4.18427e-06, No Iterations 5
linear solve U 314885
nonePBiCGStab:  Solving for p, Initial residual = 0.0267001, Final residual = 8.32885e-07, No Iterations 421
linear solve p 3698481
time step continuity errors : sum local = 4.97987e-10, global = 7.97351e-21, cumulative = 8.19482e-20
nonePBiCGStab:  Solving for p, Initial residual = 0.019691, Final residual = 7.45204e-07, No Iterations 362
linear solve p 3189462
time step continuity errors : sum local = 8.63236e-10, global = -1.20908e-20, cumulative = 6.98574e-20
ExecutionTime = 64.12 s  ClockTime = 65 s

Time = 0.0128571

Courant Number mean: 0.191427 max: 0.955681
DILUPBiCGStab:  Solving for Ux, Initial residual = 0.000108225, Final residual = 2.91748e-07, No Iterations 5
DILUPBiCGStab:  Solving for Uy, Initial residual = 0.000295301, Final residual = 5.54704e-07, No Iterations 5
DILUPBiCGStab:  Solving for Uz, Initial residual = 0.00107802, Final residual = 3.95395e-06, No Iterations 5
linear solve U 317183
nonePBiCGStab:  Solving for p, Initial residual = 0.0197019, Final residual = 9.91711e-07, No Iterations 385
linear solve p 3376220
time step continuity errors : sum local = 6.01917e-10, global = -1.29087e-20, cumulative = 5.69487e-20
nonePBiCGStab:  Solving for p, Initial residual = 0.0145995, Final residual = 8.34796e-07, No Iterations 343
linear solve p 3024543
time step continuity errors : sum local = 9.65758e-10, global = 2.73816e-20, cumulative = 8.43303e-20
ExecutionTime = 71 s  ClockTime = 71 s

Time = 0.0142857

Courant Number mean: 0.191429 max: 0.955681
DILUPBiCGStab:  Solving for Ux, Initial residual = 7.82027e-05, Final residual = 1.77258e-07, No Iterations 5
DILUPBiCGStab:  Solving for Uy, Initial residual = 0.000218529, Final residual = 4.06615e-07, No Iterations 5
DILUPBiCGStab:  Solving for Uz, Initial residual = 0.000798223, Final residual = 2.4129e-06, No Iterations 5
linear solve U 318374
nonePBiCGStab:  Solving for p, Initial residual = 0.0147182, Final residual = 9.46329e-07, No Iterations 424
linear solve p 3723306
time step continuity errors : sum local = 5.56563e-10, global = 1.17116e-20, cumulative = 9.60419e-20
nonePBiCGStab:  Solving for p, Initial residual = 0.0109662, Final residual = 9.84592e-07, No Iterations 384
linear solve p 3382783
time step continuity errors : sum local = 6.2698e-10, global = 3.24478e-20, cumulative = 1.2849e-19
ExecutionTime = 78.58 s  ClockTime = 79 s

End

