/*---------------------------------------------------------------------------*\
  =========                 |
  \\      /  F ield         | OpenFOAM: The Open Source CFD Toolbox
   \\    /   O peration     | Website:  https://openfoam.org
    \\  /    A nd           | Version:  8
     \\/     M anipulation  |
\*---------------------------------------------------------------------------*/
Build  : 8-ef60d22ea792
Exec   : icoFoam
Date   : Sep 11 2021
Time   : 13:57:27
Host   : "uc2n442.localdomain"
PID    : 3719148
I/O    : uncollated
Case   : /pfs/data5/home/kit/scc/nq7776/data/code/OBR/lidDrivenCavity3D/Variation_init/100/Variation_mesh/65/Variation_matrix_solver/CG_NoPrecond_Serial/1631361437
nProcs : 1
sigFpe : Enabling floating point exception trapping (FOAM_SIGFPE).
fileModificationChecking : Monitoring run-time modified files using timeStampMaster (fileModificationSkew 10)
allowSystemOperations : Allowing user-supplied system call operations

// * * * * * * * * * * * * * * * * * * * * * * * * * * * * * * * * * * * * * //
Create time

Create mesh for time = 0

Reading transportProperties

Reading field p

Reading field U

Reading/calculating face flux field phi


Starting time loop

Time = 0.00153846

Courant Number mean: 0.191448 max: 0.959317
DILUPBiCGStab:  Solving for Ux, Initial residual = 0.112017, Final residual = 1.40856e-05, No Iterations 5
DILUPBiCGStab:  Solving for Uy, Initial residual = 0.209721, Final residual = 3.34999e-05, No Iterations 5
DILUPBiCGStab:  Solving for Uz, Initial residual = 0.253067, Final residual = 9.19753e-05, No Iterations 5
linear solve U 257617
nonePCG:  Solving for p, Initial residual = 0.548046, Final residual = 9.58797e-07, No Iterations 531
linear solve p 1643584
time step continuity errors : sum local = 1.25841e-09, global = 8.48877e-21, cumulative = 8.48877e-21
nonePCG:  Solving for p, Initial residual = 0.305311, Final residual = 9.83896e-07, No Iterations 532
linear solve p 1637906
time step continuity errors : sum local = 7.75273e-10, global = 1.93035e-20, cumulative = 2.77923e-20
ExecutionTime = 4.91 s  ClockTime = 5 s

Time = 0.00307692

Courant Number mean: 0.191613 max: 0.952625
DILUPBiCGStab:  Solving for Ux, Initial residual = 0.0053039, Final residual = 1.96335e-05, No Iterations 5
DILUPBiCGStab:  Solving for Uy, Initial residual = 0.01073, Final residual = 3.73437e-05, No Iterations 5
DILUPBiCGStab:  Solving for Uz, Initial residual = 0.0235182, Final residual = 8.30297e-05, No Iterations 5
linear solve U 235038
nonePCG:  Solving for p, Initial residual = 0.241046, Final residual = 9.06589e-07, No Iterations 534
linear solve p 1641282
time step continuity errors : sum local = 7.25882e-10, global = 5.22625e-20, cumulative = 8.00548e-20
nonePCG:  Solving for p, Initial residual = 0.201177, Final residual = 9.71615e-07, No Iterations 531
linear solve p 1634949
time step continuity errors : sum local = 7.68093e-10, global = -1.14645e-20, cumulative = 6.85903e-20
ExecutionTime = 8.56 s  ClockTime = 9 s

Time = 0.00461538

Courant Number mean: 0.191576 max: 0.952768
DILUPBiCGStab:  Solving for Ux, Initial residual = 0.00149169, Final residual = 7.50711e-06, No Iterations 5
DILUPBiCGStab:  Solving for Uy, Initial residual = 0.00378367, Final residual = 1.5608e-05, No Iterations 5
DILUPBiCGStab:  Solving for Uz, Initial residual = 0.012365, Final residual = 4.51094e-05, No Iterations 5
linear solve U 233678
nonePCG:  Solving for p, Initial residual = 0.153273, Final residual = 9.41033e-07, No Iterations 527
linear solve p 1614700
time step continuity errors : sum local = 7.04515e-10, global = 5.43372e-22, cumulative = 6.91336e-20
nonePCG:  Solving for p, Initial residual = 0.127108, Final residual = 9.71077e-07, No Iterations 524
linear solve p 1605584
time step continuity errors : sum local = 7.28239e-10, global = 1.13546e-20, cumulative = 8.04882e-20
ExecutionTime = 12.15 s  ClockTime = 12 s

Time = 0.00615385

Courant Number mean: 0.191478 max: 0.952387
DILUPBiCGStab:  Solving for Ux, Initial residual = 0.000808, Final residual = 2.32836e-06, No Iterations 5
DILUPBiCGStab:  Solving for Uy, Initial residual = 0.00210968, Final residual = 5.15632e-06, No Iterations 5
DILUPBiCGStab:  Solving for Uz, Initial residual = 0.00658318, Final residual = 2.21995e-05, No Iterations 5
linear solve U 235715
nonePCG:  Solving for p, Initial residual = 0.105576, Final residual = 9.75838e-07, No Iterations 519
linear solve p 1602333
time step continuity errors : sum local = 6.95076e-10, global = -2.94355e-20, cumulative = 5.10527e-20
nonePCG:  Solving for p, Initial residual = 0.0876463, Final residual = 9.87295e-07, No Iterations 517
linear solve p 1597034
time step continuity errors : sum local = 6.99327e-10, global = -5.42716e-20, cumulative = -3.21889e-21
ExecutionTime = 15.73 s  ClockTime = 16 s

Time = 0.00769231

Courant Number mean: 0.191453 max: 0.952328
DILUPBiCGStab:  Solving for Ux, Initial residual = 0.000487475, Final residual = 1.86519e-06, No Iterations 5
DILUPBiCGStab:  Solving for Uy, Initial residual = 0.00134197, Final residual = 3.68877e-06, No Iterations 5
DILUPBiCGStab:  Solving for Uz, Initial residual = 0.00447375, Final residual = 1.41921e-05, No Iterations 5
linear solve U 233666
nonePCG:  Solving for p, Initial residual = 0.0741732, Final residual = 9.32044e-07, No Iterations 514
linear solve p 1588633
time step continuity errors : sum local = 6.50885e-10, global = -2.8774e-21, cumulative = -6.09629e-21
nonePCG:  Solving for p, Initial residual = 0.0610318, Final residual = 9.46788e-07, No Iterations 512
linear solve p 1574673
time step continuity errors : sum local = 6.61835e-10, global = 3.81414e-20, cumulative = 3.20451e-20
ExecutionTime = 19.26 s  ClockTime = 19 s

Time = 0.00923077

Courant Number mean: 0.191423 max: 0.952341
DILUPBiCGStab:  Solving for Ux, Initial residual = 0.000315145, Final residual = 8.37663e-07, No Iterations 5
DILUPBiCGStab:  Solving for Uy, Initial residual = 0.000910671, Final residual = 1.52759e-06, No Iterations 5
DILUPBiCGStab:  Solving for Uz, Initial residual = 0.00284647, Final residual = 7.06529e-06, No Iterations 5
linear solve U 235317
nonePCG:  Solving for p, Initial residual = 0.0537584, Final residual = 9.49527e-07, No Iterations 502
linear solve p 1555331
time step continuity errors : sum local = 6.49672e-10, global = 6.264e-21, cumulative = 3.83091e-20
nonePCG:  Solving for p, Initial residual = 0.0442802, Final residual = 9.223e-07, No Iterations 500
linear solve p 1542484
time step continuity errors : sum local = 6.29898e-10, global = 1.54406e-20, cumulative = 5.37497e-20
ExecutionTime = 22.74 s  ClockTime = 23 s

Time = 0.0107692

Courant Number mean: 0.191411 max: 0.952275
DILUPBiCGStab:  Solving for Ux, Initial residual = 0.000217877, Final residual = 6.99898e-07, No Iterations 5
DILUPBiCGStab:  Solving for Uy, Initial residual = 0.000649809, Final residual = 1.09459e-06, No Iterations 5
DILUPBiCGStab:  Solving for Uz, Initial residual = 0.00207171, Final residual = 5.60209e-06, No Iterations 5
linear solve U 232892
nonePCG:  Solving for p, Initial residual = 0.0392466, Final residual = 9.90677e-07, No Iterations 494
linear solve p 1522730
time step continuity errors : sum local = 6.72441e-10, global = -5.20937e-21, cumulative = 4.85403e-20
nonePCG:  Solving for p, Initial residual = 0.032187, Final residual = 9.89088e-07, No Iterations 492
linear solve p 1525539
time step continuity errors : sum local = 6.71565e-10, global = 3.17694e-20, cumulative = 8.03096e-20
ExecutionTime = 26.16 s  ClockTime = 26 s

Time = 0.0123077

Courant Number mean: 0.1914 max: 0.9523
DILUPBiCGStab:  Solving for Ux, Initial residual = 0.000149853, Final residual = 4.20693e-07, No Iterations 5
DILUPBiCGStab:  Solving for Uy, Initial residual = 0.000472351, Final residual = 7.00304e-07, No Iterations 5
DILUPBiCGStab:  Solving for Uz, Initial residual = 0.00139443, Final residual = 2.74044e-06, No Iterations 5
linear solve U 233337
nonePCG:  Solving for p, Initial residual = 0.0290838, Final residual = 9.72543e-07, No Iterations 481
linear solve p 1481722
time step continuity errors : sum local = 6.54156e-10, global = -1.45875e-20, cumulative = 6.57222e-20
nonePCG:  Solving for p, Initial residual = 0.0238252, Final residual = 9.95159e-07, No Iterations 479
linear solve p 1477396
time step continuity errors : sum local = 6.68989e-10, global = -3.25801e-20, cumulative = 3.31421e-20
ExecutionTime = 29.49 s  ClockTime = 30 s

Time = 0.0138462

Courant Number mean: 0.191394 max: 0.952267
DILUPBiCGStab:  Solving for Ux, Initial residual = 0.00010834, Final residual = 3.18387e-07, No Iterations 5
DILUPBiCGStab:  Solving for Uy, Initial residual = 0.000353243, Final residual = 4.52968e-07, No Iterations 5
DILUPBiCGStab:  Solving for Uz, Initial residual = 0.00103098, Final residual = 2.54227e-06, No Iterations 5
linear solve U 235306
nonePCG:  Solving for p, Initial residual = 0.0216376, Final residual = 9.62844e-07, No Iterations 469
linear solve p 1437962
time step continuity errors : sum local = 6.45019e-10, global = -2.80088e-21, cumulative = 3.03412e-20
nonePCG:  Solving for p, Initial residual = 0.0176872, Final residual = 9.30839e-07, No Iterations 468
linear solve p 1437142
time step continuity errors : sum local = 6.23642e-10, global = 6.66298e-22, cumulative = 3.10075e-20
ExecutionTime = 32.75 s  ClockTime = 33 s

Time = 0.0153846

Courant Number mean: 0.191389 max: 0.952281
DILUPBiCGStab:  Solving for Ux, Initial residual = 7.69054e-05, Final residual = 2.1314e-07, No Iterations 5
DILUPBiCGStab:  Solving for Uy, Initial residual = 0.000261872, Final residual = 3.53199e-07, No Iterations 5
DILUPBiCGStab:  Solving for Uz, Initial residual = 0.000722548, Final residual = 1.57862e-06, No Iterations 5
linear solve U 235237
nonePCG:  Solving for p, Initial residual = 0.016235, Final residual = 9.86272e-07, No Iterations 429
linear solve p 1326126
time step continuity errors : sum local = 6.57694e-10, global = -2.09744e-20, cumulative = 1.00331e-20
nonePCG:  Solving for p, Initial residual = 0.0132553, Final residual = 9.99433e-07, No Iterations 231
linear solve p 715495
time step continuity errors : sum local = 8.14323e-10, global = -1.44944e-20, cumulative = -4.46134e-21
ExecutionTime = 35.16 s  ClockTime = 35 s

End

