/*---------------------------------------------------------------------------*\
  =========                 |
  \\      /  F ield         | OpenFOAM: The Open Source CFD Toolbox
   \\    /   O peration     | Website:  https://openfoam.org
    \\  /    A nd           | Version:  8
     \\/     M anipulation  |
\*---------------------------------------------------------------------------*/
Build  : 8-ef60d22ea792
Exec   : icoFoam
Date   : Sep 11 2021
Time   : 14:51:49
Host   : "uc2n442.localdomain"
PID    : 3723442
I/O    : uncollated
Case   : /pfs/data5/home/kit/scc/nq7776/data/code/OBR/lidDrivenCavity3D/Variation_init/100/Variation_mesh/85/Variation_matrix_solver/CG_NoPrecond_Serial/1631364679
nProcs : 1
sigFpe : Enabling floating point exception trapping (FOAM_SIGFPE).
fileModificationChecking : Monitoring run-time modified files using timeStampMaster (fileModificationSkew 10)
allowSystemOperations : Allowing user-supplied system call operations

// * * * * * * * * * * * * * * * * * * * * * * * * * * * * * * * * * * * * * //
Create time

Create mesh for time = 0

Reading transportProperties

Reading field p

Reading field U

Reading/calculating face flux field phi


Starting time loop

Time = 0.00117647

Courant Number mean: 0.19128 max: 0.963498
DILUPBiCGStab:  Solving for Ux, Initial residual = 0.0801002, Final residual = 3.10838e-05, No Iterations 5
DILUPBiCGStab:  Solving for Uy, Initial residual = 0.15471, Final residual = 7.99938e-05, No Iterations 5
DILUPBiCGStab:  Solving for Uz, Initial residual = 0.204787, Final residual = 0.000190775, No Iterations 5
linear solve U 618416
nonePCG:  Solving for p, Initial residual = 0.639229, Final residual = 9.81044e-07, No Iterations 697
linear solve p 5384658
time step continuity errors : sum local = 7.8153e-10, global = 1.53146e-21, cumulative = 1.53146e-21
nonePCG:  Solving for p, Initial residual = 0.354968, Final residual = 9.77563e-07, No Iterations 695
linear solve p 5328072
time step continuity errors : sum local = 6.93024e-10, global = 8.63137e-21, cumulative = 1.01628e-20
ExecutionTime = 14.4 s  ClockTime = 14 s

Time = 0.00235294

Courant Number mean: 0.191423 max: 0.964029
DILUPBiCGStab:  Solving for Ux, Initial residual = 0.00592858, Final residual = 2.11098e-05, No Iterations 5
DILUPBiCGStab:  Solving for Uy, Initial residual = 0.013936, Final residual = 6.02546e-05, No Iterations 5
DILUPBiCGStab:  Solving for Uz, Initial residual = 0.0246996, Final residual = 0.000175796, No Iterations 5
linear solve U 570687
nonePCG:  Solving for p, Initial residual = 0.425046, Final residual = 9.82592e-07, No Iterations 704
linear solve p 5406469
time step continuity errors : sum local = 5.66899e-10, global = -3.88838e-20, cumulative = -2.8721e-20
nonePCG:  Solving for p, Initial residual = 0.285914, Final residual = 9.74022e-07, No Iterations 702
linear solve p 5411532
time step continuity errors : sum local = 5.29282e-10, global = -7.99769e-22, cumulative = -2.95207e-20
ExecutionTime = 26.09 s  ClockTime = 26 s

Time = 0.00352941

Courant Number mean: 0.19141 max: 0.963513
DILUPBiCGStab:  Solving for Ux, Initial residual = 0.00217464, Final residual = 1.17798e-05, No Iterations 5
DILUPBiCGStab:  Solving for Uy, Initial residual = 0.00584953, Final residual = 3.04297e-05, No Iterations 5
DILUPBiCGStab:  Solving for Uz, Initial residual = 0.0146171, Final residual = 0.00011134, No Iterations 5
linear solve U 567715
nonePCG:  Solving for p, Initial residual = 0.285943, Final residual = 9.56775e-07, No Iterations 699
linear solve p 5342136
time step continuity errors : sum local = 4.88052e-10, global = 2.66376e-20, cumulative = -2.88316e-21
nonePCG:  Solving for p, Initial residual = 0.19817, Final residual = 9.67242e-07, No Iterations 697
linear solve p 5376839
time step continuity errors : sum local = 4.85803e-10, global = -2.38616e-20, cumulative = -2.67448e-20
ExecutionTime = 37.67 s  ClockTime = 37 s

Time = 0.00470588

Courant Number mean: 0.191413 max: 0.963513
DILUPBiCGStab:  Solving for Ux, Initial residual = 0.0013246, Final residual = 4.81614e-06, No Iterations 5
DILUPBiCGStab:  Solving for Uy, Initial residual = 0.00353105, Final residual = 1.6652e-05, No Iterations 5
DILUPBiCGStab:  Solving for Uz, Initial residual = 0.00929579, Final residual = 6.98668e-05, No Iterations 5
linear solve U 572576
nonePCG:  Solving for p, Initial residual = 0.2113, Final residual = 9.81851e-07, No Iterations 691
linear solve p 5272793
time step continuity errors : sum local = 4.46945e-10, global = 2.5235e-21, cumulative = -2.42213e-20
nonePCG:  Solving for p, Initial residual = 0.153078, Final residual = 9.75113e-07, No Iterations 689
linear solve p 5278845
time step continuity errors : sum local = 4.37863e-10, global = 1.23177e-20, cumulative = -1.19036e-20
ExecutionTime = 49.09 s  ClockTime = 49 s

Time = 0.00588235

Courant Number mean: 0.191429 max: 0.963458
DILUPBiCGStab:  Solving for Ux, Initial residual = 0.000869821, Final residual = 3.81665e-06, No Iterations 5
DILUPBiCGStab:  Solving for Uy, Initial residual = 0.0022652, Final residual = 9.96236e-06, No Iterations 5
DILUPBiCGStab:  Solving for Uz, Initial residual = 0.00700668, Final residual = 5.76535e-05, No Iterations 5
linear solve U 565898
nonePCG:  Solving for p, Initial residual = 0.153475, Final residual = 9.92951e-07, No Iterations 685
linear solve p 5267083
time step continuity errors : sum local = 4.37221e-10, global = 1.76348e-20, cumulative = 5.73125e-21
nonePCG:  Solving for p, Initial residual = 0.114954, Final residual = 9.81678e-07, No Iterations 682
linear solve p 5257940
time step continuity errors : sum local = 4.29776e-10, global = -1.00969e-20, cumulative = -4.36561e-21
ExecutionTime = 60.49 s  ClockTime = 60 s

Time = 0.00705882

Courant Number mean: 0.191444 max: 0.963475
DILUPBiCGStab:  Solving for Ux, Initial residual = 0.000604667, Final residual = 2.21961e-06, No Iterations 5
DILUPBiCGStab:  Solving for Uy, Initial residual = 0.00154535, Final residual = 6.55205e-06, No Iterations 5
DILUPBiCGStab:  Solving for Uz, Initial residual = 0.00501416, Final residual = 3.49412e-05, No Iterations 5
linear solve U 568279
nonePCG:  Solving for p, Initial residual = 0.118891, Final residual = 9.18263e-07, No Iterations 680
linear solve p 5201794
time step continuity errors : sum local = 3.86901e-10, global = 2.43108e-20, cumulative = 1.99452e-20
nonePCG:  Solving for p, Initial residual = 0.0917978, Final residual = 9.97736e-07, No Iterations 677
linear solve p 5217271
time step continuity errors : sum local = 4.18702e-10, global = 2.49132e-20, cumulative = 4.48584e-20
ExecutionTime = 71.77 s  ClockTime = 72 s

Time = 0.00823529

Courant Number mean: 0.191456 max: 0.963473
DILUPBiCGStab:  Solving for Ux, Initial residual = 0.000439863, Final residual = 1.83186e-06, No Iterations 5
DILUPBiCGStab:  Solving for Uy, Initial residual = 0.00110335, Final residual = 5.58364e-06, No Iterations 5
DILUPBiCGStab:  Solving for Uz, Initial residual = 0.00386968, Final residual = 2.99442e-05, No Iterations 5
linear solve U 571707
nonePCG:  Solving for p, Initial residual = 0.0929383, Final residual = 9.25652e-07, No Iterations 675
linear solve p 5151922
time step continuity errors : sum local = 3.84909e-10, global = 3.35316e-20, cumulative = 7.83899e-20
nonePCG:  Solving for p, Initial residual = 0.0731204, Final residual = 9.47355e-07, No Iterations 673
linear solve p 5158395
time step continuity errors : sum local = 3.93435e-10, global = 2.53413e-20, cumulative = 1.03731e-19
ExecutionTime = 82.96 s  ClockTime = 83 s

Time = 0.00941176

Courant Number mean: 0.191468 max: 0.963471
DILUPBiCGStab:  Solving for Ux, Initial residual = 0.000331925, Final residual = 1.53116e-06, No Iterations 5
DILUPBiCGStab:  Solving for Uy, Initial residual = 0.000829587, Final residual = 3.74241e-06, No Iterations 5
DILUPBiCGStab:  Solving for Uz, Initial residual = 0.00286423, Final residual = 1.89131e-05, No Iterations 5
linear solve U 570910
nonePCG:  Solving for p, Initial residual = 0.0748702, Final residual = 9.53465e-07, No Iterations 668
linear solve p 5135235
time step continuity errors : sum local = 3.89618e-10, global = -1.39931e-20, cumulative = 8.97381e-20
nonePCG:  Solving for p, Initial residual = 0.0597732, Final residual = 9.83768e-07, No Iterations 665
linear solve p 5129025
time step continuity errors : sum local = 4.01391e-10, global = 6.32142e-22, cumulative = 9.03703e-20
ExecutionTime = 94.09 s  ClockTime = 94 s

Time = 0.0105882

Courant Number mean: 0.191478 max: 0.963481
DILUPBiCGStab:  Solving for Ux, Initial residual = 0.000259166, Final residual = 1.16306e-06, No Iterations 5
DILUPBiCGStab:  Solving for Uy, Initial residual = 0.000639589, Final residual = 4.08627e-06, No Iterations 5
DILUPBiCGStab:  Solving for Uz, Initial residual = 0.00223347, Final residual = 1.59929e-05, No Iterations 5
linear solve U 568212
nonePCG:  Solving for p, Initial residual = 0.0608089, Final residual = 9.81194e-07, No Iterations 657
linear solve p 5023381
time step continuity errors : sum local = 3.98023e-10, global = -2.07233e-20, cumulative = 6.9647e-20
nonePCG:  Solving for p, Initial residual = 0.0489391, Final residual = 9.93733e-07, No Iterations 652
linear solve p 5023334
time step continuity errors : sum local = 4.03071e-10, global = -9.80799e-21, cumulative = 5.9839e-20
ExecutionTime = 105.01 s  ClockTime = 105 s

Time = 0.0117647

Courant Number mean: 0.191488 max: 0.963475
DILUPBiCGStab:  Solving for Ux, Initial residual = 0.000206741, Final residual = 1.13178e-06, No Iterations 5
DILUPBiCGStab:  Solving for Uy, Initial residual = 0.000508443, Final residual = 2.72501e-06, No Iterations 5
DILUPBiCGStab:  Solving for Uz, Initial residual = 0.00169836, Final residual = 1.12094e-05, No Iterations 5
linear solve U 568139
nonePCG:  Solving for p, Initial residual = 0.0500074, Final residual = 9.903e-07, No Iterations 611
linear solve p 4663612
time step continuity errors : sum local = 3.98522e-10, global = 1.64169e-20, cumulative = 7.62559e-20
nonePCG:  Solving for p, Initial residual = 0.0405307, Final residual = 9.77238e-07, No Iterations 598
linear solve p 4595793
time step continuity errors : sum local = 3.93057e-10, global = -1.92545e-20, cumulative = 5.70013e-20
ExecutionTime = 115.14 s  ClockTime = 115 s

End

