/*---------------------------------------------------------------------------*\
  =========                 |
  \\      /  F ield         | OpenFOAM: The Open Source CFD Toolbox
   \\    /   O peration     | Website:  https://openfoam.org
    \\  /    A nd           | Version:  8
     \\/     M anipulation  |
\*---------------------------------------------------------------------------*/
Build  : 8-ef60d22ea792
Exec   : icoFoam
Date   : Sep 11 2021
Time   : 14:37:05
Host   : "uc2n513.localdomain"
PID    : 229901
I/O    : uncollated
Case   : /pfs/data5/home/kit/scc/nq7776/data/code/OBR/lidDrivenCavity3D/Variation_init/100/Variation_mesh/50/Variation_matrix_solver/BiCGStab_ILU_CUDA/1631363818
nProcs : 1
sigFpe : Enabling floating point exception trapping (FOAM_SIGFPE).
fileModificationChecking : Monitoring run-time modified files using timeStampMaster (fileModificationSkew 10)
allowSystemOperations : Allowing user-supplied system call operations

// * * * * * * * * * * * * * * * * * * * * * * * * * * * * * * * * * * * * * //
Create time

Create mesh for time = 0

Reading transportProperties

Reading field p

Reading field U

Reading/calculating face flux field phi


Starting time loop

Time = 0.002

Courant Number mean: 0.192148 max: 0.956831
DILUPBiCGStab:  Solving for Ux, Initial residual = 0.172561, Final residual = 2.46398e-05, No Iterations 5
DILUPBiCGStab:  Solving for Uy, Initial residual = 0.345881, Final residual = 4.22593e-05, No Iterations 5
DILUPBiCGStab:  Solving for Uz, Initial residual = 0.516458, Final residual = 7.14476e-05, No Iterations 5
linear solve U 116551
[OGL LOG] init_host_sparsity_pattern : 33 ms
[OGL LOG] matrix not stored update host matrix
[OGL LOG] update_host_mtx : 18 ms
[OGL LOG] matrix is not yet sorted, compute sorting idxs
[OGL LOG] compute_sort : 982 ms
[OGL LOG] matrix is not yet sorted, sorting host matrix
[OGL LOG] sort_host_mtx_sparsity_pattern : 23 ms
[OGL LOG] sort_host_mtx : 12 ms
[OGL LOG] init_preconditioner : 37 ms
[OGL LOG] solve : 293 ms
ILUcudaGKOBiCGStab:  Solving for p, Initial residual = 0.676582, Final residual = 6.1953e-07, No Iterations 102
linear solve p 2151260
time step continuity errors : sum local = 1.86532e-09, global = 1.95639e-20, cumulative = 1.95639e-20
[OGL LOG] init_preconditioner : 0 ms
[OGL LOG] solve : 130 ms
ILUcudaGKOBiCGStab:  Solving for p, Initial residual = 0.411256, Final residual = 9.9048e-07, No Iterations 57
linear solve p 133693
time step continuity errors : sum local = 2.46573e-09, global = 2.57672e-20, cumulative = 4.53311e-20
ExecutionTime = 3.01 s  ClockTime = 3 s

Time = 0.004

Courant Number mean: 0.192597 max: 0.939084
DILUPBiCGStab:  Solving for Ux, Initial residual = 0.0107651, Final residual = 2.47566e-05, No Iterations 5
DILUPBiCGStab:  Solving for Uy, Initial residual = 0.0214044, Final residual = 3.55438e-05, No Iterations 5
DILUPBiCGStab:  Solving for Uz, Initial residual = 0.0908945, Final residual = 0.000102326, No Iterations 5
linear solve U 109060
[OGL LOG] init_preconditioner : 0 ms
[OGL LOG] solve : 232 ms
ILUcudaGKOBiCGStab:  Solving for p, Initial residual = 0.329328, Final residual = 6.8401e-07, No Iterations 102
linear solve p 236341
time step continuity errors : sum local = 7.26482e-07, global = -5.63248e-21, cumulative = 3.96986e-20
[OGL LOG] init_preconditioner : 0 ms
[OGL LOG] solve : 224 ms
ILUcudaGKOBiCGStab:  Solving for p, Initial residual = 0.245945, Final residual = 8.54216e-07, No Iterations 99
linear solve p 227830
time step continuity errors : sum local = 6.33265e-07, global = -1.50826e-20, cumulative = 2.4616e-20
ExecutionTime = 3.65 s  ClockTime = 4 s

Time = 0.006

Courant Number mean: 0.192342 max: 0.940635
DILUPBiCGStab:  Solving for Ux, Initial residual = 0.0035205, Final residual = 6.70723e-06, No Iterations 5
DILUPBiCGStab:  Solving for Uy, Initial residual = 0.0075883, Final residual = 1.70062e-05, No Iterations 5
DILUPBiCGStab:  Solving for Uz, Initial residual = 0.0401437, Final residual = 6.16466e-05, No Iterations 5
linear solve U 110260
[OGL LOG] init_preconditioner : 0 ms
[OGL LOG] solve : 209 ms
ILUcudaGKOBiCGStab:  Solving for p, Initial residual = 0.174834, Final residual = 6.70534e-07, No Iterations 92
linear solve p 213487
time step continuity errors : sum local = 6.74484e-07, global = 1.15953e-20, cumulative = 3.62113e-20
[OGL LOG] init_preconditioner : 0 ms
[OGL LOG] solve : 223 ms
ILUcudaGKOBiCGStab:  Solving for p, Initial residual = 0.135102, Final residual = 8.71167e-07, No Iterations 98
linear solve p 226683
time step continuity errors : sum local = 6.31971e-07, global = 4.13304e-20, cumulative = 7.75417e-20
ExecutionTime = 4.28 s  ClockTime = 4 s

Time = 0.008

Courant Number mean: 0.191845 max: 0.938398
DILUPBiCGStab:  Solving for Ux, Initial residual = 0.00145247, Final residual = 1.85344e-06, No Iterations 5
DILUPBiCGStab:  Solving for Uy, Initial residual = 0.00279602, Final residual = 4.23547e-06, No Iterations 5
DILUPBiCGStab:  Solving for Uz, Initial residual = 0.0155945, Final residual = 2.29403e-05, No Iterations 5
linear solve U 106745
[OGL LOG] init_preconditioner : 0 ms
[OGL LOG] solve : 212 ms
ILUcudaGKOBiCGStab:  Solving for p, Initial residual = 0.104346, Final residual = 7.7848e-07, No Iterations 93
linear solve p 215650
time step continuity errors : sum local = 6.24576e-07, global = 4.55229e-21, cumulative = 8.2094e-20
[OGL LOG] init_preconditioner : 0 ms
[OGL LOG] solve : 210 ms
ILUcudaGKOBiCGStab:  Solving for p, Initial residual = 0.0812686, Final residual = 7.81237e-07, No Iterations 93
linear solve p 214341
time step continuity errors : sum local = 6.32086e-07, global = 6.18059e-21, cumulative = 8.82746e-20
ExecutionTime = 4.88 s  ClockTime = 5 s

Time = 0.01

Courant Number mean: 0.191684 max: 0.938454
DILUPBiCGStab:  Solving for Ux, Initial residual = 0.000754401, Final residual = 1.39861e-06, No Iterations 5
DILUPBiCGStab:  Solving for Uy, Initial residual = 0.00149067, Final residual = 3.19616e-06, No Iterations 5
DILUPBiCGStab:  Solving for Uz, Initial residual = 0.00883314, Final residual = 1.13136e-05, No Iterations 5
linear solve U 106243
[OGL LOG] init_preconditioner : 0 ms
[OGL LOG] solve : 123 ms
ILUcudaGKOBiCGStab:  Solving for p, Initial residual = 0.0660482, Final residual = 8.54583e-07, No Iterations 54
linear solve p 127815
time step continuity errors : sum local = 6.37198e-07, global = -5.31031e-20, cumulative = 3.51714e-20
[OGL LOG] init_preconditioner : 0 ms
[OGL LOG] solve : 100 ms
ILUcudaGKOBiCGStab:  Solving for p, Initial residual = 0.0511201, Final residual = 9.8441e-07, No Iterations 43
linear solve p 103483
time step continuity errors : sum local = 6.32227e-07, global = 1.75344e-20, cumulative = 5.27058e-20
ExecutionTime = 5.29 s  ClockTime = 5 s

Time = 0.012

Courant Number mean: 0.191526 max: 0.938315
DILUPBiCGStab:  Solving for Ux, Initial residual = 0.000475097, Final residual = 6.50647e-07, No Iterations 5
DILUPBiCGStab:  Solving for Uy, Initial residual = 0.000801077, Final residual = 1.23792e-06, No Iterations 5
DILUPBiCGStab:  Solving for Uz, Initial residual = 0.00455797, Final residual = 4.798e-06, No Iterations 5
linear solve U 106846
[OGL LOG] init_preconditioner : 0 ms
[OGL LOG] solve : 101 ms
ILUcudaGKOBiCGStab:  Solving for p, Initial residual = 0.0433096, Final residual = 6.27211e-07, No Iterations 44
linear solve p 105415
time step continuity errors : sum local = 6.31611e-07, global = 4.59242e-20, cumulative = 9.863e-20
[OGL LOG] init_preconditioner : 0 ms
[OGL LOG] solve : 103 ms
ILUcudaGKOBiCGStab:  Solving for p, Initial residual = 0.0334561, Final residual = 9.44052e-07, No Iterations 45
linear solve p 106744
time step continuity errors : sum local = 6.32363e-07, global = 4.00721e-20, cumulative = 1.38702e-19
ExecutionTime = 5.67 s  ClockTime = 6 s

Time = 0.014

Courant Number mean: 0.191434 max: 0.938181
DILUPBiCGStab:  Solving for Ux, Initial residual = 0.000304965, Final residual = 5.42998e-07, No Iterations 5
DILUPBiCGStab:  Solving for Uy, Initial residual = 0.000505876, Final residual = 7.98735e-07, No Iterations 5
DILUPBiCGStab:  Solving for Uz, Initial residual = 0.00278305, Final residual = 2.91734e-06, No Iterations 5
linear solve U 106870
[OGL LOG] init_preconditioner : 0 ms
[OGL LOG] solve : 104 ms
ILUcudaGKOBiCGStab:  Solving for p, Initial residual = 0.0289391, Final residual = 8.99401e-07, No Iterations 45
linear solve p 107748
time step continuity errors : sum local = 6.32973e-07, global = 2.86788e-20, cumulative = 1.67381e-19
[OGL LOG] init_preconditioner : 0 ms
[OGL LOG] solve : 87 ms
ILUcudaGKOBiCGStab:  Solving for p, Initial residual = 0.0222919, Final residual = 9.52107e-07, No Iterations 38
linear solve p 91025
time step continuity errors : sum local = 6.32188e-07, global = -1.14493e-20, cumulative = 1.55932e-19
ExecutionTime = 6.05 s  ClockTime = 6 s

Time = 0.016

Courant Number mean: 0.191359 max: 0.938152
DILUPBiCGStab:  Solving for Ux, Initial residual = 0.000210411, Final residual = 2.58963e-07, No Iterations 5
DILUPBiCGStab:  Solving for Uy, Initial residual = 0.000325488, Final residual = 3.72752e-07, No Iterations 5
DILUPBiCGStab:  Solving for Uz, Initial residual = 0.00161891, Final residual = 1.6592e-06, No Iterations 5
linear solve U 106424
[OGL LOG] init_preconditioner : 0 ms
[OGL LOG] solve : 99 ms
ILUcudaGKOBiCGStab:  Solving for p, Initial residual = 0.0195907, Final residual = 9.76534e-07, No Iterations 43
linear solve p 103280
time step continuity errors : sum local = 6.32819e-07, global = 1.69458e-20, cumulative = 1.72877e-19
[OGL LOG] init_preconditioner : 0 ms
[OGL LOG] solve : 105 ms
ILUcudaGKOBiCGStab:  Solving for p, Initial residual = 0.0150588, Final residual = 9.17109e-07, No Iterations 46
linear solve p 108884
time step continuity errors : sum local = 6.32359e-07, global = -5.24356e-20, cumulative = 1.20442e-19
ExecutionTime = 6.44 s  ClockTime = 7 s

Time = 0.018

Courant Number mean: 0.191306 max: 0.938082
DILUPBiCGStab:  Solving for Ux, Initial residual = 0.000146125, Final residual = 1.50795e-07, No Iterations 5
DILUPBiCGStab:  Solving for Uy, Initial residual = 0.000222636, Final residual = 1.94139e-07, No Iterations 5
DILUPBiCGStab:  Solving for Uz, Initial residual = 0.00107233, Final residual = 1.03263e-06, No Iterations 5
linear solve U 106382
[OGL LOG] init_preconditioner : 0 ms
[OGL LOG] solve : 99 ms
ILUcudaGKOBiCGStab:  Solving for p, Initial residual = 0.0133868, Final residual = 9.82443e-07, No Iterations 43
linear solve p 103517
time step continuity errors : sum local = 6.32859e-07, global = -2.67386e-21, cumulative = 1.17768e-19
[OGL LOG] init_preconditioner : 0 ms
[OGL LOG] solve : 89 ms
ILUcudaGKOBiCGStab:  Solving for p, Initial residual = 0.0102888, Final residual = 8.55079e-07, No Iterations 39
linear solve p 93222
time step continuity errors : sum local = 6.31991e-07, global = -4.41034e-20, cumulative = 7.36646e-20
ExecutionTime = 6.81 s  ClockTime = 7 s

Time = 0.02

Courant Number mean: 0.191264 max: 0.938065
DILUPBiCGStab:  Solving for Ux, Initial residual = 0.000105557, Final residual = 1.00159e-07, No Iterations 5
DILUPBiCGStab:  Solving for Uy, Initial residual = 0.000156241, Final residual = 1.08136e-07, No Iterations 5
DILUPBiCGStab:  Solving for Uz, Initial residual = 0.000704804, Final residual = 7.34666e-07, No Iterations 5
linear solve U 106353
[OGL LOG] init_preconditioner : 0 ms
[OGL LOG] solve : 169 ms
ILUcudaGKOBiCGStab:  Solving for p, Initial residual = 0.00920439, Final residual = 7.34199e-07, No Iterations 74
linear solve p 172958
time step continuity errors : sum local = 6.32138e-07, global = -5.62822e-20, cumulative = 1.73824e-20
[OGL LOG] init_preconditioner : 0 ms
[OGL LOG] solve : 81 ms
ILUcudaGKOBiCGStab:  Solving for p, Initial residual = 0.00707135, Final residual = 8.7859e-07, No Iterations 35
linear solve p 85300
time step continuity errors : sum local = 6.32579e-07, global = -5.69799e-20, cumulative = -3.95975e-20
ExecutionTime = 7.24 s  ClockTime = 7 s

End

