/*---------------------------------------------------------------------------*\
  =========                 |
  \\      /  F ield         | OpenFOAM: The Open Source CFD Toolbox
   \\    /   O peration     | Website:  https://openfoam.org
    \\  /    A nd           | Version:  8
     \\/     M anipulation  |
\*---------------------------------------------------------------------------*/
Build  : 8-ef60d22ea792
Exec   : icoFoam
Date   : Sep 11 2021
Time   : 14:41:07
Host   : "uc2n513.localdomain"
PID    : 232261
I/O    : uncollated
Case   : /pfs/data5/home/kit/scc/nq7776/data/code/OBR/lidDrivenCavity3D/Variation_init/100/Variation_mesh/20/Variation_matrix_solver/BiCGStab_NoPrecond_CUDA/1631364065
nProcs : 1
sigFpe : Enabling floating point exception trapping (FOAM_SIGFPE).
fileModificationChecking : Monitoring run-time modified files using timeStampMaster (fileModificationSkew 10)
allowSystemOperations : Allowing user-supplied system call operations

// * * * * * * * * * * * * * * * * * * * * * * * * * * * * * * * * * * * * * //
Create time

Create mesh for time = 0

Reading transportProperties

Reading field p

Reading field U

Reading/calculating face flux field phi


Starting time loop

Time = 0.005

Courant Number mean: 0.189426 max: 0.847077
DILUPBiCGStab:  Solving for Ux, Initial residual = 0.0520863, Final residual = 1.93382e-07, No Iterations 5
DILUPBiCGStab:  Solving for Uy, Initial residual = 0.0827593, Final residual = 3.95798e-07, No Iterations 5
DILUPBiCGStab:  Solving for Uz, Initial residual = 0.0638903, Final residual = 5.63531e-07, No Iterations 5
linear solve U 5765
[OGL LOG] init_host_sparsity_pattern : 2 ms
[OGL LOG] matrix not stored update host matrix
[OGL LOG] update_host_mtx : 1 ms
[OGL LOG] matrix is not yet sorted, compute sorting idxs
[OGL LOG] compute_sort : 50 ms
[OGL LOG] matrix is not yet sorted, sorting host matrix
[OGL LOG] sort_host_mtx_sparsity_pattern : 1 ms
[OGL LOG] sort_host_mtx : 0 ms
[OGL LOG] init_preconditioner : 0 ms
[OGL LOG] solve : 37 ms
nonecudaGKOBiCGStab:  Solving for p, Initial residual = 0.518631, Final residual = 8.87608e-07, No Iterations 137
linear solve p 819748
time step continuity errors : sum local = 1.28919e-08, global = -1.9362e-19, cumulative = -1.9362e-19
[OGL LOG] init_preconditioner : 0 ms
[OGL LOG] solve : 36 ms
nonecudaGKOBiCGStab:  Solving for p, Initial residual = 0.286624, Final residual = 6.2061e-07, No Iterations 136
linear solve p 36802
time step continuity errors : sum local = 7.48198e-09, global = 2.72399e-19, cumulative = 7.87793e-20
ExecutionTime = 0.91 s  ClockTime = 1 s

Time = 0.01

Courant Number mean: 0.188529 max: 0.846325
DILUPBiCGStab:  Solving for Ux, Initial residual = 0.011058, Final residual = 2.88349e-07, No Iterations 5
DILUPBiCGStab:  Solving for Uy, Initial residual = 0.01953, Final residual = 2.7665e-07, No Iterations 5
DILUPBiCGStab:  Solving for Uz, Initial residual = 0.0447164, Final residual = 4.36758e-07, No Iterations 5
linear solve U 4873
[OGL LOG] init_preconditioner : 0 ms
[OGL LOG] solve : 36 ms
nonecudaGKOBiCGStab:  Solving for p, Initial residual = 0.129949, Final residual = 7.31856e-07, No Iterations 137
linear solve p 37205
time step continuity errors : sum local = 4.77112e-06, global = 2.78719e-19, cumulative = 3.57498e-19
[OGL LOG] init_preconditioner : 0 ms
[OGL LOG] solve : 34 ms
nonecudaGKOBiCGStab:  Solving for p, Initial residual = 0.0825356, Final residual = 8.26711e-07, No Iterations 129
linear solve p 34941
time step continuity errors : sum local = 4.29522e-06, global = 1.0329e-19, cumulative = 4.60788e-19
ExecutionTime = 1 s  ClockTime = 1 s

Time = 0.015

Courant Number mean: 0.188052 max: 0.844689
DILUPBiCGStab:  Solving for Ux, Initial residual = 0.00147337, Final residual = 1.19132e-08, No Iterations 5
DILUPBiCGStab:  Solving for Uy, Initial residual = 0.00301021, Final residual = 2.23121e-08, No Iterations 5
DILUPBiCGStab:  Solving for Uz, Initial residual = 0.00695855, Final residual = 6.91754e-08, No Iterations 5
linear solve U 4878
[OGL LOG] init_preconditioner : 0 ms
[OGL LOG] solve : 33 ms
nonecudaGKOBiCGStab:  Solving for p, Initial residual = 0.02775, Final residual = 2.81587e-07, No Iterations 123
linear solve p 33333
time step continuity errors : sum local = 4.20737e-06, global = -1.59075e-19, cumulative = 3.01713e-19
[OGL LOG] init_preconditioner : 0 ms
[OGL LOG] solve : 32 ms
nonecudaGKOBiCGStab:  Solving for p, Initial residual = 0.0179773, Final residual = 8.96227e-07, No Iterations 120
linear solve p 32534
time step continuity errors : sum local = 4.2645e-06, global = 1.23713e-19, cumulative = 4.25426e-19
ExecutionTime = 1.07 s  ClockTime = 1 s

Time = 0.02

Courant Number mean: 0.187909 max: 0.844511
DILUPBiCGStab:  Solving for Ux, Initial residual = 0.00056707, Final residual = 1.2298e-08, No Iterations 5
DILUPBiCGStab:  Solving for Uy, Initial residual = 0.000653755, Final residual = 1.28424e-08, No Iterations 5
DILUPBiCGStab:  Solving for Uz, Initial residual = 0.00325675, Final residual = 2.47328e-08, No Iterations 5
linear solve U 4573
[OGL LOG] init_preconditioner : 0 ms
[OGL LOG] solve : 30 ms
nonecudaGKOBiCGStab:  Solving for p, Initial residual = 0.00920603, Final residual = 9.76233e-07, No Iterations 114
linear solve p 30977
time step continuity errors : sum local = 4.27728e-06, global = -1.60523e-19, cumulative = 2.64903e-19
[OGL LOG] init_preconditioner : 0 ms
[OGL LOG] solve : 30 ms
nonecudaGKOBiCGStab:  Solving for p, Initial residual = 0.00619378, Final residual = 9.90217e-07, No Iterations 113
linear solve p 30779
time step continuity errors : sum local = 4.26786e-06, global = 4.55818e-20, cumulative = 3.10485e-19
ExecutionTime = 1.14 s  ClockTime = 1 s

Time = 0.025

Courant Number mean: 0.187822 max: 0.844405
DILUPBiCGStab:  Solving for Ux, Initial residual = 0.000231331, Final residual = 3.6791e-09, No Iterations 5
DILUPBiCGStab:  Solving for Uy, Initial residual = 0.000348069, Final residual = 5.65337e-09, No Iterations 5
DILUPBiCGStab:  Solving for Uz, Initial residual = 0.00160958, Final residual = 1.83911e-08, No Iterations 5
linear solve U 4604
[OGL LOG] init_preconditioner : 0 ms
[OGL LOG] solve : 26 ms
nonecudaGKOBiCGStab:  Solving for p, Initial residual = 0.0037676, Final residual = 6.89811e-07, No Iterations 100
linear solve p 27266
time step continuity errors : sum local = 4.26417e-06, global = -1.64816e-19, cumulative = 1.45669e-19
[OGL LOG] init_preconditioner : 0 ms
[OGL LOG] solve : 12 ms
nonecudaGKOBiCGStab:  Solving for p, Initial residual = 0.0025891, Final residual = 8.56329e-07, No Iterations 46
linear solve p 13019
time step continuity errors : sum local = 4.26637e-06, global = 2.28302e-20, cumulative = 1.68499e-19
ExecutionTime = 1.19 s  ClockTime = 1 s

Time = 0.03

Courant Number mean: 0.18777 max: 0.84431
DILUPBiCGStab:  Solving for Ux, Initial residual = 0.000124884, Final residual = 1.77368e-09, No Iterations 5
DILUPBiCGStab:  Solving for Uy, Initial residual = 0.000164634, Final residual = 3.18996e-09, No Iterations 5
DILUPBiCGStab:  Solving for Uz, Initial residual = 0.0010392, Final residual = 9.38774e-09, No Iterations 5
linear solve U 4825
[OGL LOG] init_preconditioner : 0 ms
[OGL LOG] solve : 26 ms
nonecudaGKOBiCGStab:  Solving for p, Initial residual = 0.00160678, Final residual = 7.89196e-07, No Iterations 96
linear solve p 26286
time step continuity errors : sum local = 4.26657e-06, global = 4.40184e-20, cumulative = 2.12518e-19
[OGL LOG] init_preconditioner : 0 ms
[OGL LOG] solve : 13 ms
nonecudaGKOBiCGStab:  Solving for p, Initial residual = 0.00109449, Final residual = 9.52962e-07, No Iterations 47
linear solve p 13291
time step continuity errors : sum local = 4.26769e-06, global = -2.60231e-20, cumulative = 1.86495e-19
ExecutionTime = 1.24 s  ClockTime = 1 s

Time = 0.035

Courant Number mean: 0.187741 max: 0.84426
DILUPBiCGStab:  Solving for Ux, Initial residual = 6.93058e-05, Final residual = 6.07593e-10, No Iterations 5
DILUPBiCGStab:  Solving for Uy, Initial residual = 9.88146e-05, Final residual = 1.89163e-09, No Iterations 5
DILUPBiCGStab:  Solving for Uz, Initial residual = 0.000698548, Final residual = 8.72583e-09, No Iterations 5
linear solve U 4913
[OGL LOG] init_preconditioner : 0 ms
[OGL LOG] solve : 24 ms
nonecudaGKOBiCGStab:  Solving for p, Initial residual = 0.000723622, Final residual = 9.7477e-07, No Iterations 89
linear solve p 24327
time step continuity errors : sum local = 4.26832e-06, global = -1.4517e-21, cumulative = 1.85043e-19
[OGL LOG] init_preconditioner : 0 ms
[OGL LOG] solve : 11 ms
nonecudaGKOBiCGStab:  Solving for p, Initial residual = 0.000506709, Final residual = 8.10525e-07, No Iterations 43
linear solve p 12122
time step continuity errors : sum local = 4.26375e-06, global = -1.13224e-19, cumulative = 7.18185e-20
ExecutionTime = 1.28 s  ClockTime = 1 s

Time = 0.04

Courant Number mean: 0.187723 max: 0.84423
DILUPBiCGStab:  Solving for Ux, Initial residual = 4.13945e-05, Final residual = 3.74832e-10, No Iterations 5
DILUPBiCGStab:  Solving for Uy, Initial residual = 6.04649e-05, Final residual = 1.20275e-09, No Iterations 5
DILUPBiCGStab:  Solving for Uz, Initial residual = 0.000477102, Final residual = 4.25394e-09, No Iterations 5
linear solve U 4627
[OGL LOG] init_preconditioner : 0 ms
[OGL LOG] solve : 26 ms
nonecudaGKOBiCGStab:  Solving for p, Initial residual = 0.000339793, Final residual = 9.75538e-07, No Iterations 90
linear solve p 26661
time step continuity errors : sum local = 4.26686e-06, global = 2.75617e-20, cumulative = 9.93802e-20
[OGL LOG] init_preconditioner : 0 ms
[OGL LOG] solve : 11 ms
nonecudaGKOBiCGStab:  Solving for p, Initial residual = 0.000236698, Final residual = 9.70673e-07, No Iterations 41
linear solve p 11737
time step continuity errors : sum local = 4.26368e-06, global = 6.83913e-20, cumulative = 1.67771e-19
ExecutionTime = 1.33 s  ClockTime = 1 s

Time = 0.045

Courant Number mean: 0.187711 max: 0.844211
DILUPBiCGStab:  Solving for Ux, Initial residual = 2.64013e-05, Final residual = 2.31533e-10, No Iterations 5
DILUPBiCGStab:  Solving for Uy, Initial residual = 3.69973e-05, Final residual = 6.29069e-10, No Iterations 5
DILUPBiCGStab:  Solving for Uz, Initial residual = 0.000321941, Final residual = 4.55806e-09, No Iterations 5
linear solve U 4700
[OGL LOG] init_preconditioner : 0 ms
[OGL LOG] solve : 22 ms
nonecudaGKOBiCGStab:  Solving for p, Initial residual = 0.000165602, Final residual = 9.97825e-07, No Iterations 81
linear solve p 22288
time step continuity errors : sum local = 4.26781e-06, global = -2.13231e-19, cumulative = -4.54591e-20
[OGL LOG] init_preconditioner : 0 ms
[OGL LOG] solve : 10 ms
nonecudaGKOBiCGStab:  Solving for p, Initial residual = 0.000119549, Final residual = 9.99735e-07, No Iterations 38
linear solve p 10939
time step continuity errors : sum local = 4.26398e-06, global = 1.44988e-19, cumulative = 9.95291e-20
ExecutionTime = 1.37 s  ClockTime = 1 s

Time = 0.05

Courant Number mean: 0.187705 max: 0.8442
DILUPBiCGStab:  Solving for Ux, Initial residual = 1.64677e-05, Final residual = 1.31159e-10, No Iterations 5
DILUPBiCGStab:  Solving for Uy, Initial residual = 2.46164e-05, Final residual = 3.66102e-10, No Iterations 5
DILUPBiCGStab:  Solving for Uz, Initial residual = 0.000226064, Final residual = 2.64161e-09, No Iterations 5
linear solve U 4827
[OGL LOG] init_preconditioner : 0 ms
[OGL LOG] solve : 10 ms
nonecudaGKOBiCGStab:  Solving for p, Initial residual = 8.47386e-05, Final residual = 9.80019e-07, No Iterations 39
linear solve p 11234
time step continuity errors : sum local = 4.26693e-06, global = 1.73303e-19, cumulative = 2.72832e-19
[OGL LOG] init_preconditioner : 0 ms
[OGL LOG] solve : 9 ms
nonecudaGKOBiCGStab:  Solving for p, Initial residual = 6.16364e-05, Final residual = 9.08606e-07, No Iterations 34
linear solve p 9907
time step continuity errors : sum local = 4.26306e-06, global = -1.06169e-19, cumulative = 1.66663e-19
ExecutionTime = 1.4 s  ClockTime = 1 s

End

