/*---------------------------------------------------------------------------*\
  =========                 |
  \\      /  F ield         | OpenFOAM: The Open Source CFD Toolbox
   \\    /   O peration     | Website:  https://openfoam.org
    \\  /    A nd           | Version:  8
     \\/     M anipulation  |
\*---------------------------------------------------------------------------*/
Build  : 8-ef60d22ea792
Exec   : icoFoam
Date   : Sep 11 2021
Time   : 14:48:22
Host   : "uc2n442.localdomain"
PID    : 3723216
I/O    : uncollated
Case   : /pfs/data5/home/kit/scc/nq7776/data/code/OBR/lidDrivenCavity3D/Variation_init/100/Variation_mesh/85/Variation_matrix_solver/BiCGStab_NoPrecond_Serial/1631364461
nProcs : 1
sigFpe : Enabling floating point exception trapping (FOAM_SIGFPE).
fileModificationChecking : Monitoring run-time modified files using timeStampMaster (fileModificationSkew 10)
allowSystemOperations : Allowing user-supplied system call operations

// * * * * * * * * * * * * * * * * * * * * * * * * * * * * * * * * * * * * * //
Create time

Create mesh for time = 0

Reading transportProperties

Reading field p

Reading field U

Reading/calculating face flux field phi


Starting time loop

Time = 0.00117647

Courant Number mean: 0.19128 max: 0.963498
DILUPBiCGStab:  Solving for Ux, Initial residual = 0.0801002, Final residual = 3.10838e-05, No Iterations 5
DILUPBiCGStab:  Solving for Uy, Initial residual = 0.15471, Final residual = 7.99938e-05, No Iterations 5
DILUPBiCGStab:  Solving for Uz, Initial residual = 0.204787, Final residual = 0.000190775, No Iterations 5
linear solve U 613093
nonePBiCGStab:  Solving for p, Initial residual = 0.639229, Final residual = 7.03525e-07, No Iterations 510
linear solve p 8339986
time step continuity errors : sum local = 5.85462e-10, global = 5.5294e-22, cumulative = 5.5294e-22
nonePBiCGStab:  Solving for p, Initial residual = 0.354968, Final residual = 4.84634e-07, No Iterations 512
linear solve p 8259168
time step continuity errors : sum local = 3.88167e-10, global = -2.46721e-20, cumulative = -2.41192e-20
ExecutionTime = 20.26 s  ClockTime = 20 s

Time = 0.00235294

Courant Number mean: 0.191423 max: 0.964029
DILUPBiCGStab:  Solving for Ux, Initial residual = 0.00592857, Final residual = 2.11097e-05, No Iterations 5
DILUPBiCGStab:  Solving for Uy, Initial residual = 0.013936, Final residual = 6.02511e-05, No Iterations 5
DILUPBiCGStab:  Solving for Uz, Initial residual = 0.0246978, Final residual = 0.000175171, No Iterations 5
linear solve U 571795
nonePBiCGStab:  Solving for p, Initial residual = 0.425046, Final residual = 4.17477e-07, No Iterations 570
linear solve p 9169346
time step continuity errors : sum local = 3.25e-10, global = 8.22734e-21, cumulative = -1.58918e-20
nonePBiCGStab:  Solving for p, Initial residual = 0.285914, Final residual = 3.10344e-07, No Iterations 598
linear solve p 9697058
time step continuity errors : sum local = 3.29426e-10, global = -2.14894e-20, cumulative = -3.73812e-20
ExecutionTime = 39.96 s  ClockTime = 40 s

Time = 0.00352941

Courant Number mean: 0.19141 max: 0.963513
DILUPBiCGStab:  Solving for Ux, Initial residual = 0.00217469, Final residual = 1.17841e-05, No Iterations 5
DILUPBiCGStab:  Solving for Uy, Initial residual = 0.0058495, Final residual = 3.04384e-05, No Iterations 5
DILUPBiCGStab:  Solving for Uz, Initial residual = 0.0146159, Final residual = 0.00011128, No Iterations 5
linear solve U 568940
nonePBiCGStab:  Solving for p, Initial residual = 0.285944, Final residual = 3.79124e-07, No Iterations 642
linear solve p 10430643
time step continuity errors : sum local = 2.39666e-10, global = 2.41227e-20, cumulative = -1.32585e-20
nonePBiCGStab:  Solving for p, Initial residual = 0.198172, Final residual = 7.59805e-07, No Iterations 562
linear solve p 9109720
time step continuity errors : sum local = 5.35224e-10, global = 8.97338e-21, cumulative = -4.2851e-21
ExecutionTime = 60.35 s  ClockTime = 61 s

Time = 0.00470588

Courant Number mean: 0.191413 max: 0.963513
DILUPBiCGStab:  Solving for Ux, Initial residual = 0.00132475, Final residual = 4.81138e-06, No Iterations 5
DILUPBiCGStab:  Solving for Uy, Initial residual = 0.00353169, Final residual = 1.67031e-05, No Iterations 5
DILUPBiCGStab:  Solving for Uz, Initial residual = 0.00931182, Final residual = 7.02524e-05, No Iterations 5
linear solve U 568554
nonePBiCGStab:  Solving for p, Initial residual = 0.21131, Final residual = 9.64e-07, No Iterations 549
linear solve p 8897816
time step continuity errors : sum local = 5.48718e-10, global = 4.14745e-21, cumulative = -1.37648e-22
nonePBiCGStab:  Solving for p, Initial residual = 0.153086, Final residual = 9.17783e-07, No Iterations 568
linear solve p 9166193
time step continuity errors : sum local = 4.82729e-10, global = -7.85683e-21, cumulative = -7.99448e-21
ExecutionTime = 79.26 s  ClockTime = 80 s

Time = 0.00588235

Courant Number mean: 0.191429 max: 0.963457
DILUPBiCGStab:  Solving for Ux, Initial residual = 0.000870292, Final residual = 3.84738e-06, No Iterations 5
DILUPBiCGStab:  Solving for Uy, Initial residual = 0.00226623, Final residual = 9.94344e-06, No Iterations 5
DILUPBiCGStab:  Solving for Uz, Initial residual = 0.00703556, Final residual = 5.82284e-05, No Iterations 5
linear solve U 564133
nonePBiCGStab:  Solving for p, Initial residual = 0.153491, Final residual = 9.53861e-07, No Iterations 532
linear solve p 8556885
time step continuity errors : sum local = 5.88666e-10, global = -5.71561e-21, cumulative = -1.37101e-20
nonePBiCGStab:  Solving for p, Initial residual = 0.114969, Final residual = 9.3463e-07, No Iterations 527
linear solve p 8550322
time step continuity errors : sum local = 4.63245e-10, global = 1.07198e-20, cumulative = -2.99029e-21
ExecutionTime = 97.21 s  ClockTime = 98 s

Time = 0.00705882

Courant Number mean: 0.191444 max: 0.963475
DILUPBiCGStab:  Solving for Ux, Initial residual = 0.000605105, Final residual = 2.20678e-06, No Iterations 5
DILUPBiCGStab:  Solving for Uy, Initial residual = 0.00154706, Final residual = 6.69811e-06, No Iterations 5
DILUPBiCGStab:  Solving for Uz, Initial residual = 0.00505374, Final residual = 3.6679e-05, No Iterations 5
linear solve U 567876
nonePBiCGStab:  Solving for p, Initial residual = 0.118915, Final residual = 8.91486e-07, No Iterations 466
linear solve p 7588907
time step continuity errors : sum local = 3.87826e-10, global = -2.32162e-20, cumulative = -2.62065e-20
nonePBiCGStab:  Solving for p, Initial residual = 0.091821, Final residual = 9.00896e-07, No Iterations 462
linear solve p 7493679
time step continuity errors : sum local = 7.5612e-10, global = -1.67464e-20, cumulative = -4.29529e-20
ExecutionTime = 113.15 s  ClockTime = 114 s

Time = 0.00823529

Courant Number mean: 0.191456 max: 0.963473
DILUPBiCGStab:  Solving for Ux, Initial residual = 0.000440829, Final residual = 1.89615e-06, No Iterations 5
DILUPBiCGStab:  Solving for Uy, Initial residual = 0.00110523, Final residual = 5.4972e-06, No Iterations 5
DILUPBiCGStab:  Solving for Uz, Initial residual = 0.00392652, Final residual = 3.1208e-05, No Iterations 5
linear solve U 568900
nonePBiCGStab:  Solving for p, Initial residual = 0.0929742, Final residual = 8.72015e-07, No Iterations 456
linear solve p 7394147
time step continuity errors : sum local = 4.50729e-10, global = -6.45045e-22, cumulative = -4.35979e-20
nonePBiCGStab:  Solving for p, Initial residual = 0.0731555, Final residual = 7.55352e-07, No Iterations 491
linear solve p 7925948
time step continuity errors : sum local = 6.27403e-10, global = -9.0687e-21, cumulative = -5.26666e-20
ExecutionTime = 129.33 s  ClockTime = 130 s

Time = 0.00941176

Courant Number mean: 0.191468 max: 0.963472
DILUPBiCGStab:  Solving for Ux, Initial residual = 0.000332745, Final residual = 1.49587e-06, No Iterations 5
DILUPBiCGStab:  Solving for Uy, Initial residual = 0.000832942, Final residual = 3.9528e-06, No Iterations 5
DILUPBiCGStab:  Solving for Uz, Initial residual = 0.00294476, Final residual = 2.15494e-05, No Iterations 5
linear solve U 565862
nonePBiCGStab:  Solving for p, Initial residual = 0.0749206, Final residual = 8.69298e-07, No Iterations 444
linear solve p 7144378
time step continuity errors : sum local = 7.10462e-10, global = -9.47029e-21, cumulative = -6.21369e-20
nonePBiCGStab:  Solving for p, Initial residual = 0.0598204, Final residual = 8.68408e-07, No Iterations 448
linear solve p 7265284
time step continuity errors : sum local = 7.08676e-10, global = -1.94799e-20, cumulative = -8.16168e-20
ExecutionTime = 144.59 s  ClockTime = 145 s

Time = 0.0105882

Courant Number mean: 0.191478 max: 0.963481
DILUPBiCGStab:  Solving for Ux, Initial residual = 0.000261086, Final residual = 1.2696e-06, No Iterations 5
DILUPBiCGStab:  Solving for Uy, Initial residual = 0.000643887, Final residual = 3.99208e-06, No Iterations 5
DILUPBiCGStab:  Solving for Uz, Initial residual = 0.00236229, Final residual = 1.95385e-05, No Iterations 5
linear solve U 567073
nonePBiCGStab:  Solving for p, Initial residual = 0.0608848, Final residual = 9.88785e-07, No Iterations 417
linear solve p 6794229
time step continuity errors : sum local = 7.95852e-10, global = -1.23835e-20, cumulative = -9.40003e-20
nonePBiCGStab:  Solving for p, Initial residual = 0.0490121, Final residual = 9.73506e-07, No Iterations 481
linear solve p 7809516
time step continuity errors : sum local = 6.25685e-10, global = 1.27127e-20, cumulative = -8.12876e-20
ExecutionTime = 160.04 s  ClockTime = 161 s

Time = 0.0117647

Courant Number mean: 0.191488 max: 0.963475
DILUPBiCGStab:  Solving for Ux, Initial residual = 0.000208225, Final residual = 1.12763e-06, No Iterations 5
DILUPBiCGStab:  Solving for Uy, Initial residual = 0.000513182, Final residual = 2.84123e-06, No Iterations 5
DILUPBiCGStab:  Solving for Uz, Initial residual = 0.0018278, Final residual = 1.39258e-05, No Iterations 5
linear solve U 568875
nonePBiCGStab:  Solving for p, Initial residual = 0.0500673, Final residual = 3.72289e-07, No Iterations 432
linear solve p 6996288
time step continuity errors : sum local = 2.68092e-10, global = -1.0037e-20, cumulative = -9.13246e-20
nonePBiCGStab:  Solving for p, Initial residual = 0.0405874, Final residual = 5.30174e-07, No Iterations 528
linear solve p 8515889
time step continuity errors : sum local = 3.0998e-10, global = 2.12436e-20, cumulative = -7.0081e-20
ExecutionTime = 176.42 s  ClockTime = 177 s

End

