/*---------------------------------------------------------------------------*\
  =========                 |
  \\      /  F ield         | OpenFOAM: The Open Source CFD Toolbox
   \\    /   O peration     | Website:  https://openfoam.org
    \\  /    A nd           | Version:  8
     \\/     M anipulation  |
\*---------------------------------------------------------------------------*/
Build  : 8-ef60d22ea792
Exec   : icoFoam
Date   : Sep 11 2021
Time   : 14:44:28
Host   : "uc2n513.localdomain"
PID    : 233911
I/O    : uncollated
Case   : /pfs/data5/home/kit/scc/nq7776/data/code/OBR/lidDrivenCavity3D/Variation_init/100/Variation_mesh/45/Variation_matrix_solver/CG_NoPrecond_CUDA/1631364263
nProcs : 1
sigFpe : Enabling floating point exception trapping (FOAM_SIGFPE).
fileModificationChecking : Monitoring run-time modified files using timeStampMaster (fileModificationSkew 10)
allowSystemOperations : Allowing user-supplied system call operations

// * * * * * * * * * * * * * * * * * * * * * * * * * * * * * * * * * * * * * //
Create time

Create mesh for time = 0

Reading transportProperties

Reading field p

Reading field U

Reading/calculating face flux field phi


Starting time loop

Time = 0.00222222

Courant Number mean: 0.190928 max: 0.914047
DILUPBiCGStab:  Solving for Ux, Initial residual = 0.0595792, Final residual = 4.86933e-06, No Iterations 5
DILUPBiCGStab:  Solving for Uy, Initial residual = 0.0975024, Final residual = 1.18416e-05, No Iterations 5
DILUPBiCGStab:  Solving for Uz, Initial residual = 0.125234, Final residual = 3.53848e-05, No Iterations 5
linear solve U 79806
[OGL LOG] init_host_sparsity_pattern : 24 ms
[OGL LOG] matrix not stored update host matrix
[OGL LOG] update_host_mtx : 13 ms
[OGL LOG] matrix is not yet sorted, compute sorting idxs
[OGL LOG] compute_sort : 708 ms
[OGL LOG] matrix is not yet sorted, sorting host matrix
[OGL LOG] sort_host_mtx_sparsity_pattern : 17 ms
[OGL LOG] sort_host_mtx : 9 ms
[OGL LOG] init_preconditioner : 0 ms
[OGL LOG] solve : 63 ms
nonecudaGKOCG:  Solving for p, Initial residual = 0.429284, Final residual = 9.01534e-07, No Iterations 369
linear solve p 1584717
time step continuity errors : sum local = 1.72875e-09, global = -2.69189e-20, cumulative = -2.69189e-20
[OGL LOG] init_preconditioner : 0 ms
[OGL LOG] solve : 62 ms
nonecudaGKOCG:  Solving for p, Initial residual = 0.201177, Final residual = 9.28605e-07, No Iterations 366
linear solve p 65300
time step continuity errors : sum local = 1.67206e-09, global = -9.43261e-20, cumulative = -1.21245e-19
ExecutionTime = 2.2 s  ClockTime = 2 s

Time = 0.00444444

Courant Number mean: 0.190905 max: 0.929693
DILUPBiCGStab:  Solving for Ux, Initial residual = 0.00558483, Final residual = 5.75155e-06, No Iterations 5
DILUPBiCGStab:  Solving for Uy, Initial residual = 0.0107013, Final residual = 1.18919e-05, No Iterations 5
DILUPBiCGStab:  Solving for Uz, Initial residual = 0.0268253, Final residual = 2.92438e-05, No Iterations 5
linear solve U 72482
[OGL LOG] init_preconditioner : 0 ms
[OGL LOG] solve : 62 ms
nonecudaGKOCG:  Solving for p, Initial residual = 0.22631, Final residual = 9.7262e-07, No Iterations 367
linear solve p 65607
time step continuity errors : sum local = 4.85228e-07, global = 8.35018e-20, cumulative = -3.77431e-20
[OGL LOG] init_preconditioner : 0 ms
[OGL LOG] solve : 62 ms
nonecudaGKOCG:  Solving for p, Initial residual = 0.154085, Final residual = 9.48397e-07, No Iterations 365
linear solve p 65189
time step continuity errors : sum local = 4.50461e-07, global = -1.66029e-20, cumulative = -5.4346e-20
ExecutionTime = 2.45 s  ClockTime = 2 s

Time = 0.00666667

Courant Number mean: 0.190867 max: 0.930873
DILUPBiCGStab:  Solving for Ux, Initial residual = 0.00160086, Final residual = 1.96977e-06, No Iterations 5
DILUPBiCGStab:  Solving for Uy, Initial residual = 0.00403776, Final residual = 4.80838e-06, No Iterations 5
DILUPBiCGStab:  Solving for Uz, Initial residual = 0.0116505, Final residual = 1.16974e-05, No Iterations 5
linear solve U 72346
[OGL LOG] init_preconditioner : 0 ms
[OGL LOG] solve : 61 ms
nonecudaGKOCG:  Solving for p, Initial residual = 0.101694, Final residual = 9.21966e-07, No Iterations 358
linear solve p 64097
time step continuity errors : sum local = 4.37058e-07, global = -4.55347e-20, cumulative = -9.98807e-20
[OGL LOG] init_preconditioner : 0 ms
[OGL LOG] solve : 60 ms
nonecudaGKOCG:  Solving for p, Initial residual = 0.0701945, Final residual = 9.74959e-07, No Iterations 355
linear solve p 63530
time step continuity errors : sum local = 4.49095e-07, global = -5.45043e-21, cumulative = -1.05331e-19
ExecutionTime = 2.7 s  ClockTime = 2 s

Time = 0.00888889

Courant Number mean: 0.190895 max: 0.931103
DILUPBiCGStab:  Solving for Ux, Initial residual = 0.000646266, Final residual = 9.83091e-07, No Iterations 5
DILUPBiCGStab:  Solving for Uy, Initial residual = 0.00163884, Final residual = 1.63739e-06, No Iterations 5
DILUPBiCGStab:  Solving for Uz, Initial residual = 0.00471815, Final residual = 4.57652e-06, No Iterations 5
linear solve U 72073
[OGL LOG] init_preconditioner : 0 ms
[OGL LOG] solve : 61 ms
nonecudaGKOCG:  Solving for p, Initial residual = 0.0528978, Final residual = 9.53758e-07, No Iterations 350
linear solve p 64385
time step continuity errors : sum local = 4.54058e-07, global = 3.9036e-21, cumulative = -1.01428e-19
[OGL LOG] init_preconditioner : 0 ms
[OGL LOG] solve : 59 ms
nonecudaGKOCG:  Solving for p, Initial residual = 0.0383972, Final residual = 9.39392e-07, No Iterations 348
linear solve p 62284
time step continuity errors : sum local = 4.49467e-07, global = 5.15471e-20, cumulative = -4.98804e-20
ExecutionTime = 2.94 s  ClockTime = 3 s

Time = 0.0111111

Courant Number mean: 0.190873 max: 0.931033
DILUPBiCGStab:  Solving for Ux, Initial residual = 0.000313647, Final residual = 3.36233e-07, No Iterations 5
DILUPBiCGStab:  Solving for Uy, Initial residual = 0.000835147, Final residual = 8.23169e-07, No Iterations 5
DILUPBiCGStab:  Solving for Uz, Initial residual = 0.0023487, Final residual = 2.20738e-06, No Iterations 5
linear solve U 72123
[OGL LOG] init_preconditioner : 0 ms
[OGL LOG] solve : 59 ms
nonecudaGKOCG:  Solving for p, Initial residual = 0.0293675, Final residual = 9.19837e-07, No Iterations 344
linear solve p 61802
time step continuity errors : sum local = 4.47722e-07, global = -5.50902e-20, cumulative = -1.04971e-19
[OGL LOG] init_preconditioner : 0 ms
[OGL LOG] solve : 58 ms
nonecudaGKOCG:  Solving for p, Initial residual = 0.0215246, Final residual = 9.1968e-07, No Iterations 342
linear solve p 61361
time step continuity errors : sum local = 4.4929e-07, global = 3.79515e-21, cumulative = -1.01175e-19
ExecutionTime = 3.19 s  ClockTime = 3 s

Time = 0.0133333

Courant Number mean: 0.190876 max: 0.931058
DILUPBiCGStab:  Solving for Ux, Initial residual = 0.000178963, Final residual = 2.32336e-07, No Iterations 5
DILUPBiCGStab:  Solving for Uy, Initial residual = 0.000452393, Final residual = 4.23173e-07, No Iterations 5
DILUPBiCGStab:  Solving for Uz, Initial residual = 0.00128987, Final residual = 1.18384e-06, No Iterations 5
linear solve U 74466
[OGL LOG] init_preconditioner : 0 ms
[OGL LOG] solve : 57 ms
nonecudaGKOCG:  Solving for p, Initial residual = 0.01755, Final residual = 9.91953e-07, No Iterations 334
linear solve p 60077
time step continuity errors : sum local = 4.50081e-07, global = -4.32613e-20, cumulative = -1.44437e-19
[OGL LOG] init_preconditioner : 0 ms
[OGL LOG] solve : 57 ms
nonecudaGKOCG:  Solving for p, Initial residual = 0.0130407, Final residual = 8.76074e-07, No Iterations 333
linear solve p 59850
time step continuity errors : sum local = 4.49323e-07, global = -2.56801e-20, cumulative = -1.70117e-19
ExecutionTime = 3.43 s  ClockTime = 3 s

Time = 0.0155556

Courant Number mean: 0.190871 max: 0.931023
DILUPBiCGStab:  Solving for Ux, Initial residual = 0.000105808, Final residual = 1.10654e-07, No Iterations 5
DILUPBiCGStab:  Solving for Uy, Initial residual = 0.000276299, Final residual = 2.78153e-07, No Iterations 5
DILUPBiCGStab:  Solving for Uz, Initial residual = 0.000765109, Final residual = 5.56012e-07, No Iterations 5
linear solve U 72163
[OGL LOG] init_preconditioner : 0 ms
[OGL LOG] solve : 55 ms
nonecudaGKOCG:  Solving for p, Initial residual = 0.0108838, Final residual = 9.59782e-07, No Iterations 321
linear solve p 58092
time step continuity errors : sum local = 4.4914e-07, global = -4.6653e-21, cumulative = -1.74782e-19
[OGL LOG] init_preconditioner : 0 ms
[OGL LOG] solve : 55 ms
nonecudaGKOCG:  Solving for p, Initial residual = 0.00813654, Final residual = 9.94513e-07, No Iterations 319
linear solve p 58636
time step continuity errors : sum local = 4.49372e-07, global = -3.48528e-20, cumulative = -2.09635e-19
ExecutionTime = 3.67 s  ClockTime = 3 s

Time = 0.0177778

Courant Number mean: 0.190873 max: 0.931034
DILUPBiCGStab:  Solving for Ux, Initial residual = 6.80819e-05, Final residual = 6.21308e-08, No Iterations 5
DILUPBiCGStab:  Solving for Uy, Initial residual = 0.00017518, Final residual = 1.38739e-07, No Iterations 5
DILUPBiCGStab:  Solving for Uz, Initial residual = 0.000486095, Final residual = 4.37141e-07, No Iterations 5
linear solve U 73371
[OGL LOG] init_preconditioner : 0 ms
[OGL LOG] solve : 26 ms
nonecudaGKOCG:  Solving for p, Initial residual = 0.00693455, Final residual = 9.35139e-07, No Iterations 149
linear solve p 29526
time step continuity errors : sum local = 4.49677e-07, global = -5.66311e-20, cumulative = -2.66266e-19
[OGL LOG] init_preconditioner : 0 ms
[OGL LOG] solve : 25 ms
nonecudaGKOCG:  Solving for p, Initial residual = 0.00521291, Final residual = 9.74999e-07, No Iterations 143
linear solve p 28415
time step continuity errors : sum local = 4.49459e-07, global = 3.76422e-20, cumulative = -2.28624e-19
ExecutionTime = 3.86 s  ClockTime = 3 s

Time = 0.02

Courant Number mean: 0.190873 max: 0.931017
DILUPBiCGStab:  Solving for Ux, Initial residual = 4.46466e-05, Final residual = 3.32045e-08, No Iterations 5
DILUPBiCGStab:  Solving for Uy, Initial residual = 0.000118492, Final residual = 8.63388e-08, No Iterations 5
DILUPBiCGStab:  Solving for Uz, Initial residual = 0.000327968, Final residual = 2.59837e-07, No Iterations 5
linear solve U 72262
[OGL LOG] init_preconditioner : 0 ms
[OGL LOG] solve : 24 ms
nonecudaGKOCG:  Solving for p, Initial residual = 0.00449952, Final residual = 9.88696e-07, No Iterations 134
linear solve p 26849
time step continuity errors : sum local = 4.49571e-07, global = -1.76155e-20, cumulative = -2.46239e-19
[OGL LOG] init_preconditioner : 0 ms
[OGL LOG] solve : 23 ms
nonecudaGKOCG:  Solving for p, Initial residual = 0.00339281, Final residual = 9.48413e-07, No Iterations 131
linear solve p 26271
time step continuity errors : sum local = 4.49398e-07, global = -1.87306e-20, cumulative = -2.6497e-19
ExecutionTime = 4.03 s  ClockTime = 4 s

Time = 0.0222222

Courant Number mean: 0.190876 max: 0.931022
DILUPBiCGStab:  Solving for Ux, Initial residual = 3.07799e-05, Final residual = 1.91582e-08, No Iterations 5
DILUPBiCGStab:  Solving for Uy, Initial residual = 8.08855e-05, Final residual = 4.36123e-08, No Iterations 5
DILUPBiCGStab:  Solving for Uz, Initial residual = 0.000232789, Final residual = 2.23151e-07, No Iterations 5
linear solve U 71809
[OGL LOG] init_preconditioner : 0 ms
[OGL LOG] solve : 24 ms
nonecudaGKOCG:  Solving for p, Initial residual = 0.0029475, Final residual = 9.81837e-07, No Iterations 139
linear solve p 27612
time step continuity errors : sum local = 4.49674e-07, global = -1.73687e-20, cumulative = -2.82339e-19
[OGL LOG] init_preconditioner : 0 ms
[OGL LOG] solve : 23 ms
nonecudaGKOCG:  Solving for p, Initial residual = 0.00222559, Final residual = 9.83304e-07, No Iterations 134
linear solve p 26717
time step continuity errors : sum local = 4.49478e-07, global = 3.13563e-20, cumulative = -2.50982e-19
ExecutionTime = 4.2 s  ClockTime = 4 s

End

