/*---------------------------------------------------------------------------*\
  =========                 |
  \\      /  F ield         | OpenFOAM: The Open Source CFD Toolbox
   \\    /   O peration     | Website:  https://openfoam.org
    \\  /    A nd           | Version:  8
     \\/     M anipulation  |
\*---------------------------------------------------------------------------*/
Build  : 8-ef60d22ea792
Exec   : icoFoam
Date   : Sep 11 2021
Time   : 13:57:13
Host   : "uc2n513.localdomain"
PID    : 222991
I/O    : uncollated
Case   : /pfs/data5/home/kit/scc/nq7776/data/code/OBR/lidDrivenCavity3D/Variation_init/100/Variation_mesh/95/Variation_matrix_solver/BiCGStab_ILU_CUDA/1631361391
nProcs : 1
sigFpe : Enabling floating point exception trapping (FOAM_SIGFPE).
fileModificationChecking : Monitoring run-time modified files using timeStampMaster (fileModificationSkew 10)
allowSystemOperations : Allowing user-supplied system call operations

// * * * * * * * * * * * * * * * * * * * * * * * * * * * * * * * * * * * * * //
Create time

Create mesh for time = 0

Reading transportProperties

Reading field p

Reading field U

Reading/calculating face flux field phi


Starting time loop

Time = 0.00105263

Courant Number mean: 0.191438 max: 0.965363
DILUPBiCGStab:  Solving for Ux, Initial residual = 0.045256, Final residual = 5.87293e-05, No Iterations 5
DILUPBiCGStab:  Solving for Uy, Initial residual = 0.0864075, Final residual = 0.000143638, No Iterations 5
DILUPBiCGStab:  Solving for Uz, Initial residual = 0.119195, Final residual = 0.000245255, No Iterations 5
linear solve U 918458
[OGL LOG] init_host_sparsity_pattern : 243 ms
[OGL LOG] matrix not stored update host matrix
[OGL LOG] update_host_mtx : 127 ms
[OGL LOG] matrix is not yet sorted, compute sorting idxs
[OGL LOG] compute_sort : 7664 ms
[OGL LOG] matrix is not yet sorted, sorting host matrix
[OGL LOG] sort_host_mtx_sparsity_pattern : 164 ms
[OGL LOG] sort_host_mtx : 100 ms
[OGL LOG] init_preconditioner : 302 ms
[OGL LOG] solve : 2877 ms
ILUcudaGKOBiCGStab:  Solving for p, Initial residual = 0.553351, Final residual = 9.89856e-07, No Iterations 202
linear solve p 12283183
time step continuity errors : sum local = 7.60929e-07, global = 1.036e-20, cumulative = 1.036e-20
[OGL LOG] init_preconditioner : 0 ms
[OGL LOG] solve : 2875 ms
ILUcudaGKOBiCGStab:  Solving for p, Initial residual = 0.40656, Final residual = 5.9372e-07, No Iterations 200
linear solve p 2905036
time step continuity errors : sum local = 5.32122e-06, global = 3.75671e-21, cumulative = 1.41168e-20
ExecutionTime = 20.5 s  ClockTime = 20 s

Time = 0.00210526

Courant Number mean: 0.19198 max: 0.967664
DILUPBiCGStab:  Solving for Ux, Initial residual = 0.00523036, Final residual = 7.3907e-05, No Iterations 5
DILUPBiCGStab:  Solving for Uy, Initial residual = 0.0137502, Final residual = 0.000156493, No Iterations 5
DILUPBiCGStab:  Solving for Uz, Initial residual = 0.0464591, Final residual = 0.000917667, No Iterations 5
linear solve U 872367
[OGL LOG] init_preconditioner : 0 ms
[OGL LOG] solve : 3075 ms
ILUcudaGKOBiCGStab:  Solving for p, Initial residual = 0.52536, Final residual = 4.90655e-07, No Iterations 214
linear solve p 3103510
time step continuity errors : sum local = 9.52677e-06, global = 1.75658e-20, cumulative = 3.16826e-20
[OGL LOG] init_preconditioner : 0 ms
[OGL LOG] solve : 2951 ms
ILUcudaGKOBiCGStab:  Solving for p, Initial residual = 0.492336, Final residual = 9.01386e-07, No Iterations 205
linear solve p 2979971
time step continuity errors : sum local = 3.41425e-06, global = 1.53426e-20, cumulative = 4.70252e-20
ExecutionTime = 27.99 s  ClockTime = 28 s

Time = 0.00315789

Courant Number mean: 0.191928 max: 0.968176
DILUPBiCGStab:  Solving for Ux, Initial residual = 0.0033575, Final residual = 4.8227e-05, No Iterations 5
DILUPBiCGStab:  Solving for Uy, Initial residual = 0.00970783, Final residual = 0.000103982, No Iterations 5
DILUPBiCGStab:  Solving for Uz, Initial residual = 0.0581837, Final residual = 0.00118557, No Iterations 5
linear solve U 851538
[OGL LOG] init_preconditioner : 0 ms
[OGL LOG] solve : 2831 ms
ILUcudaGKOBiCGStab:  Solving for p, Initial residual = 0.452369, Final residual = 8.50882e-07, No Iterations 196
linear solve p 2861366
time step continuity errors : sum local = 2.36287e-06, global = -5.16484e-21, cumulative = 4.18604e-20
[OGL LOG] init_preconditioner : 0 ms
[OGL LOG] solve : 3001 ms
ILUcudaGKOBiCGStab:  Solving for p, Initial residual = 0.39556, Final residual = 9.51312e-07, No Iterations 208
linear solve p 3027846
time step continuity errors : sum local = 3.47652e-07, global = 1.84131e-20, cumulative = 6.02734e-20
ExecutionTime = 35.26 s  ClockTime = 35 s

Time = 0.00421053

Courant Number mean: 0.191782 max: 0.967717
DILUPBiCGStab:  Solving for Ux, Initial residual = 0.00217772, Final residual = 2.12931e-05, No Iterations 5
DILUPBiCGStab:  Solving for Uy, Initial residual = 0.00647461, Final residual = 5.15484e-05, No Iterations 5
DILUPBiCGStab:  Solving for Uz, Initial residual = 0.0536012, Final residual = 0.00100614, No Iterations 5
linear solve U 860058
[OGL LOG] init_preconditioner : 0 ms
[OGL LOG] solve : 2717 ms
ILUcudaGKOBiCGStab:  Solving for p, Initial residual = 0.398173, Final residual = 5.65736e-07, No Iterations 188
linear solve p 2746061
time step continuity errors : sum local = 7.72137e-06, global = 4.66468e-20, cumulative = 1.0692e-19
[OGL LOG] init_preconditioner : 0 ms
[OGL LOG] solve : 2734 ms
ILUcudaGKOBiCGStab:  Solving for p, Initial residual = 0.346707, Final residual = 9.80609e-07, No Iterations 190
linear solve p 2762390
time step continuity errors : sum local = 2.00739e-06, global = 1.11393e-20, cumulative = 1.1806e-19
ExecutionTime = 42.15 s  ClockTime = 42 s

Time = 0.00526316

Courant Number mean: 0.191746 max: 0.967378
DILUPBiCGStab:  Solving for Ux, Initial residual = 0.00156558, Final residual = 1.51838e-05, No Iterations 5
DILUPBiCGStab:  Solving for Uy, Initial residual = 0.00478511, Final residual = 3.42502e-05, No Iterations 5
DILUPBiCGStab:  Solving for Uz, Initial residual = 0.0710837, Final residual = 0.00154929, No Iterations 5
linear solve U 851789
[OGL LOG] init_preconditioner : 0 ms
[OGL LOG] solve : 2629 ms
ILUcudaGKOBiCGStab:  Solving for p, Initial residual = 0.404437, Final residual = 7.07733e-07, No Iterations 183
linear solve p 2656984
time step continuity errors : sum local = 5.68273e-06, global = 1.97269e-20, cumulative = 1.37786e-19
[OGL LOG] init_preconditioner : 0 ms
[OGL LOG] solve : 2761 ms
ILUcudaGKOBiCGStab:  Solving for p, Initial residual = 0.339759, Final residual = 5.58089e-07, No Iterations 192
linear solve p 2788513
time step continuity errors : sum local = 0.000114474, global = 4.53489e-20, cumulative = 1.83135e-19
ExecutionTime = 48.97 s  ClockTime = 49 s

Time = 0.00631579

Courant Number mean: 0.191723 max: 0.967616
DILUPBiCGStab:  Solving for Ux, Initial residual = 0.00124166, Final residual = 8.93094e-06, No Iterations 5
DILUPBiCGStab:  Solving for Uy, Initial residual = 0.00399981, Final residual = 3.71532e-05, No Iterations 5
DILUPBiCGStab:  Solving for Uz, Initial residual = 0.235992, Final residual = 0.00809263, No Iterations 5
linear solve U 853132
[OGL LOG] init_preconditioner : 0 ms
[OGL LOG] solve : 2722 ms
ILUcudaGKOBiCGStab:  Solving for p, Initial residual = 0.744246, Final residual = 8.48527e-07, No Iterations 189
linear solve p 2750845
time step continuity errors : sum local = 8.06226e-06, global = -3.77999e-21, cumulative = 1.79355e-19
[OGL LOG] init_preconditioner : 0 ms
[OGL LOG] solve : 2719 ms
ILUcudaGKOBiCGStab:  Solving for p, Initial residual = 0.641746, Final residual = 7.11093e-07, No Iterations 189
linear solve p 2746541
time step continuity errors : sum local = 8.54866e-06, global = -1.16632e-20, cumulative = 1.67692e-19
ExecutionTime = 55.83 s  ClockTime = 56 s

Time = 0.00736842

Courant Number mean: 0.191796 max: 0.973235
DILUPBiCGStab:  Solving for Ux, Initial residual = 0.00174408, Final residual = 1.97206e-05, No Iterations 5
DILUPBiCGStab:  Solving for Uy, Initial residual = 0.00571177, Final residual = 6.60956e-05, No Iterations 5
DILUPBiCGStab:  Solving for Uz, Initial residual = 0.348486, Final residual = 0.00658147, No Iterations 5
linear solve U 852934
[OGL LOG] init_preconditioner : 0 ms
[OGL LOG] solve : 2543 ms
ILUcudaGKOBiCGStab:  Solving for p, Initial residual = 0.689888, Final residual = 9.74306e-07, No Iterations 176
linear solve p 2572781
time step continuity errors : sum local = 2.46331e-06, global = 2.50583e-20, cumulative = 1.92751e-19
[OGL LOG] init_preconditioner : 0 ms
[OGL LOG] solve : 2505 ms
ILUcudaGKOBiCGStab:  Solving for p, Initial residual = 0.60961, Final residual = 7.44901e-07, No Iterations 174
linear solve p 2533428
time step continuity errors : sum local = 4.06568e-08, global = 3.96497e-21, cumulative = 1.96715e-19
ExecutionTime = 62.31 s  ClockTime = 62 s

Time = 0.00842105

Courant Number mean: 0.191719 max: 0.970755
DILUPBiCGStab:  Solving for Ux, Initial residual = 0.00147337, Final residual = 1.48851e-05, No Iterations 5
DILUPBiCGStab:  Solving for Uy, Initial residual = 0.00480502, Final residual = 4.8683e-05, No Iterations 5
DILUPBiCGStab:  Solving for Uz, Initial residual = 0.317436, Final residual = 0.00316406, No Iterations 5
linear solve U 850763
[OGL LOG] init_preconditioner : 0 ms
[OGL LOG] solve : 2768 ms
ILUcudaGKOBiCGStab:  Solving for p, Initial residual = 0.643626, Final residual = 8.81927e-07, No Iterations 192
linear solve p 2795311
time step continuity errors : sum local = 5.30776e-07, global = -1.14369e-20, cumulative = 1.85279e-19
[OGL LOG] init_preconditioner : 0 ms
[OGL LOG] solve : 2597 ms
ILUcudaGKOBiCGStab:  Solving for p, Initial residual = 0.568037, Final residual = 9.2097e-07, No Iterations 180
linear solve p 2627076
time step continuity errors : sum local = 1.30066e-06, global = 4.18649e-21, cumulative = 1.89465e-19
ExecutionTime = 69.11 s  ClockTime = 69 s

Time = 0.00947368

Courant Number mean: 0.191682 max: 0.967974
DILUPBiCGStab:  Solving for Ux, Initial residual = 0.00124986, Final residual = 1.05346e-05, No Iterations 5
DILUPBiCGStab:  Solving for Uy, Initial residual = 0.00408182, Final residual = 3.30518e-05, No Iterations 5
DILUPBiCGStab:  Solving for Uz, Initial residual = 0.278177, Final residual = 0.00189474, No Iterations 5
linear solve U 851735
[OGL LOG] init_preconditioner : 0 ms
[OGL LOG] solve : 2829 ms
ILUcudaGKOBiCGStab:  Solving for p, Initial residual = 0.601246, Final residual = 3.60545e-07, No Iterations 197
linear solve p 2856011
time step continuity errors : sum local = 1.38844e-05, global = 9.27463e-21, cumulative = 1.9874e-19
[OGL LOG] init_preconditioner : 0 ms
[OGL LOG] solve : 2834 ms
ILUcudaGKOBiCGStab:  Solving for p, Initial residual = 0.541028, Final residual = 6.76894e-07, No Iterations 197
linear solve p 2864763
time step continuity errors : sum local = 2.18353e-07, global = -1.42715e-20, cumulative = 1.84468e-19
ExecutionTime = 76.17 s  ClockTime = 76 s

Time = 0.0105263

Courant Number mean: 0.191666 max: 0.967468
DILUPBiCGStab:  Solving for Ux, Initial residual = 0.000984122, Final residual = 7.52088e-06, No Iterations 5
DILUPBiCGStab:  Solving for Uy, Initial residual = 0.0032004, Final residual = 2.27736e-05, No Iterations 5
DILUPBiCGStab:  Solving for Uz, Initial residual = 0.224592, Final residual = 0.00202568, No Iterations 5
linear solve U 848750
[OGL LOG] init_preconditioner : 0 ms
[OGL LOG] solve : 2515 ms
ILUcudaGKOBiCGStab:  Solving for p, Initial residual = 0.536041, Final residual = 9.90661e-07, No Iterations 174
linear solve p 2543165
time step continuity errors : sum local = 3.25505e-06, global = 1.81897e-20, cumulative = 2.02658e-19
[OGL LOG] init_preconditioner : 0 ms
[OGL LOG] solve : 2540 ms
ILUcudaGKOBiCGStab:  Solving for p, Initial residual = 0.460176, Final residual = 8.21233e-07, No Iterations 176
linear solve p 2566857
time step continuity errors : sum local = 1.58362e-06, global = 2.6963e-22, cumulative = 2.02928e-19
ExecutionTime = 82.65 s  ClockTime = 82 s

End

