/*---------------------------------------------------------------------------*\
  =========                 |
  \\      /  F ield         | OpenFOAM: The Open Source CFD Toolbox
   \\    /   O peration     | Website:  https://openfoam.org
    \\  /    A nd           | Version:  8
     \\/     M anipulation  |
\*---------------------------------------------------------------------------*/
Build  : 8-ef60d22ea792
Exec   : icoFoam
Date   : Sep 11 2021
Time   : 14:39:30
Host   : "uc2n513.localdomain"
PID    : 231002
I/O    : uncollated
Case   : /pfs/data5/home/kit/scc/nq7776/data/code/OBR/lidDrivenCavity3D/Variation_init/100/Variation_mesh/55/Variation_matrix_solver/IR_NoPrecond_CUDA/1631363962
nProcs : 1
sigFpe : Enabling floating point exception trapping (FOAM_SIGFPE).
fileModificationChecking : Monitoring run-time modified files using timeStampMaster (fileModificationSkew 10)
allowSystemOperations : Allowing user-supplied system call operations

// * * * * * * * * * * * * * * * * * * * * * * * * * * * * * * * * * * * * * //
Create time

Create mesh for time = 0

Reading transportProperties

Reading field p

Reading field U

Reading/calculating face flux field phi


Starting time loop

Time = 0.00181818

Courant Number mean: 0.191368 max: 0.957571
DILUPBiCGStab:  Solving for Ux, Initial residual = 0.060281, Final residual = 1.19981e-05, No Iterations 5
DILUPBiCGStab:  Solving for Uy, Initial residual = 0.121009, Final residual = 2.40294e-05, No Iterations 5
DILUPBiCGStab:  Solving for Uz, Initial residual = 0.150024, Final residual = 8.14301e-05, No Iterations 5
linear solve U 162989
[OGL LOG] init_host_sparsity_pattern : 43 ms
[OGL LOG] matrix not stored update host matrix
[OGL LOG] update_host_mtx : 23 ms
[OGL LOG] matrix is not yet sorted, compute sorting idxs
[OGL LOG] compute_sort : 1358 ms
[OGL LOG] matrix is not yet sorted, sorting host matrix
[OGL LOG] sort_host_mtx_sparsity_pattern : 31 ms
[OGL LOG] sort_host_mtx : 17 ms
[OGL LOG] init_preconditioner : 0 ms
[OGL LOG] solve : 87 ms
nonecudaGKOIR:  Solving for p, Initial residual = 0.606676, Final residual = 4.18772e-08, No Iterations 4
linear solve p 2310942
time step continuity errors : sum local = 6.83834e-11, global = -7.6651e-22, cumulative = -7.6651e-22
[OGL LOG] init_preconditioner : 0 ms
[OGL LOG] solve : 91 ms
nonecudaGKOIR:  Solving for p, Initial residual = 0.416236, Final residual = 2.41686e-08, No Iterations 4
linear solve p 97061
time step continuity errors : sum local = 2.76579e-11, global = -2.43628e-20, cumulative = -2.51293e-20
ExecutionTime = 3.43 s  ClockTime = 3 s

Time = 0.00363636

Courant Number mean: 0.191352 max: 0.944825
DILUPBiCGStab:  Solving for Ux, Initial residual = 0.00670433, Final residual = 6.36315e-06, No Iterations 5
DILUPBiCGStab:  Solving for Uy, Initial residual = 0.0143954, Final residual = 1.51312e-05, No Iterations 5
DILUPBiCGStab:  Solving for Uz, Initial residual = 0.0279075, Final residual = 4.82419e-05, No Iterations 5
linear solve U 148761
[OGL LOG] init_preconditioner : 0 ms
[OGL LOG] solve : 78 ms
nonecudaGKOIR:  Solving for p, Initial residual = 0.305548, Final residual = 9.31808e-07, No Iterations 3
linear solve p 83813
time step continuity errors : sum local = 3.79538e-07, global = -2.7563e-20, cumulative = -5.26923e-20
[OGL LOG] init_preconditioner : 0 ms
[OGL LOG] solve : 88 ms
nonecudaGKOIR:  Solving for p, Initial residual = 0.191027, Final residual = 5.73722e-07, No Iterations 3
linear solve p 93523
time step continuity errors : sum local = 3.65199e-07, global = 5.65293e-21, cumulative = -4.70393e-20
ExecutionTime = 3.84 s  ClockTime = 4 s

Time = 0.00545455

Courant Number mean: 0.191295 max: 0.943843
DILUPBiCGStab:  Solving for Ux, Initial residual = 0.00199584, Final residual = 3.95896e-06, No Iterations 5
DILUPBiCGStab:  Solving for Uy, Initial residual = 0.00440224, Final residual = 8.35787e-06, No Iterations 5
DILUPBiCGStab:  Solving for Uz, Initial residual = 0.0116547, Final residual = 2.1788e-05, No Iterations 5
linear solve U 149816
[OGL LOG] init_preconditioner : 0 ms
[OGL LOG] solve : 80 ms
nonecudaGKOIR:  Solving for p, Initial residual = 0.167146, Final residual = 4.06663e-07, No Iterations 3
linear solve p 85248
time step continuity errors : sum local = 3.6635e-07, global = -1.71078e-20, cumulative = -6.41471e-20
[OGL LOG] init_preconditioner : 0 ms
[OGL LOG] solve : 88 ms
nonecudaGKOIR:  Solving for p, Initial residual = 0.111651, Final residual = 2.72647e-07, No Iterations 3
linear solve p 93189
time step continuity errors : sum local = 3.63651e-07, global = 4.14621e-20, cumulative = -2.2685e-20
ExecutionTime = 4.26 s  ClockTime = 4 s

Time = 0.00727273

Courant Number mean: 0.191239 max: 0.94364
DILUPBiCGStab:  Solving for Ux, Initial residual = 0.00100385, Final residual = 1.25452e-06, No Iterations 5
DILUPBiCGStab:  Solving for Uy, Initial residual = 0.00220495, Final residual = 2.4997e-06, No Iterations 5
DILUPBiCGStab:  Solving for Uz, Initial residual = 0.00548617, Final residual = 7.543e-06, No Iterations 5
linear solve U 148390
[OGL LOG] init_preconditioner : 0 ms
[OGL LOG] solve : 79 ms
nonecudaGKOIR:  Solving for p, Initial residual = 0.0998339, Final residual = 2.2381e-07, No Iterations 3
linear solve p 84441
time step continuity errors : sum local = 3.62224e-07, global = 3.24487e-20, cumulative = 9.76372e-21
[OGL LOG] init_preconditioner : 0 ms
[OGL LOG] solve : 88 ms
nonecudaGKOIR:  Solving for p, Initial residual = 0.0687795, Final residual = 1.34739e-07, No Iterations 3
linear solve p 93642
time step continuity errors : sum local = 3.63618e-07, global = 2.86524e-21, cumulative = 1.2629e-20
ExecutionTime = 4.68 s  ClockTime = 5 s

Time = 0.00909091

Courant Number mean: 0.191228 max: 0.943571
DILUPBiCGStab:  Solving for Ux, Initial residual = 0.000569938, Final residual = 8.00382e-07, No Iterations 5
DILUPBiCGStab:  Solving for Uy, Initial residual = 0.00122726, Final residual = 1.49973e-06, No Iterations 5
DILUPBiCGStab:  Solving for Uz, Initial residual = 0.00316102, Final residual = 6.00771e-06, No Iterations 5
linear solve U 148184
[OGL LOG] init_preconditioner : 0 ms
[OGL LOG] solve : 79 ms
nonecudaGKOIR:  Solving for p, Initial residual = 0.0620367, Final residual = 1.16529e-07, No Iterations 3
linear solve p 84285
time step continuity errors : sum local = 3.64809e-07, global = -3.70156e-20, cumulative = -2.43866e-20
[OGL LOG] init_preconditioner : 0 ms
[OGL LOG] solve : 82 ms
nonecudaGKOIR:  Solving for p, Initial residual = 0.044201, Final residual = 8.14947e-08, No Iterations 3
linear solve p 88079
time step continuity errors : sum local = 3.63722e-07, global = 4.4162e-20, cumulative = 1.97754e-20
ExecutionTime = 5.09 s  ClockTime = 5 s

Time = 0.0109091

Courant Number mean: 0.191215 max: 0.943612
DILUPBiCGStab:  Solving for Ux, Initial residual = 0.000342118, Final residual = 4.38236e-07, No Iterations 5
DILUPBiCGStab:  Solving for Uy, Initial residual = 0.000740704, Final residual = 8.11564e-07, No Iterations 5
DILUPBiCGStab:  Solving for Uz, Initial residual = 0.00178964, Final residual = 2.73415e-06, No Iterations 5
linear solve U 149136
[OGL LOG] init_preconditioner : 0 ms
[OGL LOG] solve : 75 ms
nonecudaGKOIR:  Solving for p, Initial residual = 0.040211, Final residual = 8.15487e-08, No Iterations 3
linear solve p 80884
time step continuity errors : sum local = 3.63128e-07, global = 6.82854e-20, cumulative = 8.80608e-20
[OGL LOG] init_preconditioner : 0 ms
[OGL LOG] solve : 75 ms
nonecudaGKOIR:  Solving for p, Initial residual = 0.0294472, Final residual = 5.77327e-08, No Iterations 3
linear solve p 80951
time step continuity errors : sum local = 3.63627e-07, global = -1.78912e-20, cumulative = 7.01696e-20
ExecutionTime = 5.5 s  ClockTime = 5 s

Time = 0.0127273

Courant Number mean: 0.191209 max: 0.943562
DILUPBiCGStab:  Solving for Ux, Initial residual = 0.000215412, Final residual = 2.86272e-07, No Iterations 5
DILUPBiCGStab:  Solving for Uy, Initial residual = 0.000460266, Final residual = 5.88199e-07, No Iterations 5
DILUPBiCGStab:  Solving for Uz, Initial residual = 0.00115094, Final residual = 2.13946e-06, No Iterations 5
linear solve U 148615
[OGL LOG] init_preconditioner : 0 ms
[OGL LOG] solve : 73 ms
nonecudaGKOIR:  Solving for p, Initial residual = 0.0268399, Final residual = 5.2248e-08, No Iterations 3
linear solve p 78663
time step continuity errors : sum local = 3.63998e-07, global = 4.68495e-20, cumulative = 1.17019e-19
[OGL LOG] init_preconditioner : 0 ms
[OGL LOG] solve : 75 ms
nonecudaGKOIR:  Solving for p, Initial residual = 0.0200433, Final residual = 3.42066e-08, No Iterations 3
linear solve p 81079
time step continuity errors : sum local = 3.63685e-07, global = 3.96181e-20, cumulative = 1.56637e-19
ExecutionTime = 5.89 s  ClockTime = 6 s

Time = 0.0145455

Courant Number mean: 0.191205 max: 0.943588
DILUPBiCGStab:  Solving for Ux, Initial residual = 0.00014209, Final residual = 1.81597e-07, No Iterations 5
DILUPBiCGStab:  Solving for Uy, Initial residual = 0.000303061, Final residual = 4.18513e-07, No Iterations 5
DILUPBiCGStab:  Solving for Uz, Initial residual = 0.000727883, Final residual = 1.18355e-06, No Iterations 5
linear solve U 147975
[OGL LOG] init_preconditioner : 0 ms
[OGL LOG] solve : 73 ms
nonecudaGKOIR:  Solving for p, Initial residual = 0.0183032, Final residual = 2.89018e-08, No Iterations 3
linear solve p 78314
time step continuity errors : sum local = 3.63498e-07, global = -4.42054e-20, cumulative = 1.12432e-19
[OGL LOG] init_preconditioner : 0 ms
[OGL LOG] solve : 74 ms
nonecudaGKOIR:  Solving for p, Initial residual = 0.0138861, Final residual = 2.44171e-08, No Iterations 3
linear solve p 79970
time step continuity errors : sum local = 3.63645e-07, global = -1.61508e-20, cumulative = 9.62811e-20
ExecutionTime = 6.29 s  ClockTime = 6 s

Time = 0.0163636

Courant Number mean: 0.191203 max: 0.943562
DILUPBiCGStab:  Solving for Ux, Initial residual = 9.591e-05, Final residual = 1.11427e-07, No Iterations 5
DILUPBiCGStab:  Solving for Uy, Initial residual = 0.00020199, Final residual = 2.79616e-07, No Iterations 5
DILUPBiCGStab:  Solving for Uz, Initial residual = 0.00050371, Final residual = 8.29754e-07, No Iterations 5
linear solve U 153794
[OGL LOG] init_preconditioner : 0 ms
[OGL LOG] solve : 73 ms
nonecudaGKOIR:  Solving for p, Initial residual = 0.0126989, Final residual = 1.88502e-08, No Iterations 3
linear solve p 78362
time step continuity errors : sum local = 3.63765e-07, global = 6.6862e-20, cumulative = 1.63143e-19
[OGL LOG] init_preconditioner : 0 ms
[OGL LOG] solve : 70 ms
nonecudaGKOIR:  Solving for p, Initial residual = 0.00973553, Final residual = 1.6333e-08, No Iterations 3
linear solve p 76021
time step continuity errors : sum local = 3.63669e-07, global = 8.16972e-21, cumulative = 1.71313e-19
ExecutionTime = 6.7 s  ClockTime = 7 s

Time = 0.0181818

Courant Number mean: 0.191202 max: 0.943575
DILUPBiCGStab:  Solving for Ux, Initial residual = 6.72363e-05, Final residual = 7.64054e-08, No Iterations 5
DILUPBiCGStab:  Solving for Uy, Initial residual = 0.000140165, Final residual = 1.64885e-07, No Iterations 5
DILUPBiCGStab:  Solving for Uz, Initial residual = 0.000339894, Final residual = 5.41481e-07, No Iterations 5
linear solve U 149281
[OGL LOG] init_preconditioner : 0 ms
[OGL LOG] solve : 73 ms
nonecudaGKOIR:  Solving for p, Initial residual = 0.00892802, Final residual = 1.45451e-08, No Iterations 3
linear solve p 79064
time step continuity errors : sum local = 3.63607e-07, global = -5.41924e-20, cumulative = 1.1712e-19
[OGL LOG] init_preconditioner : 0 ms
[OGL LOG] solve : 74 ms
nonecudaGKOIR:  Solving for p, Initial residual = 0.00689753, Final residual = 1.10915e-08, No Iterations 3
linear solve p 79361
time step continuity errors : sum local = 3.63653e-07, global = -6.43683e-20, cumulative = 5.27522e-20
ExecutionTime = 7.1 s  ClockTime = 7 s

End

