/*---------------------------------------------------------------------------*\
  =========                 |
  \\      /  F ield         | OpenFOAM: The Open Source CFD Toolbox
   \\    /   O peration     | Website:  https://openfoam.org
    \\  /    A nd           | Version:  8
     \\/     M anipulation  |
\*---------------------------------------------------------------------------*/
Build  : 8-ef60d22ea792
Exec   : icoFoam
Date   : Sep 11 2021
Time   : 13:53:17
Host   : "uc2n442.localdomain"
PID    : 3718150
I/O    : uncollated
Case   : /pfs/data5/home/kit/scc/nq7776/data/code/OBR/lidDrivenCavity3D/Variation_init/100/Variation_mesh/75/Variation_matrix_solver/CG_NoPrecond_Serial/1631361180
nProcs : 1
sigFpe : Enabling floating point exception trapping (FOAM_SIGFPE).
fileModificationChecking : Monitoring run-time modified files using timeStampMaster (fileModificationSkew 10)
allowSystemOperations : Allowing user-supplied system call operations

// * * * * * * * * * * * * * * * * * * * * * * * * * * * * * * * * * * * * * //
Create time

Create mesh for time = 0

Reading transportProperties

Reading field p

Reading field U

Reading/calculating face flux field phi


Starting time loop

Time = 0.00133333

Courant Number mean: 0.191396 max: 0.960629
DILUPBiCGStab:  Solving for Ux, Initial residual = 0.15118, Final residual = 1.71065e-05, No Iterations 5
DILUPBiCGStab:  Solving for Uy, Initial residual = 0.286633, Final residual = 4.01866e-05, No Iterations 5
DILUPBiCGStab:  Solving for Uz, Initial residual = 0.411091, Final residual = 0.000172886, No Iterations 5
linear solve U 413680
nonePCG:  Solving for p, Initial residual = 0.61762, Final residual = 9.54602e-07, No Iterations 618
linear solve p 3101185
time step continuity errors : sum local = 1.15089e-09, global = -6.90458e-21, cumulative = -6.90458e-21
nonePCG:  Solving for p, Initial residual = 0.268994, Final residual = 9.43231e-07, No Iterations 621
linear solve p 3097988
time step continuity errors : sum local = 6.46591e-10, global = -1.62199e-20, cumulative = -2.31245e-20
ExecutionTime = 8.74 s  ClockTime = 9 s

Time = 0.00266667

Courant Number mean: 0.191562 max: 0.958264
DILUPBiCGStab:  Solving for Ux, Initial residual = 0.00536981, Final residual = 2.79409e-05, No Iterations 5
DILUPBiCGStab:  Solving for Uy, Initial residual = 0.0116942, Final residual = 5.45211e-05, No Iterations 5
DILUPBiCGStab:  Solving for Uz, Initial residual = 0.0561706, Final residual = 0.000161326, No Iterations 5
linear solve U 381813
nonePCG:  Solving for p, Initial residual = 0.291224, Final residual = 9.88753e-07, No Iterations 619
linear solve p 3090538
time step continuity errors : sum local = 6.25658e-10, global = 7.40693e-21, cumulative = -1.57175e-20
nonePCG:  Solving for p, Initial residual = 0.210433, Final residual = 9.96728e-07, No Iterations 617
linear solve p 3090179
time step continuity errors : sum local = 5.92137e-10, global = 5.22656e-21, cumulative = -1.0491e-20
ExecutionTime = 15.5 s  ClockTime = 16 s

Time = 0.004

Courant Number mean: 0.191591 max: 0.95876
DILUPBiCGStab:  Solving for Ux, Initial residual = 0.00111736, Final residual = 6.77451e-06, No Iterations 5
DILUPBiCGStab:  Solving for Uy, Initial residual = 0.00329114, Final residual = 1.48465e-05, No Iterations 5
DILUPBiCGStab:  Solving for Uz, Initial residual = 0.0228465, Final residual = 0.000101582, No Iterations 5
linear solve U 380419
nonePCG:  Solving for p, Initial residual = 0.173962, Final residual = 9.63024e-07, No Iterations 608
linear solve p 3039781
time step continuity errors : sum local = 5.51411e-10, global = 9.64439e-21, cumulative = -8.46594e-22
nonePCG:  Solving for p, Initial residual = 0.133648, Final residual = 9.49694e-07, No Iterations 606
linear solve p 3031353
time step continuity errors : sum local = 5.43939e-10, global = -2.89544e-21, cumulative = -3.74203e-21
ExecutionTime = 22.17 s  ClockTime = 22 s

Time = 0.00533333

Courant Number mean: 0.19157 max: 0.958639
DILUPBiCGStab:  Solving for Ux, Initial residual = 0.000641055, Final residual = 2.644e-06, No Iterations 5
DILUPBiCGStab:  Solving for Uy, Initial residual = 0.00199422, Final residual = 7.45022e-06, No Iterations 5
DILUPBiCGStab:  Solving for Uz, Initial residual = 0.0110215, Final residual = 5.53284e-05, No Iterations 5
linear solve U 377047
nonePCG:  Solving for p, Initial residual = 0.124262, Final residual = 9.76852e-07, No Iterations 596
linear solve p 2998497
time step continuity errors : sum local = 5.27445e-10, global = 4.59523e-20, cumulative = 4.22102e-20
nonePCG:  Solving for p, Initial residual = 0.0986926, Final residual = 9.81202e-07, No Iterations 594
linear solve p 2981281
time step continuity errors : sum local = 5.25686e-10, global = -8.10846e-22, cumulative = 4.13994e-20
ExecutionTime = 28.73 s  ClockTime = 29 s

Time = 0.00666667

Courant Number mean: 0.191555 max: 0.958628
DILUPBiCGStab:  Solving for Ux, Initial residual = 0.0004318, Final residual = 1.7033e-06, No Iterations 5
DILUPBiCGStab:  Solving for Uy, Initial residual = 0.00139012, Final residual = 3.98043e-06, No Iterations 5
DILUPBiCGStab:  Solving for Uz, Initial residual = 0.00712464, Final residual = 2.91399e-05, No Iterations 5
linear solve U 377571
nonePCG:  Solving for p, Initial residual = 0.0914498, Final residual = 9.84327e-07, No Iterations 588
linear solve p 2988017
time step continuity errors : sum local = 5.23762e-10, global = 2.63228e-20, cumulative = 6.77222e-20
nonePCG:  Solving for p, Initial residual = 0.0726973, Final residual = 9.73011e-07, No Iterations 584
linear solve p 2934793
time step continuity errors : sum local = 5.18554e-10, global = -1.06688e-20, cumulative = 5.70534e-20
ExecutionTime = 35.24 s  ClockTime = 36 s

Time = 0.008

Courant Number mean: 0.191545 max: 0.958667
DILUPBiCGStab:  Solving for Ux, Initial residual = 0.000309328, Final residual = 1.16549e-06, No Iterations 5
DILUPBiCGStab:  Solving for Uy, Initial residual = 0.00102748, Final residual = 2.92718e-06, No Iterations 5
DILUPBiCGStab:  Solving for Uz, Initial residual = 0.00471851, Final residual = 2.03631e-05, No Iterations 5
linear solve U 376527
nonePCG:  Solving for p, Initial residual = 0.0703171, Final residual = 9.75608e-07, No Iterations 581
linear solve p 2912173
time step continuity errors : sum local = 5.0799e-10, global = 6.95523e-21, cumulative = 6.40087e-20
nonePCG:  Solving for p, Initial residual = 0.0564621, Final residual = 9.5668e-07, No Iterations 578
linear solve p 2883741
time step continuity errors : sum local = 4.96876e-10, global = -2.98319e-20, cumulative = 3.41768e-20
ExecutionTime = 41.62 s  ClockTime = 42 s

Time = 0.00933333

Courant Number mean: 0.191534 max: 0.958627
DILUPBiCGStab:  Solving for Ux, Initial residual = 0.00023042, Final residual = 8.66031e-07, No Iterations 5
DILUPBiCGStab:  Solving for Uy, Initial residual = 0.000779315, Final residual = 1.94851e-06, No Iterations 5
DILUPBiCGStab:  Solving for Uz, Initial residual = 0.00332389, Final residual = 1.31451e-05, No Iterations 5
linear solve U 376822
nonePCG:  Solving for p, Initial residual = 0.0544311, Final residual = 9.9989e-07, No Iterations 572
linear solve p 2859602
time step continuity errors : sum local = 5.17282e-10, global = 2.29042e-20, cumulative = 5.7081e-20
nonePCG:  Solving for p, Initial residual = 0.0437534, Final residual = 9.58774e-07, No Iterations 571
linear solve p 2862794
time step continuity errors : sum local = 4.96265e-10, global = 3.64234e-21, cumulative = 6.07233e-20
ExecutionTime = 47.93 s  ClockTime = 48 s

Time = 0.0106667

Courant Number mean: 0.191529 max: 0.958654
DILUPBiCGStab:  Solving for Ux, Initial residual = 0.000175073, Final residual = 6.49655e-07, No Iterations 5
DILUPBiCGStab:  Solving for Uy, Initial residual = 0.000604503, Final residual = 1.65666e-06, No Iterations 5
DILUPBiCGStab:  Solving for Uz, Initial residual = 0.00236648, Final residual = 9.59104e-06, No Iterations 5
linear solve U 377830
nonePCG:  Solving for p, Initial residual = 0.0429349, Final residual = 9.80919e-07, No Iterations 559
linear solve p 2808361
time step continuity errors : sum local = 5.02081e-10, global = -3.38858e-20, cumulative = 2.68376e-20
nonePCG:  Solving for p, Initial residual = 0.0346734, Final residual = 9.69851e-07, No Iterations 556
linear solve p 2778132
time step continuity errors : sum local = 4.95951e-10, global = 4.36979e-20, cumulative = 7.05355e-20
ExecutionTime = 54.11 s  ClockTime = 54 s

Time = 0.012

Courant Number mean: 0.191524 max: 0.958631
DILUPBiCGStab:  Solving for Ux, Initial residual = 0.000135648, Final residual = 4.72781e-07, No Iterations 5
DILUPBiCGStab:  Solving for Uy, Initial residual = 0.0004719, Final residual = 1.20207e-06, No Iterations 5
DILUPBiCGStab:  Solving for Uz, Initial residual = 0.00173492, Final residual = 6.9665e-06, No Iterations 5
linear solve U 379132
nonePCG:  Solving for p, Initial residual = 0.0339641, Final residual = 9.57628e-07, No Iterations 558
linear solve p 2797495
time step continuity errors : sum local = 4.88324e-10, global = 3.89413e-21, cumulative = 7.44296e-20
nonePCG:  Solving for p, Initial residual = 0.0274664, Final residual = 9.78725e-07, No Iterations 554
linear solve p 2765064
time step continuity errors : sum local = 4.99177e-10, global = 1.69248e-20, cumulative = 9.13544e-20
ExecutionTime = 60.26 s  ClockTime = 61 s

Time = 0.0133333

Courant Number mean: 0.191521 max: 0.958646
DILUPBiCGStab:  Solving for Ux, Initial residual = 0.000105863, Final residual = 3.59656e-07, No Iterations 5
DILUPBiCGStab:  Solving for Uy, Initial residual = 0.000373778, Final residual = 1.02434e-06, No Iterations 5
DILUPBiCGStab:  Solving for Uz, Initial residual = 0.00127827, Final residual = 4.9832e-06, No Iterations 5
linear solve U 379642
nonePCG:  Solving for p, Initial residual = 0.0271193, Final residual = 9.60711e-07, No Iterations 506
linear solve p 2532685
time step continuity errors : sum local = 4.87191e-10, global = -3.46628e-20, cumulative = 5.66916e-20
nonePCG:  Solving for p, Initial residual = 0.0219876, Final residual = 9.85162e-07, No Iterations 504
linear solve p 2519172
time step continuity errors : sum local = 4.99412e-10, global = 2.44326e-20, cumulative = 8.11242e-20
ExecutionTime = 65.9 s  ClockTime = 66 s

End

