/*---------------------------------------------------------------------------*\
  =========                 |
  \\      /  F ield         | OpenFOAM: The Open Source CFD Toolbox
   \\    /   O peration     | Website:  https://openfoam.org
    \\  /    A nd           | Version:  8
     \\/     M anipulation  |
\*---------------------------------------------------------------------------*/
Build  : 8-ef60d22ea792
Exec   : icoFoam
Date   : Sep 11 2021
Time   : 14:06:01
Host   : "uc2n513.localdomain"
PID    : 224269
I/O    : uncollated
Case   : /pfs/data5/home/kit/scc/nq7776/data/code/OBR/lidDrivenCavity3D/Variation_init/100/Variation_mesh/30/Variation_matrix_solver/BiCGStab_NoPrecond_CUDA/1631361958
nProcs : 1
sigFpe : Enabling floating point exception trapping (FOAM_SIGFPE).
fileModificationChecking : Monitoring run-time modified files using timeStampMaster (fileModificationSkew 10)
allowSystemOperations : Allowing user-supplied system call operations

// * * * * * * * * * * * * * * * * * * * * * * * * * * * * * * * * * * * * * //
Create time

Create mesh for time = 0

Reading transportProperties

Reading field p

Reading field U

Reading/calculating face flux field phi


Starting time loop

Time = 0.00333333

Courant Number mean: 0.190329 max: 0.906243
DILUPBiCGStab:  Solving for Ux, Initial residual = 0.0900001, Final residual = 1.98559e-06, No Iterations 5
DILUPBiCGStab:  Solving for Uy, Initial residual = 0.151485, Final residual = 4.47204e-06, No Iterations 5
DILUPBiCGStab:  Solving for Uz, Initial residual = 0.230061, Final residual = 9.55411e-06, No Iterations 5
linear solve U 19464
[OGL LOG] init_host_sparsity_pattern : 7 ms
[OGL LOG] matrix not stored update host matrix
[OGL LOG] update_host_mtx : 3 ms
[OGL LOG] matrix is not yet sorted, compute sorting idxs
[OGL LOG] compute_sort : 191 ms
[OGL LOG] matrix is not yet sorted, sorting host matrix
[OGL LOG] sort_host_mtx_sparsity_pattern : 4 ms
[OGL LOG] sort_host_mtx : 2 ms
[OGL LOG] init_preconditioner : 0 ms
[OGL LOG] solve : 58 ms
nonecudaGKOBiCGStab:  Solving for p, Initial residual = 0.532173, Final residual = 9.24724e-07, No Iterations 208
linear solve p 997349
time step continuity errors : sum local = 7.60271e-09, global = 5.87876e-20, cumulative = 5.87876e-20
[OGL LOG] init_preconditioner : 0 ms
[OGL LOG] solve : 57 ms
nonecudaGKOBiCGStab:  Solving for p, Initial residual = 0.3195, Final residual = 1.6746e-07, No Iterations 207
linear solve p 58722
time step continuity errors : sum local = 1.02139e-09, global = -4.93618e-20, cumulative = 9.4258e-21
ExecutionTime = 1.22 s  ClockTime = 1 s

Time = 0.00666667

Courant Number mean: 0.190231 max: 0.898516
DILUPBiCGStab:  Solving for Ux, Initial residual = 0.0089159, Final residual = 1.50272e-06, No Iterations 5
DILUPBiCGStab:  Solving for Uy, Initial residual = 0.0168193, Final residual = 2.62014e-06, No Iterations 5
DILUPBiCGStab:  Solving for Uz, Initial residual = 0.0472068, Final residual = 5.72555e-06, No Iterations 5
linear solve U 17217
[OGL LOG] init_preconditioner : 0 ms
[OGL LOG] solve : 62 ms
nonecudaGKOBiCGStab:  Solving for p, Initial residual = 0.154335, Final residual = 8.78855e-07, No Iterations 212
linear solve p 62958
time step continuity errors : sum local = 1.00415e-06, global = -3.00482e-20, cumulative = -2.06224e-20
[OGL LOG] init_preconditioner : 0 ms
[OGL LOG] solve : 58 ms
nonecudaGKOBiCGStab:  Solving for p, Initial residual = 0.0941563, Final residual = 7.645e-07, No Iterations 209
linear solve p 58981
time step continuity errors : sum local = 8.91345e-07, global = 1.66084e-19, cumulative = 1.45462e-19
ExecutionTime = 1.38 s  ClockTime = 1 s

Time = 0.01

Courant Number mean: 0.190017 max: 0.896754
DILUPBiCGStab:  Solving for Ux, Initial residual = 0.00114148, Final residual = 3.28666e-07, No Iterations 5
DILUPBiCGStab:  Solving for Uy, Initial residual = 0.00263854, Final residual = 3.32548e-07, No Iterations 5
DILUPBiCGStab:  Solving for Uz, Initial residual = 0.0129797, Final residual = 1.57308e-06, No Iterations 5
linear solve U 17279
[OGL LOG] init_preconditioner : 0 ms
[OGL LOG] solve : 52 ms
nonecudaGKOBiCGStab:  Solving for p, Initial residual = 0.0505208, Final residual = 9.68039e-07, No Iterations 187
linear solve p 53096
time step continuity errors : sum local = 8.74416e-07, global = -1.24571e-19, cumulative = 2.08907e-20
[OGL LOG] init_preconditioner : 0 ms
[OGL LOG] solve : 27 ms
nonecudaGKOBiCGStab:  Solving for p, Initial residual = 0.0335423, Final residual = 6.09984e-07, No Iterations 98
linear solve p 28556
time step continuity errors : sum local = 8.83369e-07, global = -2.50331e-20, cumulative = -4.14238e-21
ExecutionTime = 1.49 s  ClockTime = 1 s

Time = 0.0133333

Courant Number mean: 0.189923 max: 0.896669
DILUPBiCGStab:  Solving for Ux, Initial residual = 0.000491082, Final residual = 9.8356e-08, No Iterations 5
DILUPBiCGStab:  Solving for Uy, Initial residual = 0.00097927, Final residual = 1.11822e-07, No Iterations 5
DILUPBiCGStab:  Solving for Uz, Initial residual = 0.00354429, Final residual = 4.1393e-07, No Iterations 5
linear solve U 17288
[OGL LOG] init_preconditioner : 0 ms
[OGL LOG] solve : 26 ms
nonecudaGKOBiCGStab:  Solving for p, Initial residual = 0.0231851, Final residual = 9.86319e-07, No Iterations 91
linear solve p 26826
time step continuity errors : sum local = 8.90513e-07, global = -5.76118e-20, cumulative = -6.17541e-20
[OGL LOG] init_preconditioner : 0 ms
[OGL LOG] solve : 24 ms
nonecudaGKOBiCGStab:  Solving for p, Initial residual = 0.0159586, Final residual = 9.12252e-07, No Iterations 84
linear solve p 24834
time step continuity errors : sum local = 8.86201e-07, global = 3.34767e-21, cumulative = -5.84065e-20
ExecutionTime = 1.56 s  ClockTime = 2 s

Time = 0.0166667

Courant Number mean: 0.189872 max: 0.896515
DILUPBiCGStab:  Solving for Ux, Initial residual = 0.000223503, Final residual = 4.34955e-08, No Iterations 5
DILUPBiCGStab:  Solving for Uy, Initial residual = 0.00048301, Final residual = 4.69261e-08, No Iterations 5
DILUPBiCGStab:  Solving for Uz, Initial residual = 0.00173924, Final residual = 2.34739e-07, No Iterations 5
linear solve U 17305
[OGL LOG] init_preconditioner : 0 ms
[OGL LOG] solve : 21 ms
nonecudaGKOBiCGStab:  Solving for p, Initial residual = 0.0115021, Final residual = 9.3496e-07, No Iterations 73
linear solve p 21863
time step continuity errors : sum local = 8.84767e-07, global = 1.73252e-19, cumulative = 1.14845e-19
[OGL LOG] init_preconditioner : 0 ms
[OGL LOG] solve : 21 ms
nonecudaGKOBiCGStab:  Solving for p, Initial residual = 0.00800148, Final residual = 9.25766e-07, No Iterations 74
linear solve p 22018
time step continuity errors : sum local = 8.85454e-07, global = 3.40988e-20, cumulative = 1.48944e-19
ExecutionTime = 1.64 s  ClockTime = 2 s

Time = 0.02

Courant Number mean: 0.189842 max: 0.896522
DILUPBiCGStab:  Solving for Ux, Initial residual = 0.000133599, Final residual = 2.22004e-08, No Iterations 5
DILUPBiCGStab:  Solving for Uy, Initial residual = 0.000257128, Final residual = 2.51459e-08, No Iterations 5
DILUPBiCGStab:  Solving for Uz, Initial residual = 0.000894598, Final residual = 1.12859e-07, No Iterations 5
linear solve U 17367
[OGL LOG] init_preconditioner : 0 ms
[OGL LOG] solve : 20 ms
nonecudaGKOBiCGStab:  Solving for p, Initial residual = 0.00603588, Final residual = 9.54446e-07, No Iterations 70
linear solve p 21017
time step continuity errors : sum local = 8.86426e-07, global = -1.64588e-20, cumulative = 1.32485e-19
[OGL LOG] init_preconditioner : 0 ms
[OGL LOG] solve : 22 ms
nonecudaGKOBiCGStab:  Solving for p, Initial residual = 0.00424246, Final residual = 6.57787e-07, No Iterations 69
linear solve p 22742
time step continuity errors : sum local = 8.85484e-07, global = 9.03833e-21, cumulative = 1.41523e-19
ExecutionTime = 1.71 s  ClockTime = 2 s

Time = 0.0233333

Courant Number mean: 0.189822 max: 0.896474
DILUPBiCGStab:  Solving for Ux, Initial residual = 7.54034e-05, Final residual = 1.0769e-08, No Iterations 5
DILUPBiCGStab:  Solving for Uy, Initial residual = 0.000145349, Final residual = 1.22862e-08, No Iterations 5
DILUPBiCGStab:  Solving for Uz, Initial residual = 0.000588803, Final residual = 6.78151e-08, No Iterations 5
linear solve U 17214
[OGL LOG] init_preconditioner : 0 ms
[OGL LOG] solve : 18 ms
nonecudaGKOBiCGStab:  Solving for p, Initial residual = 0.00319018, Final residual = 8.98075e-07, No Iterations 65
linear solve p 19542
time step continuity errors : sum local = 8.85042e-07, global = 1.1241e-20, cumulative = 1.52764e-19
[OGL LOG] init_preconditioner : 0 ms
[OGL LOG] solve : 19 ms
nonecudaGKOBiCGStab:  Solving for p, Initial residual = 0.00224788, Final residual = 9.49428e-07, No Iterations 66
linear solve p 19855
time step continuity errors : sum local = 8.85469e-07, global = 5.2599e-20, cumulative = 2.05364e-19
ExecutionTime = 1.78 s  ClockTime = 2 s

Time = 0.0266667

Courant Number mean: 0.18981 max: 0.896471
DILUPBiCGStab:  Solving for Ux, Initial residual = 4.92318e-05, Final residual = 6.26599e-09, No Iterations 5
DILUPBiCGStab:  Solving for Uy, Initial residual = 8.39294e-05, Final residual = 6.99296e-09, No Iterations 5
DILUPBiCGStab:  Solving for Uz, Initial residual = 0.000381733, Final residual = 4.5778e-08, No Iterations 5
linear solve U 17391
[OGL LOG] init_preconditioner : 0 ms
[OGL LOG] solve : 18 ms
nonecudaGKOBiCGStab:  Solving for p, Initial residual = 0.00173689, Final residual = 8.88006e-07, No Iterations 63
linear solve p 19016
time step continuity errors : sum local = 8.85969e-07, global = 1.01712e-20, cumulative = 2.15535e-19
[OGL LOG] init_preconditioner : 0 ms
[OGL LOG] solve : 17 ms
nonecudaGKOBiCGStab:  Solving for p, Initial residual = 0.00123044, Final residual = 9.41464e-07, No Iterations 61
linear solve p 18530
time step continuity errors : sum local = 8.85721e-07, global = -1.32314e-20, cumulative = 2.02303e-19
ExecutionTime = 1.85 s  ClockTime = 2 s

Time = 0.03

Courant Number mean: 0.189802 max: 0.896454
DILUPBiCGStab:  Solving for Ux, Initial residual = 3.09577e-05, Final residual = 3.06936e-09, No Iterations 5
DILUPBiCGStab:  Solving for Uy, Initial residual = 5.35592e-05, Final residual = 2.70739e-09, No Iterations 5
DILUPBiCGStab:  Solving for Uz, Initial residual = 0.000284492, Final residual = 2.36821e-08, No Iterations 5
linear solve U 17418
[OGL LOG] init_preconditioner : 0 ms
[OGL LOG] solve : 17 ms
nonecudaGKOBiCGStab:  Solving for p, Initial residual = 0.000941263, Final residual = 9.91879e-07, No Iterations 60
linear solve p 18242
time step continuity errors : sum local = 8.85231e-07, global = 8.31282e-20, cumulative = 2.85431e-19
[OGL LOG] init_preconditioner : 0 ms
[OGL LOG] solve : 17 ms
nonecudaGKOBiCGStab:  Solving for p, Initial residual = 0.000670143, Final residual = 9.49011e-07, No Iterations 60
linear solve p 18294
time step continuity errors : sum local = 8.85292e-07, global = 2.58044e-20, cumulative = 3.11236e-19
ExecutionTime = 1.91 s  ClockTime = 2 s

Time = 0.0333333

Courant Number mean: 0.189797 max: 0.896449
DILUPBiCGStab:  Solving for Ux, Initial residual = 2.14417e-05, Final residual = 2.00435e-09, No Iterations 5
DILUPBiCGStab:  Solving for Uy, Initial residual = 3.30771e-05, Final residual = 2.36473e-09, No Iterations 5
DILUPBiCGStab:  Solving for Uz, Initial residual = 0.000199577, Final residual = 2.22399e-08, No Iterations 5
linear solve U 17438
[OGL LOG] init_preconditioner : 0 ms
[OGL LOG] solve : 17 ms
nonecudaGKOBiCGStab:  Solving for p, Initial residual = 0.000521722, Final residual = 9.1827e-07, No Iterations 57
linear solve p 18273
time step continuity errors : sum local = 8.85732e-07, global = 1.7213e-19, cumulative = 4.83366e-19
[OGL LOG] init_preconditioner : 0 ms
[OGL LOG] solve : 16 ms
nonecudaGKOBiCGStab:  Solving for p, Initial residual = 0.000373145, Final residual = 9.85647e-07, No Iterations 55
linear solve p 16785
time step continuity errors : sum local = 8.85725e-07, global = 3.08862e-20, cumulative = 5.14252e-19
ExecutionTime = 1.98 s  ClockTime = 2 s

End

