/*---------------------------------------------------------------------------*\
  =========                 |
  \\      /  F ield         | OpenFOAM: The Open Source CFD Toolbox
   \\    /   O peration     | Website:  https://openfoam.org
    \\  /    A nd           | Version:  8
     \\/     M anipulation  |
\*---------------------------------------------------------------------------*/
Build  : 8-ef60d22ea792
Exec   : icoFoam
Date   : Sep 11 2021
Time   : 14:11:06
Host   : "uc2n513.localdomain"
PID    : 225705
I/O    : uncollated
Case   : /pfs/data5/home/kit/scc/nq7776/data/code/OBR/lidDrivenCavity3D/Variation_init/100/Variation_mesh/100/Variation_matrix_solver/CG_BJ_CUDA/1631362228
nProcs : 1
sigFpe : Enabling floating point exception trapping (FOAM_SIGFPE).
fileModificationChecking : Monitoring run-time modified files using timeStampMaster (fileModificationSkew 10)
allowSystemOperations : Allowing user-supplied system call operations

// * * * * * * * * * * * * * * * * * * * * * * * * * * * * * * * * * * * * * //
Create time

Create mesh for time = 0

Reading transportProperties

Reading field p

Reading field U

Reading/calculating face flux field phi


Starting time loop

Time = 0.001

Courant Number mean: 0.191555 max: 0.96896
DILUPBiCGStab:  Solving for Ux, Initial residual = 9.6672e-05, Final residual = 1.54351e-06, No Iterations 5
DILUPBiCGStab:  Solving for Uy, Initial residual = 0.00025914, Final residual = 4.93349e-06, No Iterations 5
DILUPBiCGStab:  Solving for Uz, Initial residual = 0.00322927, Final residual = 7.02504e-05, No Iterations 5
linear solve U 1078884
[OGL LOG] init_host_sparsity_pattern : 284 ms
[OGL LOG] matrix not stored update host matrix
[OGL LOG] update_host_mtx : 148 ms
[OGL LOG] matrix is not yet sorted, compute sorting idxs
[OGL LOG] compute_sort : 9002 ms
[OGL LOG] matrix is not yet sorted, sorting host matrix
[OGL LOG] sort_host_mtx_sparsity_pattern : 192 ms
[OGL LOG] sort_host_mtx : 117 ms
[OGL LOG] init_preconditioner : 111 ms
[OGL LOG] solve : 969 ms
BJcudaGKOCG:  Solving for p, Initial residual = 0.00938001, Final residual = 9.91021e-07, No Iterations 664
linear solve p 11636109
time step continuity errors : sum local = 2.83704e-10, global = 3.42019e-22, cumulative = 3.42019e-22
[OGL LOG] init_preconditioner : 0 ms
[OGL LOG] solve : 947 ms
BJcudaGKOCG:  Solving for p, Initial residual = 0.00639436, Final residual = 9.97103e-07, No Iterations 661
linear solve p 978323
time step continuity errors : sum local = 2.8587e-10, global = 1.49281e-20, cumulative = 1.52701e-20
ExecutionTime = 18.55 s  ClockTime = 19 s

Time = 0.002

Courant Number mean: 0.19156 max: 0.968963
DILUPBiCGStab:  Solving for Ux, Initial residual = 7.88337e-05, Final residual = 1.34854e-06, No Iterations 5
DILUPBiCGStab:  Solving for Uy, Initial residual = 0.000201038, Final residual = 4.04732e-06, No Iterations 5
DILUPBiCGStab:  Solving for Uz, Initial residual = 0.00221808, Final residual = 3.67631e-05, No Iterations 5
linear solve U 1061962
[OGL LOG] init_preconditioner : 0 ms
[OGL LOG] solve : 950 ms
BJcudaGKOCG:  Solving for p, Initial residual = 0.00881714, Final residual = 9.99637e-07, No Iterations 661
linear solve p 983898
time step continuity errors : sum local = 4.05545e-08, global = 3.05448e-21, cumulative = 1.83246e-20
[OGL LOG] init_preconditioner : 0 ms
[OGL LOG] solve : 946 ms
BJcudaGKOCG:  Solving for p, Initial residual = 0.00571872, Final residual = 9.69437e-07, No Iterations 659
linear solve p 980197
time step continuity errors : sum local = 4.05723e-08, global = 1.1674e-20, cumulative = 2.99986e-20
ExecutionTime = 22.19 s  ClockTime = 22 s

Time = 0.003

Courant Number mean: 0.191566 max: 0.968959
DILUPBiCGStab:  Solving for Ux, Initial residual = 4.01411e-05, Final residual = 9.626e-07, No Iterations 5
DILUPBiCGStab:  Solving for Uy, Initial residual = 0.00012457, Final residual = 3.06898e-06, No Iterations 5
DILUPBiCGStab:  Solving for Uz, Initial residual = 0.00149883, Final residual = 2.22265e-05, No Iterations 5
linear solve U 1006660
[OGL LOG] init_preconditioner : 0 ms
[OGL LOG] solve : 943 ms
BJcudaGKOCG:  Solving for p, Initial residual = 0.00521517, Final residual = 9.68193e-07, No Iterations 655
linear solve p 975179
time step continuity errors : sum local = 4.05813e-08, global = 1.86424e-20, cumulative = 4.8641e-20
[OGL LOG] init_preconditioner : 0 ms
[OGL LOG] solve : 940 ms
BJcudaGKOCG:  Solving for p, Initial residual = 0.00441207, Final residual = 9.59909e-07, No Iterations 653
linear solve p 971111
time step continuity errors : sum local = 4.05785e-08, global = 3.41741e-21, cumulative = 5.20584e-20
ExecutionTime = 25.74 s  ClockTime = 26 s

Time = 0.004

Courant Number mean: 0.191573 max: 0.968961
DILUPBiCGStab:  Solving for Ux, Initial residual = 2.96738e-05, Final residual = 7.85059e-07, No Iterations 5
DILUPBiCGStab:  Solving for Uy, Initial residual = 9.29555e-05, Final residual = 2.49162e-06, No Iterations 5
DILUPBiCGStab:  Solving for Uz, Initial residual = 0.00110492, Final residual = 1.48088e-05, No Iterations 5
linear solve U 1043546
[OGL LOG] init_preconditioner : 0 ms
[OGL LOG] solve : 932 ms
BJcudaGKOCG:  Solving for p, Initial residual = 0.00421565, Final residual = 9.71697e-07, No Iterations 650
linear solve p 966455
time step continuity errors : sum local = 4.05804e-08, global = 1.03287e-20, cumulative = 6.23871e-20
[OGL LOG] init_preconditioner : 0 ms
[OGL LOG] solve : 932 ms
BJcudaGKOCG:  Solving for p, Initial residual = 0.00367794, Final residual = 9.72545e-07, No Iterations 648
linear solve p 964678
time step continuity errors : sum local = 4.0581e-08, global = -1.19681e-20, cumulative = 5.0419e-20
ExecutionTime = 29.33 s  ClockTime = 30 s

Time = 0.005

Courant Number mean: 0.191579 max: 0.968962
DILUPBiCGStab:  Solving for Ux, Initial residual = 2.4317e-05, Final residual = 6.81278e-07, No Iterations 5
DILUPBiCGStab:  Solving for Uy, Initial residual = 7.6281e-05, Final residual = 2.13779e-06, No Iterations 5
DILUPBiCGStab:  Solving for Uz, Initial residual = 0.00086337, Final residual = 1.12119e-05, No Iterations 5
linear solve U 1041013
[OGL LOG] init_preconditioner : 0 ms
[OGL LOG] solve : 920 ms
BJcudaGKOCG:  Solving for p, Initial residual = 0.00356308, Final residual = 9.89981e-07, No Iterations 644
linear solve p 952644
time step continuity errors : sum local = 4.05857e-08, global = -4.4854e-21, cumulative = 4.59336e-20
[OGL LOG] init_preconditioner : 0 ms
[OGL LOG] solve : 920 ms
BJcudaGKOCG:  Solving for p, Initial residual = 0.00312061, Final residual = 9.97132e-07, No Iterations 642
linear solve p 953063
time step continuity errors : sum local = 4.05876e-08, global = 6.48079e-21, cumulative = 5.24144e-20
ExecutionTime = 32.88 s  ClockTime = 33 s

Time = 0.006

Courant Number mean: 0.191586 max: 0.968962
DILUPBiCGStab:  Solving for Ux, Initial residual = 2.04716e-05, Final residual = 5.95546e-07, No Iterations 5
DILUPBiCGStab:  Solving for Uy, Initial residual = 6.43206e-05, Final residual = 1.87299e-06, No Iterations 5
DILUPBiCGStab:  Solving for Uz, Initial residual = 0.000698498, Final residual = 8.79477e-06, No Iterations 5
linear solve U 1038694
[OGL LOG] init_preconditioner : 0 ms
[OGL LOG] solve : 921 ms
BJcudaGKOCG:  Solving for p, Initial residual = 0.00304428, Final residual = 9.70257e-07, No Iterations 639
linear solve p 955234
time step continuity errors : sum local = 4.05797e-08, global = 4.324e-21, cumulative = 5.67384e-20
[OGL LOG] init_preconditioner : 0 ms
[OGL LOG] solve : 913 ms
BJcudaGKOCG:  Solving for p, Initial residual = 0.00266533, Final residual = 9.90818e-07, No Iterations 636
linear solve p 944241
time step continuity errors : sum local = 4.05865e-08, global = -3.32106e-20, cumulative = 2.35278e-20
ExecutionTime = 36.44 s  ClockTime = 37 s

Time = 0.007

Courant Number mean: 0.191591 max: 0.968963
DILUPBiCGStab:  Solving for Ux, Initial residual = 1.75032e-05, Final residual = 5.16539e-07, No Iterations 5
DILUPBiCGStab:  Solving for Uy, Initial residual = 5.56116e-05, Final residual = 1.64582e-06, No Iterations 5
DILUPBiCGStab:  Solving for Uz, Initial residual = 0.000572409, Final residual = 7.21439e-06, No Iterations 5
linear solve U 1048590
[OGL LOG] init_preconditioner : 0 ms
[OGL LOG] solve : 898 ms
BJcudaGKOCG:  Solving for p, Initial residual = 0.00261341, Final residual = 9.99282e-07, No Iterations 626
linear solve p 928949
time step continuity errors : sum local = 4.05899e-08, global = 1.33896e-20, cumulative = 3.69173e-20
[OGL LOG] init_preconditioner : 0 ms
[OGL LOG] solve : 894 ms
BJcudaGKOCG:  Solving for p, Initial residual = 0.00228512, Final residual = 9.80694e-07, No Iterations 624
linear solve p 926011
time step continuity errors : sum local = 4.05834e-08, global = 1.9847e-21, cumulative = 3.8902e-20
ExecutionTime = 39.94 s  ClockTime = 40 s

Time = 0.008

Courant Number mean: 0.191597 max: 0.968964
DILUPBiCGStab:  Solving for Ux, Initial residual = 1.53173e-05, Final residual = 4.51087e-07, No Iterations 5
DILUPBiCGStab:  Solving for Uy, Initial residual = 4.7852e-05, Final residual = 1.4223e-06, No Iterations 5
DILUPBiCGStab:  Solving for Uz, Initial residual = 0.000475944, Final residual = 6.05749e-06, No Iterations 5
linear solve U 1055715
[OGL LOG] init_preconditioner : 0 ms
[OGL LOG] solve : 883 ms
BJcudaGKOCG:  Solving for p, Initial residual = 0.00225202, Final residual = 9.88768e-07, No Iterations 617
linear solve p 917428
time step continuity errors : sum local = 4.05854e-08, global = 1.27046e-20, cumulative = 5.16066e-20
[OGL LOG] init_preconditioner : 0 ms
[OGL LOG] solve : 883 ms
BJcudaGKOCG:  Solving for p, Initial residual = 0.00196529, Final residual = 9.79789e-07, No Iterations 615
linear solve p 916059
time step continuity errors : sum local = 4.05835e-08, global = -5.54279e-21, cumulative = 4.60638e-20
ExecutionTime = 43.43 s  ClockTime = 44 s

Time = 0.009

Courant Number mean: 0.191602 max: 0.968965
DILUPBiCGStab:  Solving for Ux, Initial residual = 1.32959e-05, Final residual = 3.84647e-07, No Iterations 5
DILUPBiCGStab:  Solving for Uy, Initial residual = 4.24201e-05, Final residual = 1.23281e-06, No Iterations 5
DILUPBiCGStab:  Solving for Uz, Initial residual = 0.00039554, Final residual = 5.10046e-06, No Iterations 5
linear solve U 1042106
[OGL LOG] init_preconditioner : 0 ms
[OGL LOG] solve : 879 ms
BJcudaGKOCG:  Solving for p, Initial residual = 0.0019444, Final residual = 9.60542e-07, No Iterations 611
linear solve p 911829
time step continuity errors : sum local = 4.05784e-08, global = 1.21073e-20, cumulative = 5.81711e-20
[OGL LOG] init_preconditioner : 0 ms
[OGL LOG] solve : 876 ms
BJcudaGKOCG:  Solving for p, Initial residual = 0.00169374, Final residual = 9.60036e-07, No Iterations 609
linear solve p 907950
time step continuity errors : sum local = 4.05776e-08, global = -9.84782e-21, cumulative = 4.83233e-20
ExecutionTime = 46.88 s  ClockTime = 47 s

Time = 0.01

Courant Number mean: 0.191607 max: 0.968965
DILUPBiCGStab:  Solving for Ux, Initial residual = 1.19146e-05, Final residual = 3.28199e-07, No Iterations 5
DILUPBiCGStab:  Solving for Uy, Initial residual = 3.69498e-05, Final residual = 1.04213e-06, No Iterations 5
DILUPBiCGStab:  Solving for Uz, Initial residual = 0.000333031, Final residual = 4.33169e-06, No Iterations 5
linear solve U 1040269
[OGL LOG] init_preconditioner : 0 ms
[OGL LOG] solve : 865 ms
BJcudaGKOCG:  Solving for p, Initial residual = 0.00168327, Final residual = 9.83543e-07, No Iterations 600
linear solve p 905989
time step continuity errors : sum local = 4.05841e-08, global = -8.91009e-21, cumulative = 3.94132e-20
[OGL LOG] init_preconditioner : 0 ms
[OGL LOG] solve : 859 ms
BJcudaGKOCG:  Solving for p, Initial residual = 0.00146393, Final residual = 9.83207e-07, No Iterations 598
linear solve p 890017
time step continuity errors : sum local = 4.05842e-08, global = 1.28626e-20, cumulative = 5.22758e-20
ExecutionTime = 50.33 s  ClockTime = 51 s

End

