/*---------------------------------------------------------------------------*\
  =========                 |
  \\      /  F ield         | OpenFOAM: The Open Source CFD Toolbox
   \\    /   O peration     | Website:  https://openfoam.org
    \\  /    A nd           | Version:  8
     \\/     M anipulation  |
\*---------------------------------------------------------------------------*/
Build  : 8-ef60d22ea792
Exec   : icoFoam
Date   : Sep 11 2021
Time   : 14:36:32
Host   : "uc2n513.localdomain"
PID    : 229283
I/O    : uncollated
Case   : /pfs/data5/home/kit/scc/nq7776/data/code/OBR/lidDrivenCavity3D/Variation_init/100/Variation_mesh/10/Variation_matrix_solver/BiCGStab_NoPrecond_CUDA/1631363790
nProcs : 1
sigFpe : Enabling floating point exception trapping (FOAM_SIGFPE).
fileModificationChecking : Monitoring run-time modified files using timeStampMaster (fileModificationSkew 10)
allowSystemOperations : Allowing user-supplied system call operations

// * * * * * * * * * * * * * * * * * * * * * * * * * * * * * * * * * * * * * //
Create time

Create mesh for time = 0

Reading transportProperties

Reading field p

Reading field U

Reading/calculating face flux field phi


Starting time loop

Time = 0.01

Courant Number mean: 0.184879 max: 0.722295
DILUPBiCGStab:  Solving for Ux, Initial residual = 0.138471, Final residual = 2.65068e-09, No Iterations 5
DILUPBiCGStab:  Solving for Uy, Initial residual = 0.150118, Final residual = 5.88061e-10, No Iterations 5
DILUPBiCGStab:  Solving for Uz, Initial residual = 0.278898, Final residual = 3.06847e-09, No Iterations 5
linear solve U 806
[OGL LOG] init_host_sparsity_pattern : 0 ms
[OGL LOG] matrix not stored update host matrix
[OGL LOG] update_host_mtx : 0 ms
[OGL LOG] matrix is not yet sorted, compute sorting idxs
[OGL LOG] compute_sort : 5 ms
[OGL LOG] matrix is not yet sorted, sorting host matrix
[OGL LOG] sort_host_mtx_sparsity_pattern : 0 ms
[OGL LOG] sort_host_mtx : 0 ms
[OGL LOG] init_preconditioner : 0 ms
[OGL LOG] solve : 20 ms
nonecudaGKOBiCGStab:  Solving for p, Initial residual = 0.615468, Final residual = 8.66127e-07, No Iterations 70
linear solve p 745641
time step continuity errors : sum local = 5.29963e-08, global = 2.23086e-19, cumulative = 2.23086e-19
[OGL LOG] init_preconditioner : 0 ms
[OGL LOG] solve : 19 ms
nonecudaGKOBiCGStab:  Solving for p, Initial residual = 0.309178, Final residual = 7.66753e-07, No Iterations 69
linear solve p 19963
time step continuity errors : sum local = 2.55644e-08, global = 4.73263e-19, cumulative = 6.9635e-19
ExecutionTime = 0.8 s  ClockTime = 1 s

Time = 0.02

Courant Number mean: 0.18126 max: 0.69519
DILUPBiCGStab:  Solving for Ux, Initial residual = 0.029807, Final residual = 1.18553e-09, No Iterations 5
DILUPBiCGStab:  Solving for Uy, Initial residual = 0.0402526, Final residual = 4.76617e-09, No Iterations 5
DILUPBiCGStab:  Solving for Uz, Initial residual = 0.0940026, Final residual = 1.10433e-09, No Iterations 5
linear solve U 561
[OGL LOG] init_preconditioner : 0 ms
[OGL LOG] solve : 19 ms
nonecudaGKOBiCGStab:  Solving for p, Initial residual = 0.144567, Final residual = 8.15062e-07, No Iterations 69
linear solve p 20087
time step continuity errors : sum local = 2.74126e-05, global = 2.94013e-19, cumulative = 9.90363e-19
[OGL LOG] init_preconditioner : 0 ms
[OGL LOG] solve : 19 ms
nonecudaGKOBiCGStab:  Solving for p, Initial residual = 0.0646361, Final residual = 2.67154e-07, No Iterations 67
linear solve p 19398
time step continuity errors : sum local = 2.4533e-05, global = -5.34293e-19, cumulative = 4.5607e-19
ExecutionTime = 0.84 s  ClockTime = 1 s

Time = 0.03

Courant Number mean: 0.179525 max: 0.686072
DILUPBiCGStab:  Solving for Ux, Initial residual = 0.0044589, Final residual = 1.13126e-10, No Iterations 5
DILUPBiCGStab:  Solving for Uy, Initial residual = 0.00704992, Final residual = 8.18522e-10, No Iterations 5
DILUPBiCGStab:  Solving for Uz, Initial residual = 0.0284161, Final residual = 1.44995e-09, No Iterations 5
linear solve U 553
[OGL LOG] init_preconditioner : 0 ms
[OGL LOG] solve : 16 ms
nonecudaGKOBiCGStab:  Solving for p, Initial residual = 0.014728, Final residual = 7.18923e-07, No Iterations 57
linear solve p 16566
time step continuity errors : sum local = 2.44232e-05, global = -2.86535e-20, cumulative = 4.27417e-19
[OGL LOG] init_preconditioner : 0 ms
[OGL LOG] solve : 16 ms
nonecudaGKOBiCGStab:  Solving for p, Initial residual = 0.00671951, Final residual = 4.57634e-07, No Iterations 59
linear solve p 17151
time step continuity errors : sum local = 2.44105e-05, global = 1.23349e-19, cumulative = 5.50766e-19
ExecutionTime = 0.87 s  ClockTime = 1 s

Time = 0.04

Courant Number mean: 0.178874 max: 0.683124
DILUPBiCGStab:  Solving for Ux, Initial residual = 0.00128792, Final residual = 3.61457e-11, No Iterations 5
DILUPBiCGStab:  Solving for Uy, Initial residual = 0.00194378, Final residual = 2.44299e-09, No Iterations 5
DILUPBiCGStab:  Solving for Uz, Initial residual = 0.00915125, Final residual = 3.87479e-10, No Iterations 5
linear solve U 547
[OGL LOG] init_preconditioner : 0 ms
[OGL LOG] solve : 16 ms
nonecudaGKOBiCGStab:  Solving for p, Initial residual = 0.00287189, Final residual = 5.87895e-07, No Iterations 57
linear solve p 16555
time step continuity errors : sum local = 2.44732e-05, global = 1.82906e-19, cumulative = 7.33672e-19
[OGL LOG] init_preconditioner : 0 ms
[OGL LOG] solve : 14 ms
nonecudaGKOBiCGStab:  Solving for p, Initial residual = 0.00179465, Final residual = 7.81688e-07, No Iterations 51
linear solve p 14803
time step continuity errors : sum local = 2.44344e-05, global = -1.4426e-19, cumulative = 5.89412e-19
ExecutionTime = 0.9 s  ClockTime = 1 s

Time = 0.05

Courant Number mean: 0.178608 max: 0.682133
DILUPBiCGStab:  Solving for Ux, Initial residual = 0.00045243, Final residual = 9.81492e-12, No Iterations 5
DILUPBiCGStab:  Solving for Uy, Initial residual = 0.000695583, Final residual = 1.82054e-09, No Iterations 5
DILUPBiCGStab:  Solving for Uz, Initial residual = 0.00435797, Final residual = 1.48162e-10, No Iterations 5
linear solve U 543
[OGL LOG] init_preconditioner : 0 ms
[OGL LOG] solve : 15 ms
nonecudaGKOBiCGStab:  Solving for p, Initial residual = 0.00105407, Final residual = 9.7112e-07, No Iterations 52
linear solve p 15176
time step continuity errors : sum local = 2.44535e-05, global = -2.61389e-19, cumulative = 3.28023e-19
[OGL LOG] init_preconditioner : 0 ms
[OGL LOG] solve : 7 ms
nonecudaGKOBiCGStab:  Solving for p, Initial residual = 0.000627179, Final residual = 9.6454e-07, No Iterations 25
linear solve p 7761
time step continuity errors : sum local = 2.44393e-05, global = 1.13026e-18, cumulative = 1.45828e-18
ExecutionTime = 0.93 s  ClockTime = 1 s

Time = 0.06

Courant Number mean: 0.178489 max: 0.681727
DILUPBiCGStab:  Solving for Ux, Initial residual = 0.000194502, Final residual = 3.44609e-12, No Iterations 5
DILUPBiCGStab:  Solving for Uy, Initial residual = 0.000278652, Final residual = 7.87369e-11, No Iterations 5
DILUPBiCGStab:  Solving for Uz, Initial residual = 0.00218797, Final residual = 5.52161e-11, No Iterations 5
linear solve U 544
[OGL LOG] init_preconditioner : 0 ms
[OGL LOG] solve : 6 ms
nonecudaGKOBiCGStab:  Solving for p, Initial residual = 0.00042548, Final residual = 9.69015e-07, No Iterations 21
linear solve p 6637
time step continuity errors : sum local = 2.44367e-05, global = 3.96782e-19, cumulative = 1.85506e-18
[OGL LOG] init_preconditioner : 0 ms
[OGL LOG] solve : 6 ms
nonecudaGKOBiCGStab:  Solving for p, Initial residual = 0.000264858, Final residual = 8.80916e-07, No Iterations 20
linear solve p 6360
time step continuity errors : sum local = 2.44335e-05, global = -5.83791e-19, cumulative = 1.27127e-18
ExecutionTime = 0.95 s  ClockTime = 1 s

Time = 0.07

Courant Number mean: 0.178435 max: 0.68156
DILUPBiCGStab:  Solving for Ux, Initial residual = 9.198e-05, Final residual = 1.04311e-12, No Iterations 5
DILUPBiCGStab:  Solving for Uy, Initial residual = 0.000124476, Final residual = 8.8902e-11, No Iterations 5
DILUPBiCGStab:  Solving for Uz, Initial residual = 0.00112365, Final residual = 2.65537e-11, No Iterations 5
linear solve U 549
[OGL LOG] init_preconditioner : 0 ms
[OGL LOG] solve : 5 ms
nonecudaGKOBiCGStab:  Solving for p, Initial residual = 0.000193082, Final residual = 7.07397e-07, No Iterations 19
linear solve p 6095
time step continuity errors : sum local = 2.44322e-05, global = -1.37511e-19, cumulative = 1.13376e-18
[OGL LOG] init_preconditioner : 0 ms
[OGL LOG] solve : 5 ms
nonecudaGKOBiCGStab:  Solving for p, Initial residual = 0.000118706, Final residual = 8.62954e-07, No Iterations 17
linear solve p 5535
time step continuity errors : sum local = 2.4429e-05, global = 2.6483e-19, cumulative = 1.39859e-18
ExecutionTime = 0.96 s  ClockTime = 1 s

Time = 0.08

Courant Number mean: 0.178409 max: 0.681485
DILUPBiCGStab:  Solving for Ux, Initial residual = 4.56502e-05, Final residual = 3.59771e-13, No Iterations 5
DILUPBiCGStab:  Solving for Uy, Initial residual = 5.89722e-05, Final residual = 7.72246e-12, No Iterations 5
DILUPBiCGStab:  Solving for Uz, Initial residual = 0.000589005, Final residual = 1.22637e-11, No Iterations 5
linear solve U 548
[OGL LOG] init_preconditioner : 0 ms
[OGL LOG] solve : 5 ms
nonecudaGKOBiCGStab:  Solving for p, Initial residual = 9.33855e-05, Final residual = 6.50663e-07, No Iterations 18
linear solve p 5818
time step continuity errors : sum local = 2.44291e-05, global = 2.913e-19, cumulative = 1.68989e-18
[OGL LOG] init_preconditioner : 0 ms
[OGL LOG] solve : 5 ms
nonecudaGKOBiCGStab:  Solving for p, Initial residual = 5.74613e-05, Final residual = 6.90307e-07, No Iterations 16
linear solve p 5266
time step continuity errors : sum local = 2.44271e-05, global = 1.07798e-19, cumulative = 1.79769e-18
ExecutionTime = 0.97 s  ClockTime = 1 s

Time = 0.09

Courant Number mean: 0.178396 max: 0.681452
DILUPBiCGStab:  Solving for Ux, Initial residual = 2.3051e-05, Final residual = 1.29312e-13, No Iterations 5
DILUPBiCGStab:  Solving for Uy, Initial residual = 2.89271e-05, Final residual = 2.00728e-12, No Iterations 5
DILUPBiCGStab:  Solving for Uz, Initial residual = 0.000309205, Final residual = 6.25151e-12, No Iterations 5
linear solve U 552
[OGL LOG] init_preconditioner : 0 ms
[OGL LOG] solve : 5 ms
nonecudaGKOBiCGStab:  Solving for p, Initial residual = 4.5635e-05, Final residual = 8.28775e-07, No Iterations 16
linear solve p 5249
time step continuity errors : sum local = 2.4428e-05, global = -7.2064e-20, cumulative = 1.72563e-18
[OGL LOG] init_preconditioner : 0 ms
[OGL LOG] solve : 4 ms
nonecudaGKOBiCGStab:  Solving for p, Initial residual = 2.79017e-05, Final residual = 8.22065e-07, No Iterations 14
linear solve p 4771
time step continuity errors : sum local = 2.44263e-05, global = -3.70378e-19, cumulative = 1.35525e-18
ExecutionTime = 0.98 s  ClockTime = 1 s

Time = 0.1

Courant Number mean: 0.17839 max: 0.681436
DILUPBiCGStab:  Solving for Ux, Initial residual = 1.18106e-05, Final residual = 5.25196e-14, No Iterations 5
DILUPBiCGStab:  Solving for Uy, Initial residual = 1.45861e-05, Final residual = 9.67831e-13, No Iterations 5
DILUPBiCGStab:  Solving for Uz, Initial residual = 0.000163854, Final residual = 3.32531e-12, No Iterations 5
linear solve U 582
[OGL LOG] init_preconditioner : 0 ms
[OGL LOG] solve : 4 ms
nonecudaGKOBiCGStab:  Solving for p, Initial residual = 2.30819e-05, Final residual = 9.12106e-07, No Iterations 13
linear solve p 4458
time step continuity errors : sum local = 2.44275e-05, global = -5.60233e-19, cumulative = 7.95016e-19
[OGL LOG] init_preconditioner : 0 ms
[OGL LOG] solve : 3 ms
nonecudaGKOBiCGStab:  Solving for p, Initial residual = 1.40576e-05, Final residual = 9.75046e-07, No Iterations 10
linear solve p 3606
time step continuity errors : sum local = 2.44261e-05, global = -4.54486e-19, cumulative = 3.4053e-19
ExecutionTime = 0.99 s  ClockTime = 1 s

End

