/*---------------------------------------------------------------------------*\
  =========                 |
  \\      /  F ield         | OpenFOAM: The Open Source CFD Toolbox
   \\    /   O peration     | Website:  https://openfoam.org
    \\  /    A nd           | Version:  8
     \\/     M anipulation  |
\*---------------------------------------------------------------------------*/
Build  : 8-ef60d22ea792
Exec   : icoFoam
Date   : Sep 11 2021
Time   : 13:36:23
Host   : "uc2n513.localdomain"
PID    : 214675
I/O    : uncollated
Case   : /pfs/data5/home/kit/scc/nq7776/data/code/OBR/lidDrivenCavity3D/Variation_init/100/Variation_mesh/5/Variation_matrix_solver/CG_ILU_CUDA/1631360181
nProcs : 1
sigFpe : Enabling floating point exception trapping (FOAM_SIGFPE).
fileModificationChecking : Monitoring run-time modified files using timeStampMaster (fileModificationSkew 10)
allowSystemOperations : Allowing user-supplied system call operations

// * * * * * * * * * * * * * * * * * * * * * * * * * * * * * * * * * * * * * //
Create time

Create mesh for time = 0

Reading transportProperties

Reading field p

Reading field U

Reading/calculating face flux field phi


Starting time loop

Time = 0.02

Courant Number mean: 0.165966 max: 0.393736
DILUPBiCGStab:  Solving for Ux, Initial residual = 0.257055, Final residual = 2.34833e-13, No Iterations 5
DILUPBiCGStab:  Solving for Uy, Initial residual = 0.188796, Final residual = 5.98254e-14, No Iterations 5
DILUPBiCGStab:  Solving for Uz, Initial residual = 0.171115, Final residual = 6.75568e-14, No Iterations 5
linear solve U 178
[OGL LOG] init_host_sparsity_pattern : 0 ms
[OGL LOG] matrix not stored update host matrix
[OGL LOG] update_host_mtx : 0 ms
[OGL LOG] matrix is not yet sorted, compute sorting idxs
[OGL LOG] compute_sort : 0 ms
[OGL LOG] matrix is not yet sorted, sorting host matrix
[OGL LOG] sort_host_mtx_sparsity_pattern : 0 ms
[OGL LOG] sort_host_mtx : 0 ms
[OGL LOG] init_preconditioner : 3 ms
[OGL LOG] solve : 4 ms
ILUcudaGKOCG:  Solving for p, Initial residual = 0.607222, Final residual = 1.35925e-07, No Iterations 14
linear solve p 731461
time step continuity errors : sum local = 1.18244e-08, global = -9.29089e-20, cumulative = -9.29089e-20
[OGL LOG] init_preconditioner : 0 ms
[OGL LOG] solve : 3 ms
ILUcudaGKOCG:  Solving for p, Initial residual = 0.279374, Final residual = 5.29105e-07, No Iterations 13
linear solve p 3332
time step continuity errors : sum local = 2.39486e-08, global = -1.32269e-18, cumulative = -1.4156e-18
ExecutionTime = 0.77 s  ClockTime = 0 s

Time = 0.04

Courant Number mean: 0.153195 max: 0.395566
DILUPBiCGStab:  Solving for Ux, Initial residual = 0.0697041, Final residual = 3.44951e-14, No Iterations 5
DILUPBiCGStab:  Solving for Uy, Initial residual = 0.0816975, Final residual = 4.41302e-14, No Iterations 5
DILUPBiCGStab:  Solving for Uz, Initial residual = 0.163154, Final residual = 1.83491e-13, No Iterations 5
linear solve U 109
[OGL LOG] init_preconditioner : 0 ms
[OGL LOG] solve : 3 ms
ILUcudaGKOCG:  Solving for p, Initial residual = 0.204578, Final residual = 4.23948e-07, No Iterations 13
linear solve p 3229
time step continuity errors : sum local = 0.00025657, global = 8.51268e-19, cumulative = -5.64336e-19
[OGL LOG] init_preconditioner : 0 ms
[OGL LOG] solve : 3 ms
ILUcudaGKOCG:  Solving for p, Initial residual = 0.0754446, Final residual = 1.27877e-07, No Iterations 13
linear solve p 3263
time step continuity errors : sum local = 0.000229887, global = 5.10337e-19, cumulative = -5.39984e-20
ExecutionTime = 0.78 s  ClockTime = 0 s

Time = 0.06

Courant Number mean: 0.14992 max: 0.386777
DILUPBiCGStab:  Solving for Ux, Initial residual = 0.0140755, Final residual = 1.87195e-15, No Iterations 5
DILUPBiCGStab:  Solving for Uy, Initial residual = 0.0173409, Final residual = 3.57214e-15, No Iterations 5
DILUPBiCGStab:  Solving for Uz, Initial residual = 0.106766, Final residual = 9.14441e-14, No Iterations 5
linear solve U 100
[OGL LOG] init_preconditioner : 0 ms
[OGL LOG] solve : 2 ms
ILUcudaGKOCG:  Solving for p, Initial residual = 0.0133806, Final residual = 5.35412e-07, No Iterations 11
linear solve p 2898
time step continuity errors : sum local = 0.000231032, global = 2.85874e-20, cumulative = -2.5411e-20
[OGL LOG] init_preconditioner : 0 ms
[OGL LOG] solve : 2 ms
ILUcudaGKOCG:  Solving for p, Initial residual = 0.00246093, Final residual = 9.70087e-07, No Iterations 10
linear solve p 2659
time step continuity errors : sum local = 0.000230713, global = -9.25383e-19, cumulative = -9.50794e-19
ExecutionTime = 0.79 s  ClockTime = 0 s

Time = 0.08

Courant Number mean: 0.149044 max: 0.383217
DILUPBiCGStab:  Solving for Ux, Initial residual = 0.00403833, Final residual = 6.44994e-16, No Iterations 5
DILUPBiCGStab:  Solving for Uy, Initial residual = 0.00513777, Final residual = 1.17077e-15, No Iterations 5
DILUPBiCGStab:  Solving for Uz, Initial residual = 0.0353913, Final residual = 3.10647e-14, No Iterations 5
linear solve U 104
[OGL LOG] init_preconditioner : 0 ms
[OGL LOG] solve : 2 ms
ILUcudaGKOCG:  Solving for p, Initial residual = 0.00346108, Final residual = 2.46819e-07, No Iterations 11
linear solve p 2832
time step continuity errors : sum local = 0.000231555, global = -5.0822e-19, cumulative = -1.45901e-18
[OGL LOG] init_preconditioner : 0 ms
[OGL LOG] solve : 2 ms
ILUcudaGKOCG:  Solving for p, Initial residual = 0.00137433, Final residual = 7.14688e-07, No Iterations 10
linear solve p 2663
time step continuity errors : sum local = 0.000231178, global = 5.56924e-19, cumulative = -9.0209e-19
ExecutionTime = 0.79 s  ClockTime = 0 s

Time = 0.1

Courant Number mean: 0.148703 max: 0.381686
DILUPBiCGStab:  Solving for Ux, Initial residual = 0.00124464, Final residual = 2.81702e-16, No Iterations 5
DILUPBiCGStab:  Solving for Uy, Initial residual = 0.00166958, Final residual = 2.4184e-16, No Iterations 5
DILUPBiCGStab:  Solving for Uz, Initial residual = 0.0148789, Final residual = 8.41959e-15, No Iterations 5
linear solve U 95
[OGL LOG] init_preconditioner : 0 ms
[OGL LOG] solve : 2 ms
ILUcudaGKOCG:  Solving for p, Initial residual = 0.00100099, Final residual = 5.47927e-07, No Iterations 10
linear solve p 2667
time step continuity errors : sum local = 0.000231358, global = 4.03399e-19, cumulative = -4.98691e-19
[OGL LOG] init_preconditioner : 0 ms
[OGL LOG] solve : 2 ms
ILUcudaGKOCG:  Solving for p, Initial residual = 0.000356313, Final residual = 9.25703e-07, No Iterations 9
linear solve p 2414
time step continuity errors : sum local = 0.000231262, global = 3.10226e-19, cumulative = -1.88465e-19
ExecutionTime = 0.8 s  ClockTime = 0 s

Time = 0.12

Courant Number mean: 0.148579 max: 0.381084
DILUPBiCGStab:  Solving for Ux, Initial residual = 0.000408172, Final residual = 1.18419e-16, No Iterations 5
DILUPBiCGStab:  Solving for Uy, Initial residual = 0.000559842, Final residual = 6.79818e-17, No Iterations 5
DILUPBiCGStab:  Solving for Uz, Initial residual = 0.00594069, Final residual = 2.35345e-15, No Iterations 5
linear solve U 94
[OGL LOG] init_preconditioner : 0 ms
[OGL LOG] solve : 2 ms
ILUcudaGKOCG:  Solving for p, Initial residual = 0.000391229, Final residual = 7.85526e-07, No Iterations 9
linear solve p 2433
time step continuity errors : sum local = 0.000231339, global = 3.30343e-19, cumulative = 1.41878e-19
[OGL LOG] init_preconditioner : 0 ms
[OGL LOG] solve : 2 ms
ILUcudaGKOCG:  Solving for p, Initial residual = 0.000145754, Final residual = 3.06297e-07, No Iterations 9
linear solve p 2411
time step continuity errors : sum local = 0.000231297, global = -6.35275e-21, cumulative = 1.35525e-19
ExecutionTime = 0.8 s  ClockTime = 0 s

Time = 0.14

Courant Number mean: 0.148534 max: 0.380857
DILUPBiCGStab:  Solving for Ux, Initial residual = 0.000140868, Final residual = 4.823e-17, No Iterations 5
DILUPBiCGStab:  Solving for Uy, Initial residual = 0.00019524, Final residual = 2.70751e-17, No Iterations 5
DILUPBiCGStab:  Solving for Uz, Initial residual = 0.00241456, Final residual = 6.66411e-16, No Iterations 5
linear solve U 98
[OGL LOG] init_preconditioner : 0 ms
[OGL LOG] solve : 2 ms
ILUcudaGKOCG:  Solving for p, Initial residual = 0.000152113, Final residual = 2.87419e-07, No Iterations 9
linear solve p 2422
time step continuity errors : sum local = 0.000231323, global = -5.0822e-20, cumulative = 8.47033e-20
[OGL LOG] init_preconditioner : 0 ms
[OGL LOG] solve : 2 ms
ILUcudaGKOCG:  Solving for p, Initial residual = 5.44935e-05, Final residual = 5.18776e-07, No Iterations 8
linear solve p 2220
time step continuity errors : sum local = 0.000231311, global = -6.79744e-19, cumulative = -5.95041e-19
ExecutionTime = 0.81 s  ClockTime = 0 s

Time = 0.16

Courant Number mean: 0.148518 max: 0.380773
DILUPBiCGStab:  Solving for Ux, Initial residual = 5.07182e-05, Final residual = 1.90548e-17, No Iterations 5
DILUPBiCGStab:  Solving for Uy, Initial residual = 7.0321e-05, Final residual = 1.46906e-17, No Iterations 5
DILUPBiCGStab:  Solving for Uz, Initial residual = 0.000978575, Final residual = 2.09604e-16, No Iterations 5
linear solve U 94
[OGL LOG] init_preconditioner : 0 ms
[OGL LOG] solve : 1 ms
ILUcudaGKOCG:  Solving for p, Initial residual = 5.85284e-05, Final residual = 7.87849e-07, No Iterations 4
linear solve p 1442
time step continuity errors : sum local = 0.000231342, global = 1.09055e-19, cumulative = -4.85985e-19
[OGL LOG] init_preconditioner : 0 ms
[OGL LOG] solve : 1 ms
ILUcudaGKOCG:  Solving for p, Initial residual = 2.09575e-05, Final residual = 6.59082e-07, No Iterations 3
linear solve p 1235
time step continuity errors : sum local = 0.000231324, global = -3.69518e-19, cumulative = -8.55503e-19
ExecutionTime = 0.81 s  ClockTime = 0 s

Time = 0.18

Courant Number mean: 0.148513 max: 0.380744
DILUPBiCGStab:  Solving for Ux, Initial residual = 1.9011e-05, Final residual = 8.05781e-18, No Iterations 5
DILUPBiCGStab:  Solving for Uy, Initial residual = 2.61241e-05, Final residual = 6.85316e-18, No Iterations 5
DILUPBiCGStab:  Solving for Uz, Initial residual = 0.000398438, Final residual = 6.80011e-17, No Iterations 5
linear solve U 93
[OGL LOG] init_preconditioner : 0 ms
[OGL LOG] solve : 1 ms
ILUcudaGKOCG:  Solving for p, Initial residual = 2.24258e-05, Final residual = 8.52574e-07, No Iterations 3
linear solve p 1248
time step continuity errors : sum local = 0.000231339, global = -1.07997e-19, cumulative = -9.635e-19
[OGL LOG] init_preconditioner : 0 ms
[OGL LOG] solve : 1 ms
ILUcudaGKOCG:  Solving for p, Initial residual = 7.8384e-06, Final residual = 4.70486e-07, No Iterations 3
linear solve p 1290
time step continuity errors : sum local = 0.000231328, global = 9.52912e-21, cumulative = -9.53971e-19
ExecutionTime = 0.81 s  ClockTime = 0 s

Time = 0.2

Courant Number mean: 0.148511 max: 0.380733
DILUPBiCGStab:  Solving for Ux, Initial residual = 7.27498e-06, Final residual = 3.52826e-18, No Iterations 5
DILUPBiCGStab:  Solving for Uy, Initial residual = 9.93671e-06, Final residual = 5.10815e-18, No Iterations 5
DILUPBiCGStab:  Solving for Uz, Initial residual = 0.000161415, Final residual = 2.8031e-17, No Iterations 5
linear solve U 105
[OGL LOG] init_preconditioner : 0 ms
[OGL LOG] solve : 1 ms
ILUcudaGKOCG:  Solving for p, Initial residual = 8.55159e-06, Final residual = 5.30775e-07, No Iterations 3
linear solve p 1231
time step continuity errors : sum local = 0.000231335, global = 9.26442e-19, cumulative = -2.75286e-20
[OGL LOG] init_preconditioner : 0 ms
[OGL LOG] solve : 0 ms
ILUcudaGKOCG:  Solving for p, Initial residual = 3.17651e-06, Final residual = 5.43854e-07, No Iterations 2
linear solve p 1026
time step continuity errors : sum local = 0.000231329, global = -1.37643e-19, cumulative = -1.65171e-19
ExecutionTime = 0.81 s  ClockTime = 0 s

End

