/*---------------------------------------------------------------------------*\
  =========                 |
  \\      /  F ield         | OpenFOAM: The Open Source CFD Toolbox
   \\    /   O peration     | Website:  https://openfoam.org
    \\  /    A nd           | Version:  8
     \\/     M anipulation  |
\*---------------------------------------------------------------------------*/
Build  : 8-ef60d22ea792
Exec   : icoFoam
Date   : Sep 11 2021
Time   : 13:52:26
Host   : "uc2n513.localdomain"
PID    : 222054
I/O    : uncollated
Case   : /pfs/data5/home/kit/scc/nq7776/data/code/OBR/lidDrivenCavity3D/Variation_init/100/Variation_mesh/65/Variation_matrix_solver/BiCGStab_ILU_CUDA/1631361133
nProcs : 1
sigFpe : Enabling floating point exception trapping (FOAM_SIGFPE).
fileModificationChecking : Monitoring run-time modified files using timeStampMaster (fileModificationSkew 10)
allowSystemOperations : Allowing user-supplied system call operations

// * * * * * * * * * * * * * * * * * * * * * * * * * * * * * * * * * * * * * //
Create time

Create mesh for time = 0

Reading transportProperties

Reading field p

Reading field U

Reading/calculating face flux field phi


Starting time loop

Time = 0.00153846

Courant Number mean: 0.191448 max: 0.959317
DILUPBiCGStab:  Solving for Ux, Initial residual = 0.112017, Final residual = 1.40856e-05, No Iterations 5
DILUPBiCGStab:  Solving for Uy, Initial residual = 0.209721, Final residual = 3.34999e-05, No Iterations 5
DILUPBiCGStab:  Solving for Uz, Initial residual = 0.253067, Final residual = 9.19753e-05, No Iterations 5
linear solve U 280583
[OGL LOG] init_host_sparsity_pattern : 77 ms
[OGL LOG] matrix not stored update host matrix
[OGL LOG] update_host_mtx : 40 ms
[OGL LOG] matrix is not yet sorted, compute sorting idxs
[OGL LOG] compute_sort : 2365 ms
[OGL LOG] matrix is not yet sorted, sorting host matrix
[OGL LOG] sort_host_mtx_sparsity_pattern : 51 ms
[OGL LOG] sort_host_mtx : 29 ms
[OGL LOG] init_preconditioner : 80 ms
[OGL LOG] solve : 590 ms
ILUcudaGKOBiCGStab:  Solving for p, Initial residual = 0.548046, Final residual = 7.49198e-07, No Iterations 115
linear solve p 3988723
time step continuity errors : sum local = 1.56588e-06, global = 6.98246e-21, cumulative = 6.98246e-21
[OGL LOG] init_preconditioner : 0 ms
[OGL LOG] solve : 642 ms
ILUcudaGKOBiCGStab:  Solving for p, Initial residual = 0.305804, Final residual = 4.62072e-07, No Iterations 126
linear solve p 651137
time step continuity errors : sum local = 8.49045e-06, global = 3.10933e-20, cumulative = 3.80757e-20
ExecutionTime = 6.35 s  ClockTime = 6 s

Time = 0.00307692

Courant Number mean: 0.191614 max: 0.952625
DILUPBiCGStab:  Solving for Ux, Initial residual = 0.00530385, Final residual = 1.96258e-05, No Iterations 5
DILUPBiCGStab:  Solving for Uy, Initial residual = 0.0107317, Final residual = 3.72761e-05, No Iterations 5
DILUPBiCGStab:  Solving for Uz, Initial residual = 0.0355381, Final residual = 0.000281723, No Iterations 5
linear solve U 257831
[OGL LOG] init_preconditioner : 0 ms
[OGL LOG] solve : 668 ms
ILUcudaGKOBiCGStab:  Solving for p, Initial residual = 0.263891, Final residual = 4.15347e-07, No Iterations 131
linear solve p 676505
time step continuity errors : sum local = 2.95486e-06, global = -2.721e-20, cumulative = 1.08658e-20
[OGL LOG] init_preconditioner : 0 ms
[OGL LOG] solve : 628 ms
ILUcudaGKOBiCGStab:  Solving for p, Initial residual = 0.220758, Final residual = 9.30673e-07, No Iterations 123
linear solve p 637541
time step continuity errors : sum local = 2.9735e-05, global = -3.54518e-21, cumulative = 7.32057e-21
ExecutionTime = 8.09 s  ClockTime = 8 s

Time = 0.00461538

Courant Number mean: 0.19158 max: 0.95306
DILUPBiCGStab:  Solving for Ux, Initial residual = 0.00149728, Final residual = 7.55634e-06, No Iterations 5
DILUPBiCGStab:  Solving for Uy, Initial residual = 0.00383921, Final residual = 1.61565e-05, No Iterations 5
DILUPBiCGStab:  Solving for Uz, Initial residual = 0.0660406, Final residual = 0.000707419, No Iterations 5
linear solve U 256752
[OGL LOG] init_preconditioner : 0 ms
[OGL LOG] solve : 648 ms
ILUcudaGKOBiCGStab:  Solving for p, Initial residual = 0.292938, Final residual = 6.30501e-07, No Iterations 127
linear solve p 657288
time step continuity errors : sum local = 2.63691e-06, global = 1.97077e-20, cumulative = 2.70283e-20
[OGL LOG] init_preconditioner : 0 ms
[OGL LOG] solve : 622 ms
ILUcudaGKOBiCGStab:  Solving for p, Initial residual = 0.235286, Final residual = 2.91154e-07, No Iterations 122
linear solve p 630750
time step continuity errors : sum local = 8.44312e-06, global = -3.90197e-20, cumulative = -1.19915e-20
ExecutionTime = 9.8 s  ClockTime = 10 s

Time = 0.00615385

Courant Number mean: 0.191494 max: 0.953788
DILUPBiCGStab:  Solving for Ux, Initial residual = 0.00087019, Final residual = 3.40553e-06, No Iterations 5
DILUPBiCGStab:  Solving for Uy, Initial residual = 0.00238813, Final residual = 8.34979e-06, No Iterations 5
DILUPBiCGStab:  Solving for Uz, Initial residual = 0.0846117, Final residual = 0.000685315, No Iterations 5
linear solve U 255287
[OGL LOG] init_preconditioner : 0 ms
[OGL LOG] solve : 617 ms
ILUcudaGKOBiCGStab:  Solving for p, Initial residual = 0.252472, Final residual = 9.44176e-07, No Iterations 121
linear solve p 625936
time step continuity errors : sum local = 1.05021e-06, global = -3.40097e-20, cumulative = -4.60012e-20
[OGL LOG] init_preconditioner : 0 ms
[OGL LOG] solve : 607 ms
ILUcudaGKOBiCGStab:  Solving for p, Initial residual = 0.209367, Final residual = 9.41463e-07, No Iterations 119
linear solve p 615440
time step continuity errors : sum local = 1.11525e-06, global = 1.25906e-20, cumulative = -3.34106e-20
ExecutionTime = 11.47 s  ClockTime = 12 s

Time = 0.00769231

Courant Number mean: 0.191458 max: 0.953045
DILUPBiCGStab:  Solving for Ux, Initial residual = 0.000553516, Final residual = 2.2175e-06, No Iterations 5
DILUPBiCGStab:  Solving for Uy, Initial residual = 0.00159505, Final residual = 6.07626e-06, No Iterations 5
DILUPBiCGStab:  Solving for Uz, Initial residual = 0.0745791, Final residual = 0.000386433, No Iterations 5
linear solve U 257491
[OGL LOG] init_preconditioner : 0 ms
[OGL LOG] solve : 607 ms
ILUcudaGKOBiCGStab:  Solving for p, Initial residual = 0.193883, Final residual = 7.43593e-07, No Iterations 119
linear solve p 615611
time step continuity errors : sum local = 1.01818e-05, global = 2.1661e-21, cumulative = -3.12445e-20
[OGL LOG] init_preconditioner : 0 ms
[OGL LOG] solve : 574 ms
ILUcudaGKOBiCGStab:  Solving for p, Initial residual = 0.150584, Final residual = 7.21703e-07, No Iterations 112
linear solve p 584125
time step continuity errors : sum local = 1.88094e-05, global = -2.204e-21, cumulative = -3.34485e-20
ExecutionTime = 13.09 s  ClockTime = 13 s

Time = 0.00923077

Courant Number mean: 0.191426 max: 0.953184
DILUPBiCGStab:  Solving for Ux, Initial residual = 0.000365042, Final residual = 1.22053e-06, No Iterations 5
DILUPBiCGStab:  Solving for Uy, Initial residual = 0.00112363, Final residual = 4.0952e-06, No Iterations 5
DILUPBiCGStab:  Solving for Uz, Initial residual = 0.098712, Final residual = 0.000880648, No Iterations 5
linear solve U 256088
[OGL LOG] init_preconditioner : 0 ms
[OGL LOG] solve : 607 ms
ILUcudaGKOBiCGStab:  Solving for p, Initial residual = 0.279341, Final residual = 7.35568e-07, No Iterations 119
linear solve p 615698
time step continuity errors : sum local = 1.14022e-05, global = 6.0218e-21, cumulative = -2.74267e-20
[OGL LOG] init_preconditioner : 0 ms
[OGL LOG] solve : 602 ms
ILUcudaGKOBiCGStab:  Solving for p, Initial residual = 0.216302, Final residual = 7.36485e-07, No Iterations 118
linear solve p 611424
time step continuity errors : sum local = 3.90999e-06, global = -8.6714e-21, cumulative = -3.60981e-20
ExecutionTime = 14.74 s  ClockTime = 15 s

Time = 0.0107692

Courant Number mean: 0.191425 max: 0.953645
DILUPBiCGStab:  Solving for Ux, Initial residual = 0.000360413, Final residual = 1.60883e-06, No Iterations 5
DILUPBiCGStab:  Solving for Uy, Initial residual = 0.00116173, Final residual = 5.81004e-06, No Iterations 5
DILUPBiCGStab:  Solving for Uz, Initial residual = 0.119747, Final residual = 0.000822962, No Iterations 5
linear solve U 254865
[OGL LOG] init_preconditioner : 0 ms
[OGL LOG] solve : 606 ms
ILUcudaGKOBiCGStab:  Solving for p, Initial residual = 0.271582, Final residual = 6.67721e-07, No Iterations 119
linear solve p 615233
time step continuity errors : sum local = 9.64661e-06, global = 1.41835e-20, cumulative = -2.19146e-20
[OGL LOG] init_preconditioner : 0 ms
[OGL LOG] solve : 598 ms
ILUcudaGKOBiCGStab:  Solving for p, Initial residual = 0.2169, Final residual = 7.99193e-07, No Iterations 117
linear solve p 607910
time step continuity errors : sum local = 1.74827e-05, global = -4.5479e-20, cumulative = -6.73936e-20
ExecutionTime = 16.39 s  ClockTime = 16 s

Time = 0.0123077

Courant Number mean: 0.19141 max: 0.953876
DILUPBiCGStab:  Solving for Ux, Initial residual = 0.00029782, Final residual = 1.50235e-06, No Iterations 5
DILUPBiCGStab:  Solving for Uy, Initial residual = 0.00100947, Final residual = 5.7608e-06, No Iterations 5
DILUPBiCGStab:  Solving for Uz, Initial residual = 0.136051, Final residual = 0.00102908, No Iterations 5
linear solve U 256457
[OGL LOG] init_preconditioner : 0 ms
[OGL LOG] solve : 602 ms
ILUcudaGKOBiCGStab:  Solving for p, Initial residual = 0.319994, Final residual = 6.59478e-07, No Iterations 118
linear solve p 610711
time step continuity errors : sum local = 5.70486e-06, global = -1.04179e-20, cumulative = -7.78115e-20
[OGL LOG] init_preconditioner : 0 ms
[OGL LOG] solve : 581 ms
ILUcudaGKOBiCGStab:  Solving for p, Initial residual = 0.259388, Final residual = 8.55313e-07, No Iterations 114
linear solve p 590062
time step continuity errors : sum local = 3.63285e-05, global = -5.06304e-20, cumulative = -1.28442e-19
ExecutionTime = 18.01 s  ClockTime = 18 s

Time = 0.0138462

Courant Number mean: 0.191415 max: 0.954367
DILUPBiCGStab:  Solving for Ux, Initial residual = 0.000337583, Final residual = 1.90653e-06, No Iterations 5
DILUPBiCGStab:  Solving for Uy, Initial residual = 0.00116544, Final residual = 7.84815e-06, No Iterations 5
DILUPBiCGStab:  Solving for Uz, Initial residual = 0.178676, Final residual = 0.00145251, No Iterations 5
linear solve U 254986
[OGL LOG] init_preconditioner : 0 ms
[OGL LOG] solve : 612 ms
ILUcudaGKOBiCGStab:  Solving for p, Initial residual = 0.402652, Final residual = 8.06486e-07, No Iterations 120
linear solve p 620719
time step continuity errors : sum local = 5.44597e-06, global = -1.76578e-20, cumulative = -1.461e-19
[OGL LOG] init_preconditioner : 0 ms
[OGL LOG] solve : 607 ms
ILUcudaGKOBiCGStab:  Solving for p, Initial residual = 0.327648, Final residual = 3.91658e-07, No Iterations 119
linear solve p 616253
time step continuity errors : sum local = 2.35362e-05, global = 5.86707e-20, cumulative = -8.74289e-20
ExecutionTime = 19.66 s  ClockTime = 20 s

Time = 0.0153846

Courant Number mean: 0.191425 max: 0.955369
DILUPBiCGStab:  Solving for Ux, Initial residual = 0.000454777, Final residual = 2.70133e-06, No Iterations 5
DILUPBiCGStab:  Solving for Uy, Initial residual = 0.00153448, Final residual = 1.00518e-05, No Iterations 5
DILUPBiCGStab:  Solving for Uz, Initial residual = 0.206937, Final residual = 0.00140494, No Iterations 5
linear solve U 264410
[OGL LOG] init_preconditioner : 0 ms
[OGL LOG] solve : 601 ms
ILUcudaGKOBiCGStab:  Solving for p, Initial residual = 0.416037, Final residual = 6.32091e-07, No Iterations 118
linear solve p 610526
time step continuity errors : sum local = 9.40918e-06, global = -2.48079e-20, cumulative = -1.12237e-19
[OGL LOG] init_preconditioner : 0 ms
[OGL LOG] solve : 617 ms
ILUcudaGKOBiCGStab:  Solving for p, Initial residual = 0.338529, Final residual = 6.59433e-07, No Iterations 121
linear solve p 625772
time step continuity errors : sum local = 3.10335e-05, global = 5.20234e-20, cumulative = -6.02134e-20
ExecutionTime = 21.32 s  ClockTime = 21 s

End

