/*---------------------------------------------------------------------------*\
  =========                 |
  \\      /  F ield         | OpenFOAM: The Open Source CFD Toolbox
   \\    /   O peration     | Website:  https://openfoam.org
    \\  /    A nd           | Version:  8
     \\/     M anipulation  |
\*---------------------------------------------------------------------------*/
Build  : 8-ef60d22ea792
Exec   : icoFoam
Date   : Sep 11 2021
Time   : 14:57:10
Host   : "uc2n442.localdomain"
PID    : 3725147
I/O    : uncollated
Case   : /pfs/data5/home/kit/scc/nq7776/data/code/OBR/lidDrivenCavity3D/Variation_init/100/Variation_mesh/60/Variation_matrix_solver/BiCGStab_DIC_Serial/1631365023
nProcs : 1
sigFpe : Enabling floating point exception trapping (FOAM_SIGFPE).
fileModificationChecking : Monitoring run-time modified files using timeStampMaster (fileModificationSkew 10)
allowSystemOperations : Allowing user-supplied system call operations

// * * * * * * * * * * * * * * * * * * * * * * * * * * * * * * * * * * * * * //
Create time

Create mesh for time = 0

Reading transportProperties

Reading field p

Reading field U

Reading/calculating face flux field phi


Starting time loop

Time = 0.00166667

Courant Number mean: 0.191334 max: 0.95794
DILUPBiCGStab:  Solving for Ux, Initial residual = 0.0784069, Final residual = 7.98028e-06, No Iterations 5
DILUPBiCGStab:  Solving for Uy, Initial residual = 0.151717, Final residual = 1.9553e-05, No Iterations 5
DILUPBiCGStab:  Solving for Uz, Initial residual = 0.170934, Final residual = 5.87202e-05, No Iterations 5
linear solve U 206106
DICPBiCGStab:  Solving for p, Initial residual = 0.575692, Final residual = 7.25122e-07, No Iterations 111
linear solve p 1063536
time step continuity errors : sum local = 9.67532e-10, global = 1.04117e-21, cumulative = 1.04117e-21
DICPBiCGStab:  Solving for p, Initial residual = 0.295463, Final residual = 2.07817e-07, No Iterations 115
linear solve p 1106096
time step continuity errors : sum local = 2.01064e-10, global = -3.18589e-20, cumulative = -3.08178e-20
ExecutionTime = 3.45 s  ClockTime = 4 s

Time = 0.00333333

Courant Number mean: 0.191279 max: 0.948742
DILUPBiCGStab:  Solving for Ux, Initial residual = 0.00518959, Final residual = 4.53297e-06, No Iterations 5
DILUPBiCGStab:  Solving for Uy, Initial residual = 0.0106552, Final residual = 7.69839e-06, No Iterations 5
DILUPBiCGStab:  Solving for Uz, Initial residual = 0.0155391, Final residual = 4.37078e-05, No Iterations 5
linear solve U 188209
DICPBiCGStab:  Solving for p, Initial residual = 0.146153, Final residual = 8.38416e-07, No Iterations 94
linear solve p 901006
time step continuity errors : sum local = 1.11748e-09, global = 3.50348e-20, cumulative = 4.21705e-21
DICPBiCGStab:  Solving for p, Initial residual = 0.0785993, Final residual = 9.32425e-07, No Iterations 99
linear solve p 945388
time step continuity errors : sum local = 1.00139e-09, global = 3.08608e-20, cumulative = 3.50778e-20
ExecutionTime = 5.6 s  ClockTime = 6 s

Time = 0.005

Courant Number mean: 0.191277 max: 0.948278
DILUPBiCGStab:  Solving for Ux, Initial residual = 0.00061215, Final residual = 1.83403e-06, No Iterations 5
DILUPBiCGStab:  Solving for Uy, Initial residual = 0.00141164, Final residual = 3.7441e-06, No Iterations 5
DILUPBiCGStab:  Solving for Uz, Initial residual = 0.0036542, Final residual = 1.35495e-05, No Iterations 5
linear solve U 185550
DICPBiCGStab:  Solving for p, Initial residual = 0.0578379, Final residual = 9.67466e-07, No Iterations 112
linear solve p 1080433
time step continuity errors : sum local = 8.33524e-10, global = 1.52011e-20, cumulative = 5.0279e-20
DICPBiCGStab:  Solving for p, Initial residual = 0.0407886, Final residual = 4.49422e-07, No Iterations 108
linear solve p 1034853
time step continuity errors : sum local = 3.88162e-10, global = -5.83174e-21, cumulative = 4.44472e-20
ExecutionTime = 8 s  ClockTime = 8 s

Time = 0.00666667

Courant Number mean: 0.191272 max: 0.948309
DILUPBiCGStab:  Solving for Ux, Initial residual = 0.000276677, Final residual = 8.20515e-07, No Iterations 5
DILUPBiCGStab:  Solving for Uy, Initial residual = 0.000722512, Final residual = 1.52689e-06, No Iterations 5
DILUPBiCGStab:  Solving for Uz, Initial residual = 0.00210164, Final residual = 6.10603e-06, No Iterations 5
linear solve U 188871
DICPBiCGStab:  Solving for p, Initial residual = 0.0370686, Final residual = 9.90971e-07, No Iterations 111
linear solve p 1065117
time step continuity errors : sum local = 8.12404e-10, global = -4.82828e-21, cumulative = 3.96189e-20
DICPBiCGStab:  Solving for p, Initial residual = 0.0274986, Final residual = 9.29296e-07, No Iterations 97
linear solve p 934635
time step continuity errors : sum local = 8.64875e-10, global = -1.88432e-20, cumulative = 2.07757e-20
ExecutionTime = 10.3 s  ClockTime = 11 s

Time = 0.00833333

Courant Number mean: 0.191272 max: 0.948269
DILUPBiCGStab:  Solving for Ux, Initial residual = 0.000164587, Final residual = 5.3493e-07, No Iterations 5
DILUPBiCGStab:  Solving for Uy, Initial residual = 0.000455583, Final residual = 1.08922e-06, No Iterations 5
DILUPBiCGStab:  Solving for Uz, Initial residual = 0.00120824, Final residual = 4.32899e-06, No Iterations 5
linear solve U 187627
DICPBiCGStab:  Solving for p, Initial residual = 0.0255976, Final residual = 9.24608e-07, No Iterations 88
linear solve p 850213
time step continuity errors : sum local = 9.52562e-10, global = -4.87735e-21, cumulative = 1.58984e-20
DICPBiCGStab:  Solving for p, Initial residual = 0.0193211, Final residual = 5.31487e-07, No Iterations 99
linear solve p 952123
time step continuity errors : sum local = 4.48955e-10, global = -2.94481e-20, cumulative = -1.35497e-20
ExecutionTime = 12.39 s  ClockTime = 13 s

Time = 0.01

Courant Number mean: 0.191274 max: 0.948301
DILUPBiCGStab:  Solving for Ux, Initial residual = 0.000116054, Final residual = 3.16053e-07, No Iterations 5
DILUPBiCGStab:  Solving for Uy, Initial residual = 0.000324342, Final residual = 6.91373e-07, No Iterations 5
DILUPBiCGStab:  Solving for Uz, Initial residual = 0.00079689, Final residual = 2.61571e-06, No Iterations 5
linear solve U 187206
DICPBiCGStab:  Solving for p, Initial residual = 0.0183587, Final residual = 9.97952e-07, No Iterations 92
linear solve p 884434
time step continuity errors : sum local = 1.04942e-09, global = -2.17277e-20, cumulative = -3.52775e-20
DICPBiCGStab:  Solving for p, Initial residual = 0.0140847, Final residual = 9.90397e-07, No Iterations 71
linear solve p 687775
time step continuity errors : sum local = 1.017e-09, global = -1.51653e-20, cumulative = -5.04427e-20
ExecutionTime = 14.26 s  ClockTime = 15 s

Time = 0.0116667

Courant Number mean: 0.191275 max: 0.948277
DILUPBiCGStab:  Solving for Ux, Initial residual = 8.09749e-05, Final residual = 1.881e-07, No Iterations 5
DILUPBiCGStab:  Solving for Uy, Initial residual = 0.000230836, Final residual = 4.29671e-07, No Iterations 5
DILUPBiCGStab:  Solving for Uz, Initial residual = 0.00055876, Final residual = 1.84753e-06, No Iterations 5
linear solve U 187563
DICPBiCGStab:  Solving for p, Initial residual = 0.0133619, Final residual = 6.89763e-07, No Iterations 98
linear solve p 941160
time step continuity errors : sum local = 7.9213e-10, global = -3.11885e-22, cumulative = -5.07546e-20
DICPBiCGStab:  Solving for p, Initial residual = 0.0103289, Final residual = 9.41249e-07, No Iterations 100
linear solve p 960196
time step continuity errors : sum local = 9.22384e-10, global = -1.04835e-20, cumulative = -6.12381e-20
ExecutionTime = 16.46 s  ClockTime = 17 s

Time = 0.0133333

Courant Number mean: 0.191278 max: 0.948293
DILUPBiCGStab:  Solving for Ux, Initial residual = 6.08828e-05, Final residual = 1.14119e-07, No Iterations 5
DILUPBiCGStab:  Solving for Uy, Initial residual = 0.000170834, Final residual = 2.4352e-07, No Iterations 5
DILUPBiCGStab:  Solving for Uz, Initial residual = 0.0003955, Final residual = 1.26898e-06, No Iterations 5
linear solve U 186262
DICPBiCGStab:  Solving for p, Initial residual = 0.00984477, Final residual = 7.90987e-07, No Iterations 43
linear solve p 413191
time step continuity errors : sum local = 9.76762e-10, global = -3.76062e-20, cumulative = -9.88444e-20
DICPBiCGStab:  Solving for p, Initial residual = 0.00765648, Final residual = 8.54072e-07, No Iterations 43
linear solve p 414682
time step continuity errors : sum local = 9.63612e-10, global = 1.40485e-21, cumulative = -9.74395e-20
ExecutionTime = 17.59 s  ClockTime = 18 s

Time = 0.015

Courant Number mean: 0.19128 max: 0.948281
DILUPBiCGStab:  Solving for Ux, Initial residual = 4.404e-05, Final residual = 6.88597e-08, No Iterations 5
DILUPBiCGStab:  Solving for Uy, Initial residual = 0.000128341, Final residual = 1.58629e-07, No Iterations 5
DILUPBiCGStab:  Solving for Uz, Initial residual = 0.000271613, Final residual = 6.72838e-07, No Iterations 5
linear solve U 187477
DICPBiCGStab:  Solving for p, Initial residual = 0.00729216, Final residual = 8.7362e-07, No Iterations 41
linear solve p 395125
time step continuity errors : sum local = 8.73359e-10, global = 5.34674e-20, cumulative = -4.39721e-20
DICPBiCGStab:  Solving for p, Initial residual = 0.00569236, Final residual = 6.80028e-07, No Iterations 41
linear solve p 394900
time step continuity errors : sum local = 7.77355e-10, global = 5.05562e-20, cumulative = 6.58409e-21
ExecutionTime = 18.67 s  ClockTime = 19 s

Time = 0.0166667

Courant Number mean: 0.191283 max: 0.948289
DILUPBiCGStab:  Solving for Ux, Initial residual = 3.45627e-05, Final residual = 4.06325e-08, No Iterations 5
DILUPBiCGStab:  Solving for Uy, Initial residual = 9.488e-05, Final residual = 1.00116e-07, No Iterations 5
DILUPBiCGStab:  Solving for Uz, Initial residual = 0.000201603, Final residual = 5.20141e-07, No Iterations 5
linear solve U 186389
DICPBiCGStab:  Solving for p, Initial residual = 0.00543759, Final residual = 8.45671e-07, No Iterations 40
linear solve p 384738
time step continuity errors : sum local = 1.04234e-09, global = -3.17302e-20, cumulative = -2.51461e-20
DICPBiCGStab:  Solving for p, Initial residual = 0.00426312, Final residual = 8.99055e-07, No Iterations 39
linear solve p 381157
time step continuity errors : sum local = 9.99295e-10, global = -4.47776e-21, cumulative = -2.96239e-20
ExecutionTime = 19.73 s  ClockTime = 20 s

End

