/*---------------------------------------------------------------------------*\
  =========                 |
  \\      /  F ield         | OpenFOAM: The Open Source CFD Toolbox
   \\    /   O peration     | Website:  https://openfoam.org
    \\  /    A nd           | Version:  8
     \\/     M anipulation  |
\*---------------------------------------------------------------------------*/
Build  : 8-ef60d22ea792
Exec   : icoFoam
Date   : Sep 11 2021
Time   : 14:06:06
Host   : "uc2n513.localdomain"
PID    : 224372
I/O    : uncollated
Case   : /pfs/data5/home/kit/scc/nq7776/data/code/OBR/lidDrivenCavity3D/Variation_init/100/Variation_mesh/30/Variation_matrix_solver/CG_NoPrecond_CUDA/1631361963
nProcs : 1
sigFpe : Enabling floating point exception trapping (FOAM_SIGFPE).
fileModificationChecking : Monitoring run-time modified files using timeStampMaster (fileModificationSkew 10)
allowSystemOperations : Allowing user-supplied system call operations

// * * * * * * * * * * * * * * * * * * * * * * * * * * * * * * * * * * * * * //
Create time

Create mesh for time = 0

Reading transportProperties

Reading field p

Reading field U

Reading/calculating face flux field phi


Starting time loop

Time = 0.00333333

Courant Number mean: 0.190329 max: 0.906243
DILUPBiCGStab:  Solving for Ux, Initial residual = 0.0900001, Final residual = 1.98559e-06, No Iterations 5
DILUPBiCGStab:  Solving for Uy, Initial residual = 0.151485, Final residual = 4.47204e-06, No Iterations 5
DILUPBiCGStab:  Solving for Uz, Initial residual = 0.230061, Final residual = 9.55411e-06, No Iterations 5
linear solve U 19861
[OGL LOG] init_host_sparsity_pattern : 7 ms
[OGL LOG] matrix not stored update host matrix
[OGL LOG] update_host_mtx : 3 ms
[OGL LOG] matrix is not yet sorted, compute sorting idxs
[OGL LOG] compute_sort : 189 ms
[OGL LOG] matrix is not yet sorted, sorting host matrix
[OGL LOG] sort_host_mtx_sparsity_pattern : 4 ms
[OGL LOG] sort_host_mtx : 2 ms
[OGL LOG] init_preconditioner : 0 ms
[OGL LOG] solve : 35 ms
nonecudaGKOCG:  Solving for p, Initial residual = 0.532173, Final residual = 9.51941e-07, No Iterations 249
linear solve p 981427
time step continuity errors : sum local = 4.45839e-09, global = 9.27943e-20, cumulative = 9.27943e-20
[OGL LOG] init_preconditioner : 0 ms
[OGL LOG] solve : 35 ms
nonecudaGKOCG:  Solving for p, Initial residual = 0.319499, Final residual = 9.15325e-07, No Iterations 248
linear solve p 36048
time step continuity errors : sum local = 2.8185e-09, global = 8.01139e-20, cumulative = 1.72908e-19
ExecutionTime = 1.2 s  ClockTime = 1 s

Time = 0.00666667

Courant Number mean: 0.190231 max: 0.898516
DILUPBiCGStab:  Solving for Ux, Initial residual = 0.00891595, Final residual = 1.50306e-06, No Iterations 5
DILUPBiCGStab:  Solving for Uy, Initial residual = 0.0168192, Final residual = 2.62153e-06, No Iterations 5
DILUPBiCGStab:  Solving for Uz, Initial residual = 0.0471925, Final residual = 5.62192e-06, No Iterations 5
linear solve U 18048
[OGL LOG] init_preconditioner : 0 ms
[OGL LOG] solve : 34 ms
nonecudaGKOCG:  Solving for p, Initial residual = 0.154332, Final residual = 9.26259e-07, No Iterations 243
linear solve p 35280
time step continuity errors : sum local = 1.00173e-06, global = -5.42394e-20, cumulative = 1.18669e-19
[OGL LOG] init_preconditioner : 0 ms
[OGL LOG] solve : 34 ms
nonecudaGKOCG:  Solving for p, Initial residual = 0.0941549, Final residual = 9.38632e-07, No Iterations 240
linear solve p 34737
time step continuity errors : sum local = 8.89316e-07, global = -4.53805e-20, cumulative = 7.32883e-20
ExecutionTime = 1.3 s  ClockTime = 1 s

Time = 0.01

Courant Number mean: 0.190017 max: 0.896754
DILUPBiCGStab:  Solving for Ux, Initial residual = 0.00114168, Final residual = 3.28822e-07, No Iterations 5
DILUPBiCGStab:  Solving for Uy, Initial residual = 0.00263871, Final residual = 3.33624e-07, No Iterations 5
DILUPBiCGStab:  Solving for Uz, Initial residual = 0.0129717, Final residual = 1.55165e-06, No Iterations 5
linear solve U 21183
[OGL LOG] init_preconditioner : 0 ms
[OGL LOG] solve : 33 ms
nonecudaGKOCG:  Solving for p, Initial residual = 0.0505189, Final residual = 8.99233e-07, No Iterations 235
linear solve p 34430
time step continuity errors : sum local = 8.71579e-07, global = -1.30244e-19, cumulative = -5.69561e-20
[OGL LOG] init_preconditioner : 0 ms
[OGL LOG] solve : 33 ms
nonecudaGKOCG:  Solving for p, Initial residual = 0.0335404, Final residual = 9.21019e-07, No Iterations 232
linear solve p 33800
time step continuity errors : sum local = 8.83314e-07, global = 3.18851e-20, cumulative = -2.50711e-20
ExecutionTime = 1.4 s  ClockTime = 2 s

Time = 0.0133333

Courant Number mean: 0.189923 max: 0.896669
DILUPBiCGStab:  Solving for Ux, Initial residual = 0.000490781, Final residual = 9.87992e-08, No Iterations 5
DILUPBiCGStab:  Solving for Uy, Initial residual = 0.000979472, Final residual = 1.11061e-07, No Iterations 5
DILUPBiCGStab:  Solving for Uz, Initial residual = 0.00353495, Final residual = 4.40314e-07, No Iterations 5
linear solve U 17880
[OGL LOG] init_preconditioner : 0 ms
[OGL LOG] solve : 31 ms
nonecudaGKOCG:  Solving for p, Initial residual = 0.0231881, Final residual = 9.72238e-07, No Iterations 223
linear solve p 32608
time step continuity errors : sum local = 8.87946e-07, global = -1.78875e-19, cumulative = -2.03946e-19
[OGL LOG] init_preconditioner : 0 ms
[OGL LOG] solve : 31 ms
nonecudaGKOCG:  Solving for p, Initial residual = 0.015962, Final residual = 9.79729e-07, No Iterations 220
linear solve p 32005
time step continuity errors : sum local = 8.84293e-07, global = -1.75941e-19, cumulative = -3.79887e-19
ExecutionTime = 1.49 s  ClockTime = 2 s

Time = 0.0166667

Courant Number mean: 0.189872 max: 0.896515
DILUPBiCGStab:  Solving for Ux, Initial residual = 0.000223478, Final residual = 4.35875e-08, No Iterations 5
DILUPBiCGStab:  Solving for Uy, Initial residual = 0.000482699, Final residual = 4.74249e-08, No Iterations 5
DILUPBiCGStab:  Solving for Uz, Initial residual = 0.00174676, Final residual = 2.34875e-07, No Iterations 5
linear solve U 17725
[OGL LOG] init_preconditioner : 0 ms
[OGL LOG] solve : 16 ms
nonecudaGKOCG:  Solving for p, Initial residual = 0.0115036, Final residual = 9.92391e-07, No Iterations 113
linear solve p 17192
time step continuity errors : sum local = 8.84292e-07, global = 2.46188e-19, cumulative = -1.33699e-19
[OGL LOG] init_preconditioner : 0 ms
[OGL LOG] solve : 16 ms
nonecudaGKOCG:  Solving for p, Initial residual = 0.00800266, Final residual = 9.71521e-07, No Iterations 111
linear solve p 16874
time step continuity errors : sum local = 8.84445e-07, global = -6.82717e-20, cumulative = -2.0197e-19
ExecutionTime = 1.55 s  ClockTime = 2 s

Time = 0.02

Courant Number mean: 0.189842 max: 0.896522
DILUPBiCGStab:  Solving for Ux, Initial residual = 0.000133134, Final residual = 2.24544e-08, No Iterations 5
DILUPBiCGStab:  Solving for Uy, Initial residual = 0.000257559, Final residual = 2.43953e-08, No Iterations 5
DILUPBiCGStab:  Solving for Uz, Initial residual = 0.000890545, Final residual = 1.1523e-07, No Iterations 5
linear solve U 17746
[OGL LOG] init_preconditioner : 0 ms
[OGL LOG] solve : 14 ms
nonecudaGKOCG:  Solving for p, Initial residual = 0.00603659, Final residual = 9.28918e-07, No Iterations 101
linear solve p 15511
time step continuity errors : sum local = 8.84931e-07, global = 9.75778e-20, cumulative = -1.04392e-19
[OGL LOG] init_preconditioner : 0 ms
[OGL LOG] solve : 14 ms
nonecudaGKOCG:  Solving for p, Initial residual = 0.0042431, Final residual = 9.7342e-07, No Iterations 98
linear solve p 15004
time step continuity errors : sum local = 8.84361e-07, global = 1.08798e-20, cumulative = -9.35125e-20
ExecutionTime = 1.61 s  ClockTime = 2 s

Time = 0.0233333

Courant Number mean: 0.189822 max: 0.896474
DILUPBiCGStab:  Solving for Ux, Initial residual = 7.53373e-05, Final residual = 1.08057e-08, No Iterations 5
DILUPBiCGStab:  Solving for Uy, Initial residual = 0.000144682, Final residual = 1.27981e-08, No Iterations 5
DILUPBiCGStab:  Solving for Uz, Initial residual = 0.00059288, Final residual = 6.89684e-08, No Iterations 5
linear solve U 17863
[OGL LOG] init_preconditioner : 0 ms
[OGL LOG] solve : 14 ms
nonecudaGKOCG:  Solving for p, Initial residual = 0.00319044, Final residual = 9.76439e-07, No Iterations 96
linear solve p 14744
time step continuity errors : sum local = 8.84704e-07, global = 8.91149e-20, cumulative = -4.3976e-21
[OGL LOG] init_preconditioner : 0 ms
[OGL LOG] solve : 13 ms
nonecudaGKOCG:  Solving for p, Initial residual = 0.00224804, Final residual = 9.55922e-07, No Iterations 94
linear solve p 14441
time step continuity errors : sum local = 8.84422e-07, global = -4.00933e-20, cumulative = -4.44909e-20
ExecutionTime = 1.67 s  ClockTime = 2 s

Time = 0.0266667

Courant Number mean: 0.18981 max: 0.89647
DILUPBiCGStab:  Solving for Ux, Initial residual = 4.87422e-05, Final residual = 6.25677e-09, No Iterations 5
DILUPBiCGStab:  Solving for Uy, Initial residual = 8.43162e-05, Final residual = 6.48662e-09, No Iterations 5
DILUPBiCGStab:  Solving for Uz, Initial residual = 0.000378264, Final residual = 4.4249e-08, No Iterations 5
linear solve U 17664
[OGL LOG] init_preconditioner : 0 ms
[OGL LOG] solve : 15 ms
nonecudaGKOCG:  Solving for p, Initial residual = 0.00173711, Final residual = 9.18043e-07, No Iterations 90
linear solve p 15955
time step continuity errors : sum local = 8.84656e-07, global = 1.83855e-20, cumulative = -2.61054e-20
[OGL LOG] init_preconditioner : 0 ms
[OGL LOG] solve : 12 ms
nonecudaGKOCG:  Solving for p, Initial residual = 0.00123054, Final residual = 9.12513e-07, No Iterations 88
linear solve p 13690
time step continuity errors : sum local = 8.8427e-07, global = -3.44269e-20, cumulative = -6.05323e-20
ExecutionTime = 1.74 s  ClockTime = 2 s

Time = 0.03

Courant Number mean: 0.189802 max: 0.896454
DILUPBiCGStab:  Solving for Ux, Initial residual = 3.07785e-05, Final residual = 2.97179e-09, No Iterations 5
DILUPBiCGStab:  Solving for Uy, Initial residual = 5.32219e-05, Final residual = 3.34644e-09, No Iterations 5
DILUPBiCGStab:  Solving for Uz, Initial residual = 0.000281054, Final residual = 2.41732e-08, No Iterations 5
linear solve U 17696
[OGL LOG] init_preconditioner : 0 ms
[OGL LOG] solve : 12 ms
nonecudaGKOCG:  Solving for p, Initial residual = 0.000940688, Final residual = 8.70274e-07, No Iterations 88
linear solve p 13633
time step continuity errors : sum local = 8.84497e-07, global = -3.83481e-20, cumulative = -9.88804e-20
[OGL LOG] init_preconditioner : 0 ms
[OGL LOG] solve : 12 ms
nonecudaGKOCG:  Solving for p, Initial residual = 0.000669612, Final residual = 8.95467e-07, No Iterations 86
linear solve p 13345
time step continuity errors : sum local = 8.84366e-07, global = -1.56658e-20, cumulative = -1.14546e-19
ExecutionTime = 1.79 s  ClockTime = 2 s

Time = 0.0333333

Courant Number mean: 0.189797 max: 0.896449
DILUPBiCGStab:  Solving for Ux, Initial residual = 2.09346e-05, Final residual = 1.84471e-09, No Iterations 5
DILUPBiCGStab:  Solving for Uy, Initial residual = 3.32441e-05, Final residual = 1.64833e-09, No Iterations 5
DILUPBiCGStab:  Solving for Uz, Initial residual = 0.000196707, Final residual = 1.76167e-08, No Iterations 5
linear solve U 17701
[OGL LOG] init_preconditioner : 0 ms
[OGL LOG] solve : 12 ms
nonecudaGKOCG:  Solving for p, Initial residual = 0.000520865, Final residual = 9.71837e-07, No Iterations 83
linear solve p 13172
time step continuity errors : sum local = 8.84559e-07, global = 5.76566e-20, cumulative = -5.68896e-20
[OGL LOG] init_preconditioner : 0 ms
[OGL LOG] solve : 12 ms
nonecudaGKOCG:  Solving for p, Initial residual = 0.000372102, Final residual = 9.85358e-07, No Iterations 78
linear solve p 13044
time step continuity errors : sum local = 8.84362e-07, global = 5.4232e-20, cumulative = -2.65759e-21
ExecutionTime = 1.85 s  ClockTime = 2 s

End

