/*---------------------------------------------------------------------------*\
  =========                 |
  \\      /  F ield         | OpenFOAM: The Open Source CFD Toolbox
   \\    /   O peration     | Website:  https://openfoam.org
    \\  /    A nd           | Version:  8
     \\/     M anipulation  |
\*---------------------------------------------------------------------------*/
Build  : 8-ef60d22ea792
Exec   : icoFoam
Date   : Sep 11 2021
Time   : 14:41:15
Host   : "uc2n513.localdomain"
PID    : 232472
I/O    : uncollated
Case   : /pfs/data5/home/kit/scc/nq7776/data/code/OBR/lidDrivenCavity3D/Variation_init/100/Variation_mesh/20/Variation_matrix_solver/IR_NoPrecond_CUDA/1631364073
nProcs : 1
sigFpe : Enabling floating point exception trapping (FOAM_SIGFPE).
fileModificationChecking : Monitoring run-time modified files using timeStampMaster (fileModificationSkew 10)
allowSystemOperations : Allowing user-supplied system call operations

// * * * * * * * * * * * * * * * * * * * * * * * * * * * * * * * * * * * * * //
Create time

Create mesh for time = 0

Reading transportProperties

Reading field p

Reading field U

Reading/calculating face flux field phi


Starting time loop

Time = 0.005

Courant Number mean: 0.189426 max: 0.847077
DILUPBiCGStab:  Solving for Ux, Initial residual = 0.0520863, Final residual = 1.93382e-07, No Iterations 5
DILUPBiCGStab:  Solving for Uy, Initial residual = 0.0827593, Final residual = 3.95798e-07, No Iterations 5
DILUPBiCGStab:  Solving for Uz, Initial residual = 0.0638903, Final residual = 5.63531e-07, No Iterations 5
linear solve U 5870
[OGL LOG] init_host_sparsity_pattern : 2 ms
[OGL LOG] matrix not stored update host matrix
[OGL LOG] update_host_mtx : 1 ms
[OGL LOG] matrix is not yet sorted, compute sorting idxs
[OGL LOG] compute_sort : 50 ms
[OGL LOG] matrix is not yet sorted, sorting host matrix
[OGL LOG] sort_host_mtx_sparsity_pattern : 1 ms
[OGL LOG] sort_host_mtx : 0 ms
[OGL LOG] init_preconditioner : 0 ms
[OGL LOG] solve : 43 ms
nonecudaGKOIR:  Solving for p, Initial residual = 0.518631, Final residual = 1.57952e-08, No Iterations 4
linear solve p 833815
time step continuity errors : sum local = 1.28221e-10, global = 2.16213e-19, cumulative = 2.16213e-19
[OGL LOG] init_preconditioner : 0 ms
[OGL LOG] solve : 27 ms
nonecudaGKOIR:  Solving for p, Initial residual = 0.286623, Final residual = 5.79544e-07, No Iterations 3
linear solve p 27458
time step continuity errors : sum local = 3.53563e-09, global = -1.46692e-19, cumulative = 6.95207e-20
ExecutionTime = 0.94 s  ClockTime = 1 s

Time = 0.01

Courant Number mean: 0.188529 max: 0.846325
DILUPBiCGStab:  Solving for Ux, Initial residual = 0.0110583, Final residual = 2.88337e-07, No Iterations 5
DILUPBiCGStab:  Solving for Uy, Initial residual = 0.0195296, Final residual = 2.76338e-07, No Iterations 5
DILUPBiCGStab:  Solving for Uz, Initial residual = 0.0446963, Final residual = 4.31787e-07, No Iterations 5
linear solve U 4639
[OGL LOG] init_preconditioner : 0 ms
[OGL LOG] solve : 28 ms
nonecudaGKOIR:  Solving for p, Initial residual = 0.129946, Final residual = 2.35857e-07, No Iterations 3
linear solve p 28478
time step continuity errors : sum local = 4.76585e-06, global = -1.49389e-19, cumulative = -7.98681e-20
[OGL LOG] init_preconditioner : 0 ms
[OGL LOG] solve : 28 ms
nonecudaGKOIR:  Solving for p, Initial residual = 0.0825348, Final residual = 1.31737e-07, No Iterations 3
linear solve p 29339
time step continuity errors : sum local = 4.28865e-06, global = 2.35461e-19, cumulative = 1.55593e-19
ExecutionTime = 1 s  ClockTime = 1 s

Time = 0.015

Courant Number mean: 0.188052 max: 0.844689
DILUPBiCGStab:  Solving for Ux, Initial residual = 0.0014724, Final residual = 1.16206e-08, No Iterations 5
DILUPBiCGStab:  Solving for Uy, Initial residual = 0.00301065, Final residual = 2.28273e-08, No Iterations 5
DILUPBiCGStab:  Solving for Uz, Initial residual = 0.00692952, Final residual = 6.22981e-08, No Iterations 5
linear solve U 4627
[OGL LOG] init_preconditioner : 0 ms
[OGL LOG] solve : 27 ms
nonecudaGKOIR:  Solving for p, Initial residual = 0.0277422, Final residual = 4.11413e-08, No Iterations 3
linear solve p 27403
time step continuity errors : sum local = 4.20538e-06, global = -1.838e-19, cumulative = -2.82065e-20
[OGL LOG] init_preconditioner : 0 ms
[OGL LOG] solve : 26 ms
nonecudaGKOIR:  Solving for p, Initial residual = 0.0179698, Final residual = 2.33293e-08, No Iterations 3
linear solve p 27365
time step continuity errors : sum local = 4.25694e-06, global = 3.99239e-20, cumulative = 1.17173e-20
ExecutionTime = 1.06 s  ClockTime = 1 s

Time = 0.02

Courant Number mean: 0.187909 max: 0.844511
DILUPBiCGStab:  Solving for Ux, Initial residual = 0.000567193, Final residual = 1.23175e-08, No Iterations 5
DILUPBiCGStab:  Solving for Uy, Initial residual = 0.000652611, Final residual = 1.26326e-08, No Iterations 5
DILUPBiCGStab:  Solving for Uz, Initial residual = 0.00324616, Final residual = 2.6177e-08, No Iterations 5
linear solve U 4620
[OGL LOG] init_preconditioner : 0 ms
[OGL LOG] solve : 27 ms
nonecudaGKOIR:  Solving for p, Initial residual = 0.00920036, Final residual = 1.26811e-08, No Iterations 3
linear solve p 27545
time step continuity errors : sum local = 4.26935e-06, global = -1.41729e-19, cumulative = -1.30012e-19
[OGL LOG] init_preconditioner : 0 ms
[OGL LOG] solve : 20 ms
nonecudaGKOIR:  Solving for p, Initial residual = 0.006189, Final residual = 8.42678e-07, No Iterations 2
linear solve p 20965
time step continuity errors : sum local = 4.26248e-06, global = -3.73472e-21, cumulative = -1.33747e-19
ExecutionTime = 1.12 s  ClockTime = 1 s

Time = 0.025

Courant Number mean: 0.187822 max: 0.844405
DILUPBiCGStab:  Solving for Ux, Initial residual = 0.00022986, Final residual = 3.64483e-09, No Iterations 5
DILUPBiCGStab:  Solving for Uy, Initial residual = 0.00034885, Final residual = 5.96866e-09, No Iterations 5
DILUPBiCGStab:  Solving for Uz, Initial residual = 0.00156075, Final residual = 1.08581e-08, No Iterations 5
linear solve U 4709
[OGL LOG] init_preconditioner : 0 ms
[OGL LOG] solve : 14 ms
nonecudaGKOIR:  Solving for p, Initial residual = 0.00375557, Final residual = 4.98186e-07, No Iterations 2
linear solve p 14518
time step continuity errors : sum local = 4.26077e-06, global = 4.74554e-20, cumulative = -8.62912e-20
[OGL LOG] init_preconditioner : 0 ms
[OGL LOG] solve : 13 ms
nonecudaGKOIR:  Solving for p, Initial residual = 0.00257934, Final residual = 2.99638e-07, No Iterations 2
linear solve p 14184
time step continuity errors : sum local = 4.2605e-06, global = 1.05494e-19, cumulative = 1.92033e-20
ExecutionTime = 1.16 s  ClockTime = 1 s

Time = 0.03

Courant Number mean: 0.18777 max: 0.84431
DILUPBiCGStab:  Solving for Ux, Initial residual = 0.000125176, Final residual = 1.7846e-09, No Iterations 5
DILUPBiCGStab:  Solving for Uy, Initial residual = 0.000162075, Final residual = 2.85923e-09, No Iterations 5
DILUPBiCGStab:  Solving for Uz, Initial residual = 0.00099378, Final residual = 7.88019e-09, No Iterations 5
linear solve U 4625
[OGL LOG] init_preconditioner : 0 ms
[OGL LOG] solve : 19 ms
nonecudaGKOIR:  Solving for p, Initial residual = 0.00159224, Final residual = 1.76736e-07, No Iterations 2
linear solve p 20091
time step continuity errors : sum local = 4.26033e-06, global = -1.45435e-19, cumulative = -1.26232e-19
[OGL LOG] init_preconditioner : 0 ms
[OGL LOG] solve : 20 ms
nonecudaGKOIR:  Solving for p, Initial residual = 0.00108238, Final residual = 1.1338e-07, No Iterations 2
linear solve p 20417
time step continuity errors : sum local = 4.26013e-06, global = 1.47321e-19, cumulative = 2.10893e-20
ExecutionTime = 1.2 s  ClockTime = 1 s

Time = 0.035

Courant Number mean: 0.187741 max: 0.84426
DILUPBiCGStab:  Solving for Ux, Initial residual = 6.77386e-05, Final residual = 5.4388e-10, No Iterations 5
DILUPBiCGStab:  Solving for Uy, Initial residual = 9.92954e-05, Final residual = 1.89384e-09, No Iterations 5
DILUPBiCGStab:  Solving for Uz, Initial residual = 0.000650709, Final residual = 4.45632e-09, No Iterations 5
linear solve U 4615
[OGL LOG] init_preconditioner : 0 ms
[OGL LOG] solve : 20 ms
nonecudaGKOIR:  Solving for p, Initial residual = 0.000709592, Final residual = 7.81933e-08, No Iterations 2
linear solve p 20421
time step continuity errors : sum local = 4.26e-06, global = 1.07285e-20, cumulative = 3.18178e-20
[OGL LOG] init_preconditioner : 0 ms
[OGL LOG] solve : 20 ms
nonecudaGKOIR:  Solving for p, Initial residual = 0.00049448, Final residual = 5.219e-08, No Iterations 2
linear solve p 20877
time step continuity errors : sum local = 4.26002e-06, global = 9.07872e-20, cumulative = 1.22605e-19
ExecutionTime = 1.25 s  ClockTime = 1 s

Time = 0.04

Courant Number mean: 0.187723 max: 0.84423
DILUPBiCGStab:  Solving for Ux, Initial residual = 4.14096e-05, Final residual = 3.16351e-10, No Iterations 5
DILUPBiCGStab:  Solving for Uy, Initial residual = 5.83382e-05, Final residual = 4.82456e-10, No Iterations 5
DILUPBiCGStab:  Solving for Uz, Initial residual = 0.000431559, Final residual = 2.98685e-09, No Iterations 5
linear solve U 4731
[OGL LOG] init_preconditioner : 0 ms
[OGL LOG] solve : 21 ms
nonecudaGKOIR:  Solving for p, Initial residual = 0.000326601, Final residual = 2.8621e-08, No Iterations 2
linear solve p 21643
time step continuity errors : sum local = 4.25999e-06, global = 4.01162e-19, cumulative = 5.23767e-19
[OGL LOG] init_preconditioner : 0 ms
[OGL LOG] solve : 20 ms
nonecudaGKOIR:  Solving for p, Initial residual = 0.000225638, Final residual = 2.48685e-08, No Iterations 2
linear solve p 21274
time step continuity errors : sum local = 4.25999e-06, global = -3.44479e-20, cumulative = 4.89319e-19
ExecutionTime = 1.3 s  ClockTime = 1 s

Time = 0.045

Courant Number mean: 0.187711 max: 0.844211
DILUPBiCGStab:  Solving for Ux, Initial residual = 2.54354e-05, Final residual = 1.09227e-10, No Iterations 5
DILUPBiCGStab:  Solving for Uy, Initial residual = 3.70065e-05, Final residual = 4.45362e-10, No Iterations 5
DILUPBiCGStab:  Solving for Uz, Initial residual = 0.000292777, Final residual = 1.74538e-09, No Iterations 5
linear solve U 4743
[OGL LOG] init_preconditioner : 0 ms
[OGL LOG] solve : 21 ms
nonecudaGKOIR:  Solving for p, Initial residual = 0.000154077, Final residual = 1.43989e-08, No Iterations 2
linear solve p 21726
time step continuity errors : sum local = 4.25998e-06, global = 1.56383e-19, cumulative = 6.45702e-19
[OGL LOG] init_preconditioner : 0 ms
[OGL LOG] solve : 21 ms
nonecudaGKOIR:  Solving for p, Initial residual = 0.000110015, Final residual = 1.06308e-08, No Iterations 2
linear solve p 21571
time step continuity errors : sum local = 4.25998e-06, global = 3.01342e-19, cumulative = 9.47044e-19
ExecutionTime = 1.36 s  ClockTime = 1 s

Time = 0.05

Courant Number mean: 0.187705 max: 0.8442
DILUPBiCGStab:  Solving for Ux, Initial residual = 1.64873e-05, Final residual = 7.5983e-11, No Iterations 5
DILUPBiCGStab:  Solving for Uy, Initial residual = 2.34893e-05, Final residual = 1.17929e-10, No Iterations 5
DILUPBiCGStab:  Solving for Uz, Initial residual = 0.00019823, Final residual = 1.17968e-09, No Iterations 5
linear solve U 4633
[OGL LOG] init_preconditioner : 0 ms
[OGL LOG] solve : 7 ms
nonecudaGKOIR:  Solving for p, Initial residual = 7.53687e-05, Final residual = 8.27917e-07, No Iterations 1
linear solve p 7728
time step continuity errors : sum local = 4.26268e-06, global = 5.49207e-20, cumulative = 1.00196e-18
[OGL LOG] init_preconditioner : 0 ms
[OGL LOG] solve : 7 ms
nonecudaGKOIR:  Solving for p, Initial residual = 5.43549e-05, Final residual = 5.79406e-07, No Iterations 1
linear solve p 7878
time step continuity errors : sum local = 4.26125e-06, global = 2.47108e-19, cumulative = 1.24907e-18
ExecutionTime = 1.38 s  ClockTime = 1 s

End

