/*---------------------------------------------------------------------------*\
  =========                 |
  \\      /  F ield         | OpenFOAM: The Open Source CFD Toolbox
   \\    /   O peration     | Website:  https://openfoam.org
    \\  /    A nd           | Version:  8
     \\/     M anipulation  |
\*---------------------------------------------------------------------------*/
Build  : 8-ef60d22ea792
Exec   : icoFoam
Date   : Sep 11 2021
Time   : 14:39:45
Host   : "uc2n513.localdomain"
PID    : 231123
I/O    : uncollated
Case   : /pfs/data5/home/kit/scc/nq7776/data/code/OBR/lidDrivenCavity3D/Variation_init/100/Variation_mesh/55/Variation_matrix_solver/CG_ILU_CUDA/1631363977
nProcs : 1
sigFpe : Enabling floating point exception trapping (FOAM_SIGFPE).
fileModificationChecking : Monitoring run-time modified files using timeStampMaster (fileModificationSkew 10)
allowSystemOperations : Allowing user-supplied system call operations

// * * * * * * * * * * * * * * * * * * * * * * * * * * * * * * * * * * * * * //
Create time

Create mesh for time = 0

Reading transportProperties

Reading field p

Reading field U

Reading/calculating face flux field phi


Starting time loop

Time = 0.00181818

Courant Number mean: 0.191368 max: 0.957571
DILUPBiCGStab:  Solving for Ux, Initial residual = 0.060281, Final residual = 1.19981e-05, No Iterations 5
DILUPBiCGStab:  Solving for Uy, Initial residual = 0.121009, Final residual = 2.40294e-05, No Iterations 5
DILUPBiCGStab:  Solving for Uz, Initial residual = 0.150024, Final residual = 8.14301e-05, No Iterations 5
linear solve U 158481
[OGL LOG] init_host_sparsity_pattern : 43 ms
[OGL LOG] matrix not stored update host matrix
[OGL LOG] update_host_mtx : 23 ms
[OGL LOG] matrix is not yet sorted, compute sorting idxs
[OGL LOG] compute_sort : 1352 ms
[OGL LOG] matrix is not yet sorted, sorting host matrix
[OGL LOG] sort_host_mtx_sparsity_pattern : 31 ms
[OGL LOG] sort_host_mtx : 18 ms
[OGL LOG] init_preconditioner : 50 ms
[OGL LOG] solve : 242 ms
ILUcudaGKOCG:  Solving for p, Initial residual = 0.606676, Final residual = 8.52914e-07, No Iterations 144
linear solve p 2507554
time step continuity errors : sum local = 1.39281e-09, global = -6.26782e-21, cumulative = -6.26782e-21
[OGL LOG] init_preconditioner : 0 ms
[OGL LOG] solve : 242 ms
ILUcudaGKOCG:  Solving for p, Initial residual = 0.416236, Final residual = 9.44851e-07, No Iterations 144
linear solve p 247092
time step continuity errors : sum local = 1.08073e-09, global = -3.46373e-20, cumulative = -4.09051e-20
ExecutionTime = 3.76 s  ClockTime = 4 s

Time = 0.00363636

Courant Number mean: 0.191352 max: 0.944825
DILUPBiCGStab:  Solving for Ux, Initial residual = 0.00670433, Final residual = 6.36324e-06, No Iterations 5
DILUPBiCGStab:  Solving for Uy, Initial residual = 0.0143954, Final residual = 1.51314e-05, No Iterations 5
DILUPBiCGStab:  Solving for Uz, Initial residual = 0.0279077, Final residual = 4.82248e-05, No Iterations 5
linear solve U 145551
[OGL LOG] init_preconditioner : 0 ms
[OGL LOG] solve : 240 ms
ILUcudaGKOCG:  Solving for p, Initial residual = 0.305548, Final residual = 7.60414e-07, No Iterations 143
linear solve p 245727
time step continuity errors : sum local = 3.79412e-07, global = -6.41648e-21, cumulative = -4.73216e-20
[OGL LOG] init_preconditioner : 0 ms
[OGL LOG] solve : 238 ms
ILUcudaGKOCG:  Solving for p, Initial residual = 0.191027, Final residual = 9.03783e-07, No Iterations 142
linear solve p 243874
time step continuity errors : sum local = 3.65351e-07, global = -1.91724e-20, cumulative = -6.6494e-20
ExecutionTime = 4.49 s  ClockTime = 5 s

Time = 0.00545455

Courant Number mean: 0.191295 max: 0.943843
DILUPBiCGStab:  Solving for Ux, Initial residual = 0.00199584, Final residual = 3.95908e-06, No Iterations 5
DILUPBiCGStab:  Solving for Uy, Initial residual = 0.00440225, Final residual = 8.35763e-06, No Iterations 5
DILUPBiCGStab:  Solving for Uz, Initial residual = 0.0116555, Final residual = 2.18261e-05, No Iterations 5
linear solve U 146005
[OGL LOG] init_preconditioner : 0 ms
[OGL LOG] solve : 235 ms
ILUcudaGKOCG:  Solving for p, Initial residual = 0.167146, Final residual = 9.93073e-07, No Iterations 140
linear solve p 240123
time step continuity errors : sum local = 3.66576e-07, global = 1.46214e-20, cumulative = -5.18727e-20
[OGL LOG] init_preconditioner : 0 ms
[OGL LOG] solve : 235 ms
ILUcudaGKOCG:  Solving for p, Initial residual = 0.111651, Final residual = 8.86927e-07, No Iterations 140
linear solve p 241115
time step continuity errors : sum local = 3.63883e-07, global = 1.1606e-20, cumulative = -4.02667e-20
ExecutionTime = 5.2 s  ClockTime = 6 s

Time = 0.00727273

Courant Number mean: 0.191239 max: 0.94364
DILUPBiCGStab:  Solving for Ux, Initial residual = 0.00100385, Final residual = 1.2552e-06, No Iterations 5
DILUPBiCGStab:  Solving for Uy, Initial residual = 0.00220494, Final residual = 2.49967e-06, No Iterations 5
DILUPBiCGStab:  Solving for Uz, Initial residual = 0.00548687, Final residual = 7.56484e-06, No Iterations 5
linear solve U 146354
[OGL LOG] init_preconditioner : 0 ms
[OGL LOG] solve : 231 ms
ILUcudaGKOCG:  Solving for p, Initial residual = 0.0998345, Final residual = 8.08927e-07, No Iterations 138
linear solve p 236798
time step continuity errors : sum local = 3.62439e-07, global = -2.88836e-21, cumulative = -4.3155e-20
[OGL LOG] init_preconditioner : 0 ms
[OGL LOG] solve : 232 ms
ILUcudaGKOCG:  Solving for p, Initial residual = 0.0687804, Final residual = 6.65131e-07, No Iterations 138
linear solve p 237147
time step continuity errors : sum local = 3.6378e-07, global = 8.3411e-20, cumulative = 4.0256e-20
ExecutionTime = 5.91 s  ClockTime = 6 s

Time = 0.00909091

Courant Number mean: 0.191228 max: 0.943571
DILUPBiCGStab:  Solving for Ux, Initial residual = 0.000569944, Final residual = 8.00367e-07, No Iterations 5
DILUPBiCGStab:  Solving for Uy, Initial residual = 0.00122723, Final residual = 1.49961e-06, No Iterations 5
DILUPBiCGStab:  Solving for Uz, Initial residual = 0.003161, Final residual = 6.0115e-06, No Iterations 5
linear solve U 145908
[OGL LOG] init_preconditioner : 0 ms
[OGL LOG] solve : 228 ms
ILUcudaGKOCG:  Solving for p, Initial residual = 0.0620369, Final residual = 7.76453e-07, No Iterations 136
linear solve p 233760
time step continuity errors : sum local = 3.65025e-07, global = 2.28692e-20, cumulative = 6.31252e-20
[OGL LOG] init_preconditioner : 0 ms
[OGL LOG] solve : 227 ms
ILUcudaGKOCG:  Solving for p, Initial residual = 0.0442012, Final residual = 8.87749e-07, No Iterations 135
linear solve p 235419
time step continuity errors : sum local = 3.63998e-07, global = -5.83059e-21, cumulative = 5.72946e-20
ExecutionTime = 6.62 s  ClockTime = 7 s

Time = 0.0109091

Courant Number mean: 0.191215 max: 0.943612
DILUPBiCGStab:  Solving for Ux, Initial residual = 0.000342115, Final residual = 4.38299e-07, No Iterations 5
DILUPBiCGStab:  Solving for Uy, Initial residual = 0.000740688, Final residual = 8.1161e-07, No Iterations 5
DILUPBiCGStab:  Solving for Uz, Initial residual = 0.0017893, Final residual = 2.73236e-06, No Iterations 5
linear solve U 146809
[OGL LOG] init_preconditioner : 0 ms
[OGL LOG] solve : 219 ms
ILUcudaGKOCG:  Solving for p, Initial residual = 0.0402103, Final residual = 9.38963e-07, No Iterations 130
linear solve p 223898
time step continuity errors : sum local = 3.63431e-07, global = -7.60105e-20, cumulative = -1.87159e-20
[OGL LOG] init_preconditioner : 0 ms
[OGL LOG] solve : 218 ms
ILUcudaGKOCG:  Solving for p, Initial residual = 0.0294464, Final residual = 8.72458e-07, No Iterations 130
linear solve p 223761
time step continuity errors : sum local = 3.6389e-07, global = 1.66769e-20, cumulative = -2.039e-21
ExecutionTime = 7.31 s  ClockTime = 8 s

Time = 0.0127273

Courant Number mean: 0.191209 max: 0.943562
DILUPBiCGStab:  Solving for Ux, Initial residual = 0.000215408, Final residual = 2.86331e-07, No Iterations 5
DILUPBiCGStab:  Solving for Uy, Initial residual = 0.000460264, Final residual = 5.88233e-07, No Iterations 5
DILUPBiCGStab:  Solving for Uz, Initial residual = 0.00115005, Final residual = 2.134e-06, No Iterations 5
linear solve U 145844
[OGL LOG] init_preconditioner : 0 ms
[OGL LOG] solve : 215 ms
ILUcudaGKOCG:  Solving for p, Initial residual = 0.0268398, Final residual = 9.65134e-07, No Iterations 127
linear solve p 219897
time step continuity errors : sum local = 3.64302e-07, global = -2.23339e-21, cumulative = -4.27239e-21
[OGL LOG] init_preconditioner : 0 ms
[OGL LOG] solve : 214 ms
ILUcudaGKOCG:  Solving for p, Initial residual = 0.0200433, Final residual = 8.28238e-07, No Iterations 127
linear solve p 219217
time step continuity errors : sum local = 3.63937e-07, global = -3.24771e-20, cumulative = -3.67495e-20
ExecutionTime = 7.99 s  ClockTime = 8 s

Time = 0.0145455

Courant Number mean: 0.191205 max: 0.943588
DILUPBiCGStab:  Solving for Ux, Initial residual = 0.00014209, Final residual = 1.81603e-07, No Iterations 5
DILUPBiCGStab:  Solving for Uy, Initial residual = 0.000303052, Final residual = 4.18561e-07, No Iterations 5
DILUPBiCGStab:  Solving for Uz, Initial residual = 0.000728824, Final residual = 1.19699e-06, No Iterations 5
linear solve U 145919
[OGL LOG] init_preconditioner : 0 ms
[OGL LOG] solve : 108 ms
ILUcudaGKOCG:  Solving for p, Initial residual = 0.0183033, Final residual = 9.27909e-07, No Iterations 63
linear solve p 112849
time step continuity errors : sum local = 3.63961e-07, global = -2.85231e-20, cumulative = -6.52725e-20
[OGL LOG] init_preconditioner : 0 ms
[OGL LOG] solve : 106 ms
ILUcudaGKOCG:  Solving for p, Initial residual = 0.0138862, Final residual = 8.04036e-07, No Iterations 62
linear solve p 111427
time step continuity errors : sum local = 3.63949e-07, global = 1.91944e-20, cumulative = -4.60782e-20
ExecutionTime = 8.44 s  ClockTime = 9 s

Time = 0.0163636

Courant Number mean: 0.191203 max: 0.943562
DILUPBiCGStab:  Solving for Ux, Initial residual = 9.59485e-05, Final residual = 1.1152e-07, No Iterations 5
DILUPBiCGStab:  Solving for Uy, Initial residual = 0.000202029, Final residual = 2.78323e-07, No Iterations 5
DILUPBiCGStab:  Solving for Uz, Initial residual = 0.000507782, Final residual = 8.55267e-07, No Iterations 5
linear solve U 145888
[OGL LOG] init_preconditioner : 0 ms
[OGL LOG] solve : 106 ms
ILUcudaGKOCG:  Solving for p, Initial residual = 0.0127, Final residual = 9.55923e-07, No Iterations 62
linear solve p 111059
time step continuity errors : sum local = 3.64269e-07, global = -1.77757e-20, cumulative = -6.38539e-20
[OGL LOG] init_preconditioner : 0 ms
[OGL LOG] solve : 101 ms
ILUcudaGKOCG:  Solving for p, Initial residual = 0.00973631, Final residual = 9.35772e-07, No Iterations 59
linear solve p 106173
time step continuity errors : sum local = 3.6398e-07, global = -2.11172e-20, cumulative = -8.49711e-20
ExecutionTime = 8.89 s  ClockTime = 9 s

Time = 0.0181818

Courant Number mean: 0.191202 max: 0.943575
DILUPBiCGStab:  Solving for Ux, Initial residual = 6.72422e-05, Final residual = 7.63723e-08, No Iterations 5
DILUPBiCGStab:  Solving for Uy, Initial residual = 0.000140508, Final residual = 1.65137e-07, No Iterations 5
DILUPBiCGStab:  Solving for Uz, Initial residual = 0.000344783, Final residual = 5.3142e-07, No Iterations 5
linear solve U 148742
[OGL LOG] init_preconditioner : 0 ms
[OGL LOG] solve : 197 ms
ILUcudaGKOCG:  Solving for p, Initial residual = 0.00893078, Final residual = 9.39607e-07, No Iterations 117
linear solve p 202676
time step continuity errors : sum local = 3.63923e-07, global = -1.75464e-20, cumulative = -1.02517e-19
[OGL LOG] init_preconditioner : 0 ms
[OGL LOG] solve : 192 ms
ILUcudaGKOCG:  Solving for p, Initial residual = 0.00689997, Final residual = 9.6627e-07, No Iterations 114
linear solve p 197414
time step continuity errors : sum local = 3.63964e-07, global = 4.06133e-20, cumulative = -6.19041e-20
ExecutionTime = 9.54 s  ClockTime = 10 s

End

