/*---------------------------------------------------------------------------*\
  =========                 |
  \\      /  F ield         | OpenFOAM: The Open Source CFD Toolbox
   \\    /   O peration     | Website:  https://openfoam.org
    \\  /    A nd           | Version:  8
     \\/     M anipulation  |
\*---------------------------------------------------------------------------*/
Build  : 8-ef60d22ea792
Exec   : icoFoam
Date   : Sep 11 2021
Time   : 14:05:16
Host   : "uc2n442.localdomain"
PID    : 3719766
I/O    : uncollated
Case   : /pfs/data5/home/kit/scc/nq7776/data/code/OBR/lidDrivenCavity3D/Variation_init/100/Variation_mesh/95/Variation_matrix_solver/BiCGStab_NoPrecond_Serial/1631361845
nProcs : 1
sigFpe : Enabling floating point exception trapping (FOAM_SIGFPE).
fileModificationChecking : Monitoring run-time modified files using timeStampMaster (fileModificationSkew 10)
allowSystemOperations : Allowing user-supplied system call operations

// * * * * * * * * * * * * * * * * * * * * * * * * * * * * * * * * * * * * * //
Create time

Create mesh for time = 0

Reading transportProperties

Reading field p

Reading field U

Reading/calculating face flux field phi


Starting time loop

Time = 0.00105263

Courant Number mean: 0.191438 max: 0.965363
DILUPBiCGStab:  Solving for Ux, Initial residual = 0.045256, Final residual = 5.87293e-05, No Iterations 5
DILUPBiCGStab:  Solving for Uy, Initial residual = 0.0864075, Final residual = 0.000143638, No Iterations 5
DILUPBiCGStab:  Solving for Uz, Initial residual = 0.119195, Final residual = 0.000245255, No Iterations 5
linear solve U 868658
nonePBiCGStab:  Solving for p, Initial residual = 0.553351, Final residual = 6.29985e-07, No Iterations 685
linear solve p 15425263
time step continuity errors : sum local = 7.53888e-10, global = -7.5871e-21, cumulative = -7.5871e-21
nonePBiCGStab:  Solving for p, Initial residual = 0.406396, Final residual = 8.20604e-07, No Iterations 638
linear solve p 14398069
time step continuity errors : sum local = 9.71373e-10, global = 1.17089e-22, cumulative = -7.47001e-21
ExecutionTime = 34.88 s  ClockTime = 35 s

Time = 0.00210526

Courant Number mean: 0.19198 max: 0.967664
DILUPBiCGStab:  Solving for Ux, Initial residual = 0.00523044, Final residual = 7.39229e-05, No Iterations 5
DILUPBiCGStab:  Solving for Uy, Initial residual = 0.0137418, Final residual = 0.000156357, No Iterations 5
DILUPBiCGStab:  Solving for Uz, Initial residual = 0.0306316, Final residual = 0.000347053, No Iterations 5
linear solve U 795107
nonePBiCGStab:  Solving for p, Initial residual = 0.506271, Final residual = 8.53837e-07, No Iterations 643
linear solve p 14592296
time step continuity errors : sum local = 9.99931e-10, global = -2.79458e-20, cumulative = -3.54158e-20
nonePBiCGStab:  Solving for p, Initial residual = 0.465371, Final residual = 6.07537e-07, No Iterations 628
linear solve p 14243822
time step continuity errors : sum local = 6.17684e-10, global = 1.26723e-20, cumulative = -2.27435e-20
ExecutionTime = 64.88 s  ClockTime = 65 s

Time = 0.00315789

Courant Number mean: 0.191927 max: 0.968176
DILUPBiCGStab:  Solving for Ux, Initial residual = 0.00334687, Final residual = 4.79906e-05, No Iterations 5
DILUPBiCGStab:  Solving for Uy, Initial residual = 0.00964598, Final residual = 0.000103329, No Iterations 5
DILUPBiCGStab:  Solving for Uz, Initial residual = 0.0266248, Final residual = 0.000319329, No Iterations 5
linear solve U 793812
nonePBiCGStab:  Solving for p, Initial residual = 0.411441, Final residual = 6.47789e-07, No Iterations 612
linear solve p 13839132
time step continuity errors : sum local = 3.40376e-10, global = 7.14048e-21, cumulative = -1.5603e-20
nonePBiCGStab:  Solving for p, Initial residual = 0.362334, Final residual = 7.54664e-07, No Iterations 638
linear solve p 14399375
time step continuity errors : sum local = 7.61556e-10, global = 1.3968e-20, cumulative = -1.63498e-21
ExecutionTime = 94.29 s  ClockTime = 95 s

Time = 0.00421053

Courant Number mean: 0.191779 max: 0.967735
DILUPBiCGStab:  Solving for Ux, Initial residual = 0.00216343, Final residual = 2.10048e-05, No Iterations 5
DILUPBiCGStab:  Solving for Uy, Initial residual = 0.00639594, Final residual = 4.96104e-05, No Iterations 5
DILUPBiCGStab:  Solving for Uz, Initial residual = 0.0217048, Final residual = 0.000250149, No Iterations 5
linear solve U 793531
nonePBiCGStab:  Solving for p, Initial residual = 0.353551, Final residual = 7.89218e-07, No Iterations 659
linear solve p 15103360
time step continuity errors : sum local = 7.13204e-10, global = 4.58772e-21, cumulative = 2.95274e-21
nonePBiCGStab:  Solving for p, Initial residual = 0.308762, Final residual = 8.61838e-07, No Iterations 662
linear solve p 14904579
time step continuity errors : sum local = 7.71499e-10, global = 8.5578e-21, cumulative = 1.15105e-20
ExecutionTime = 125.45 s  ClockTime = 126 s

Time = 0.00526316

Courant Number mean: 0.191744 max: 0.967372
DILUPBiCGStab:  Solving for Ux, Initial residual = 0.00155531, Final residual = 1.48918e-05, No Iterations 5
DILUPBiCGStab:  Solving for Uy, Initial residual = 0.00471112, Final residual = 3.23855e-05, No Iterations 5
DILUPBiCGStab:  Solving for Uz, Initial residual = 0.0195482, Final residual = 0.000214837, No Iterations 5
linear solve U 798083
nonePBiCGStab:  Solving for p, Initial residual = 0.298789, Final residual = 9.35932e-07, No Iterations 719
linear solve p 16152374
time step continuity errors : sum local = 4.3947e-10, global = 5.58065e-21, cumulative = 1.70912e-20
nonePBiCGStab:  Solving for p, Initial residual = 0.254958, Final residual = 8.8537e-07, No Iterations 723
linear solve p 16295959
time step continuity errors : sum local = 4.55379e-10, global = 1.44981e-20, cumulative = 3.15893e-20
ExecutionTime = 159.05 s  ClockTime = 160 s

Time = 0.00631579

Courant Number mean: 0.191698 max: 0.967609
DILUPBiCGStab:  Solving for Ux, Initial residual = 0.00118906, Final residual = 6.96828e-06, No Iterations 5
DILUPBiCGStab:  Solving for Uy, Initial residual = 0.00363272, Final residual = 1.7222e-05, No Iterations 5
DILUPBiCGStab:  Solving for Uz, Initial residual = 0.0159932, Final residual = 0.000162411, No Iterations 5
linear solve U 792873
nonePBiCGStab:  Solving for p, Initial residual = 0.26258, Final residual = 9.3929e-07, No Iterations 591
linear solve p 13406239
time step continuity errors : sum local = 4.18227e-10, global = -2.16982e-20, cumulative = 9.89109e-21
nonePBiCGStab:  Solving for p, Initial residual = 0.223581, Final residual = 8.23947e-07, No Iterations 629
linear solve p 14265404
time step continuity errors : sum local = 4.04335e-10, global = -4.26253e-21, cumulative = 5.62856e-21
ExecutionTime = 187.9 s  ClockTime = 189 s

Time = 0.00736842

Courant Number mean: 0.191678 max: 0.967284
DILUPBiCGStab:  Solving for Ux, Initial residual = 0.000950146, Final residual = 5.46691e-06, No Iterations 5
DILUPBiCGStab:  Solving for Uy, Initial residual = 0.00293938, Final residual = 1.32773e-05, No Iterations 5
DILUPBiCGStab:  Solving for Uz, Initial residual = 0.0133277, Final residual = 0.000129154, No Iterations 5
linear solve U 794017
nonePBiCGStab:  Solving for p, Initial residual = 0.223718, Final residual = 3.98925e-07, No Iterations 592
linear solve p 13385464
time step continuity errors : sum local = 2.1634e-10, global = 7.71731e-21, cumulative = 1.33459e-20
nonePBiCGStab:  Solving for p, Initial residual = 0.188071, Final residual = 4.98718e-07, No Iterations 578
linear solve p 13062525
time step continuity errors : sum local = 2.28797e-10, global = 1.49694e-20, cumulative = 2.83153e-20
ExecutionTime = 215.52 s  ClockTime = 216 s

Time = 0.00842105

Courant Number mean: 0.191662 max: 0.967486
DILUPBiCGStab:  Solving for Ux, Initial residual = 0.000778735, Final residual = 3.63404e-06, No Iterations 5
DILUPBiCGStab:  Solving for Uy, Initial residual = 0.00240305, Final residual = 8.22702e-06, No Iterations 5
DILUPBiCGStab:  Solving for Uz, Initial residual = 0.0106016, Final residual = 9.24416e-05, No Iterations 5
linear solve U 793452
nonePBiCGStab:  Solving for p, Initial residual = 0.197487, Final residual = 8.87452e-07, No Iterations 593
linear solve p 13596444
time step continuity errors : sum local = 4.81751e-10, global = 3.06524e-21, cumulative = 3.13805e-20
nonePBiCGStab:  Solving for p, Initial residual = 0.1659, Final residual = 8.80684e-07, No Iterations 575
linear solve p 12958290
time step continuity errors : sum local = 3.90805e-10, global = 2.19503e-20, cumulative = 5.33309e-20
ExecutionTime = 243.24 s  ClockTime = 244 s

Time = 0.00947368

Courant Number mean: 0.191651 max: 0.967296
DILUPBiCGStab:  Solving for Ux, Initial residual = 0.000647599, Final residual = 2.73666e-06, No Iterations 5
DILUPBiCGStab:  Solving for Uy, Initial residual = 0.00201763, Final residual = 6.98112e-06, No Iterations 5
DILUPBiCGStab:  Solving for Uz, Initial residual = 0.00869764, Final residual = 7.35176e-05, No Iterations 5
linear solve U 791961
nonePBiCGStab:  Solving for p, Initial residual = 0.169207, Final residual = 8.65071e-07, No Iterations 620
linear solve p 13928339
time step continuity errors : sum local = 3.37965e-10, global = -8.9777e-21, cumulative = 4.43532e-20
nonePBiCGStab:  Solving for p, Initial residual = 0.140985, Final residual = 6.08956e-07, No Iterations 601
linear solve p 13548463
time step continuity errors : sum local = 3.46905e-10, global = 4.1127e-22, cumulative = 4.47644e-20
ExecutionTime = 271.89 s  ClockTime = 273 s

Time = 0.0105263

Courant Number mean: 0.191645 max: 0.96742
DILUPBiCGStab:  Solving for Ux, Initial residual = 0.000545183, Final residual = 2.23361e-06, No Iterations 5
DILUPBiCGStab:  Solving for Uy, Initial residual = 0.00169519, Final residual = 4.77103e-06, No Iterations 5
DILUPBiCGStab:  Solving for Uz, Initial residual = 0.0069666, Final residual = 5.36909e-05, No Iterations 5
linear solve U 788671
nonePBiCGStab:  Solving for p, Initial residual = 0.149278, Final residual = 9.04823e-07, No Iterations 534
linear solve p 12111346
time step continuity errors : sum local = 6.44614e-10, global = -1.42753e-21, cumulative = 4.33369e-20
nonePBiCGStab:  Solving for p, Initial residual = 0.12433, Final residual = 7.06786e-07, No Iterations 532
linear solve p 12081316
time step continuity errors : sum local = 4.23331e-10, global = -1.56959e-21, cumulative = 4.17673e-20
ExecutionTime = 297.26 s  ClockTime = 298 s

End

