/*---------------------------------------------------------------------------*\
  =========                 |
  \\      /  F ield         | OpenFOAM: The Open Source CFD Toolbox
   \\    /   O peration     | Website:  https://openfoam.org
    \\  /    A nd           | Version:  8
     \\/     M anipulation  |
\*---------------------------------------------------------------------------*/
Build  : 8-ef60d22ea792
Exec   : icoFoam
Date   : Sep 11 2021
Time   : 14:37:31
Host   : "uc2n513.localdomain"
PID    : 230118
I/O    : uncollated
Case   : /pfs/data5/home/kit/scc/nq7776/data/code/OBR/lidDrivenCavity3D/Variation_init/100/Variation_mesh/50/Variation_matrix_solver/CG_NoPrecond_CUDA/1631363845
nProcs : 1
sigFpe : Enabling floating point exception trapping (FOAM_SIGFPE).
fileModificationChecking : Monitoring run-time modified files using timeStampMaster (fileModificationSkew 10)
allowSystemOperations : Allowing user-supplied system call operations

// * * * * * * * * * * * * * * * * * * * * * * * * * * * * * * * * * * * * * //
Create time

Create mesh for time = 0

Reading transportProperties

Reading field p

Reading field U

Reading/calculating face flux field phi


Starting time loop

Time = 0.002

Courant Number mean: 0.192148 max: 0.956831
DILUPBiCGStab:  Solving for Ux, Initial residual = 0.172561, Final residual = 2.46398e-05, No Iterations 5
DILUPBiCGStab:  Solving for Uy, Initial residual = 0.345881, Final residual = 4.22593e-05, No Iterations 5
DILUPBiCGStab:  Solving for Uz, Initial residual = 0.516458, Final residual = 7.14476e-05, No Iterations 5
linear solve U 114292
[OGL LOG] init_host_sparsity_pattern : 34 ms
[OGL LOG] matrix not stored update host matrix
[OGL LOG] update_host_mtx : 18 ms
[OGL LOG] matrix is not yet sorted, compute sorting idxs
[OGL LOG] compute_sort : 981 ms
[OGL LOG] matrix is not yet sorted, sorting host matrix
[OGL LOG] sort_host_mtx_sparsity_pattern : 23 ms
[OGL LOG] sort_host_mtx : 12 ms
[OGL LOG] init_preconditioner : 0 ms
[OGL LOG] solve : 65 ms
nonecudaGKOCG:  Solving for p, Initial residual = 0.676582, Final residual = 9.25627e-07, No Iterations 416
linear solve p 1875256
time step continuity errors : sum local = 2.77144e-09, global = -2.2251e-20, cumulative = -2.2251e-20
[OGL LOG] init_preconditioner : 0 ms
[OGL LOG] solve : 64 ms
nonecudaGKOCG:  Solving for p, Initial residual = 0.411256, Final residual = 9.81334e-07, No Iterations 418
linear solve p 67942
time step continuity errors : sum local = 1.50839e-09, global = 1.54037e-21, cumulative = -2.07106e-20
ExecutionTime = 2.67 s  ClockTime = 3 s

Time = 0.004

Courant Number mean: 0.192597 max: 0.939084
DILUPBiCGStab:  Solving for Ux, Initial residual = 0.0107652, Final residual = 2.47592e-05, No Iterations 5
DILUPBiCGStab:  Solving for Uy, Initial residual = 0.0214039, Final residual = 3.55402e-05, No Iterations 5
DILUPBiCGStab:  Solving for Uz, Initial residual = 0.0908853, Final residual = 0.00010223, No Iterations 5
linear solve U 103812
[OGL LOG] init_preconditioner : 0 ms
[OGL LOG] solve : 65 ms
nonecudaGKOCG:  Solving for p, Initial residual = 0.329321, Final residual = 9.57488e-07, No Iterations 427
linear solve p 69201
time step continuity errors : sum local = 7.26408e-07, global = 1.33803e-20, cumulative = -7.33037e-21
[OGL LOG] init_preconditioner : 0 ms
[OGL LOG] solve : 64 ms
nonecudaGKOCG:  Solving for p, Initial residual = 0.245937, Final residual = 9.59915e-07, No Iterations 424
linear solve p 68477
time step continuity errors : sum local = 6.32975e-07, global = 6.19041e-22, cumulative = -6.71133e-21
ExecutionTime = 2.98 s  ClockTime = 3 s

Time = 0.006

Courant Number mean: 0.192342 max: 0.940635
DILUPBiCGStab:  Solving for Ux, Initial residual = 0.0035211, Final residual = 6.70766e-06, No Iterations 5
DILUPBiCGStab:  Solving for Uy, Initial residual = 0.00758726, Final residual = 1.70041e-05, No Iterations 5
DILUPBiCGStab:  Solving for Uz, Initial residual = 0.0401329, Final residual = 6.16665e-05, No Iterations 5
linear solve U 107593
[OGL LOG] init_preconditioner : 0 ms
[OGL LOG] solve : 63 ms
nonecudaGKOCG:  Solving for p, Initial residual = 0.174834, Final residual = 9.78476e-07, No Iterations 413
linear solve p 67488
time step continuity errors : sum local = 6.74299e-07, global = -4.42419e-20, cumulative = -5.09532e-20
[OGL LOG] init_preconditioner : 0 ms
[OGL LOG] solve : 62 ms
nonecudaGKOCG:  Solving for p, Initial residual = 0.135102, Final residual = 9.83492e-07, No Iterations 410
linear solve p 66448
time step continuity errors : sum local = 6.31868e-07, global = -8.70639e-21, cumulative = -5.96596e-20
ExecutionTime = 3.29 s  ClockTime = 3 s

Time = 0.008

Courant Number mean: 0.191845 max: 0.938398
DILUPBiCGStab:  Solving for Ux, Initial residual = 0.00145259, Final residual = 1.85268e-06, No Iterations 5
DILUPBiCGStab:  Solving for Uy, Initial residual = 0.00279586, Final residual = 4.21926e-06, No Iterations 5
DILUPBiCGStab:  Solving for Uz, Initial residual = 0.0155963, Final residual = 2.27757e-05, No Iterations 5
linear solve U 103943
[OGL LOG] init_preconditioner : 0 ms
[OGL LOG] solve : 61 ms
nonecudaGKOCG:  Solving for p, Initial residual = 0.104348, Final residual = 9.43261e-07, No Iterations 404
linear solve p 65536
time step continuity errors : sum local = 6.245e-07, global = -4.57907e-20, cumulative = -1.0545e-19
[OGL LOG] init_preconditioner : 0 ms
[OGL LOG] solve : 61 ms
nonecudaGKOCG:  Solving for p, Initial residual = 0.0812712, Final residual = 9.83521e-07, No Iterations 401
linear solve p 65103
time step continuity errors : sum local = 6.31955e-07, global = 3.43218e-21, cumulative = -1.02018e-19
ExecutionTime = 3.59 s  ClockTime = 4 s

Time = 0.01

Courant Number mean: 0.191684 max: 0.938454
DILUPBiCGStab:  Solving for Ux, Initial residual = 0.000754531, Final residual = 1.39896e-06, No Iterations 5
DILUPBiCGStab:  Solving for Uy, Initial residual = 0.00149104, Final residual = 3.19769e-06, No Iterations 5
DILUPBiCGStab:  Solving for Uz, Initial residual = 0.00883753, Final residual = 1.1276e-05, No Iterations 5
linear solve U 103511
[OGL LOG] init_preconditioner : 0 ms
[OGL LOG] solve : 60 ms
nonecudaGKOCG:  Solving for p, Initial residual = 0.0660497, Final residual = 9.47574e-07, No Iterations 395
linear solve p 64970
time step continuity errors : sum local = 6.36769e-07, global = -8.75881e-21, cumulative = -1.10777e-19
[OGL LOG] init_preconditioner : 0 ms
[OGL LOG] solve : 60 ms
nonecudaGKOCG:  Solving for p, Initial residual = 0.0511211, Final residual = 8.85801e-07, No Iterations 394
linear solve p 64398
time step continuity errors : sum local = 6.31935e-07, global = 8.91328e-21, cumulative = -1.01864e-19
ExecutionTime = 3.89 s  ClockTime = 4 s

Time = 0.012

Courant Number mean: 0.191526 max: 0.938315
DILUPBiCGStab:  Solving for Ux, Initial residual = 0.000475217, Final residual = 6.52683e-07, No Iterations 5
DILUPBiCGStab:  Solving for Uy, Initial residual = 0.000801076, Final residual = 1.23584e-06, No Iterations 5
DILUPBiCGStab:  Solving for Uz, Initial residual = 0.0045595, Final residual = 4.808e-06, No Iterations 5
linear solve U 104229
[OGL LOG] init_preconditioner : 0 ms
[OGL LOG] solve : 59 ms
nonecudaGKOCG:  Solving for p, Initial residual = 0.0433106, Final residual = 9.91448e-07, No Iterations 390
linear solve p 63417
time step continuity errors : sum local = 6.3127e-07, global = 3.69072e-20, cumulative = -6.49563e-20
[OGL LOG] init_preconditioner : 0 ms
[OGL LOG] solve : 59 ms
nonecudaGKOCG:  Solving for p, Initial residual = 0.0334576, Final residual = 9.7049e-07, No Iterations 388
linear solve p 63197
time step continuity errors : sum local = 6.31972e-07, global = 7.24962e-20, cumulative = 7.53986e-21
ExecutionTime = 4.19 s  ClockTime = 4 s

Time = 0.014

Courant Number mean: 0.191434 max: 0.93818
DILUPBiCGStab:  Solving for Ux, Initial residual = 0.000304684, Final residual = 5.38211e-07, No Iterations 5
DILUPBiCGStab:  Solving for Uy, Initial residual = 0.000506209, Final residual = 8.01157e-07, No Iterations 5
DILUPBiCGStab:  Solving for Uz, Initial residual = 0.00278987, Final residual = 2.92548e-06, No Iterations 5
linear solve U 103900
[OGL LOG] init_preconditioner : 0 ms
[OGL LOG] solve : 35 ms
nonecudaGKOCG:  Solving for p, Initial residual = 0.0289387, Final residual = 9.4316e-07, No Iterations 225
linear solve p 39169
time step continuity errors : sum local = 6.32714e-07, global = 4.05555e-20, cumulative = 4.80954e-20
[OGL LOG] init_preconditioner : 0 ms
[OGL LOG] solve : 35 ms
nonecudaGKOCG:  Solving for p, Initial residual = 0.0222916, Final residual = 9.79646e-07, No Iterations 221
linear solve p 39563
time step continuity errors : sum local = 6.31962e-07, global = 2.64278e-20, cumulative = 7.45232e-20
ExecutionTime = 4.43 s  ClockTime = 4 s

Time = 0.016

Courant Number mean: 0.191359 max: 0.938152
DILUPBiCGStab:  Solving for Ux, Initial residual = 0.000210219, Final residual = 2.60921e-07, No Iterations 5
DILUPBiCGStab:  Solving for Uy, Initial residual = 0.000325467, Final residual = 3.7383e-07, No Iterations 5
DILUPBiCGStab:  Solving for Uz, Initial residual = 0.00161247, Final residual = 1.62077e-06, No Iterations 5
linear solve U 103178
[OGL LOG] init_preconditioner : 0 ms
[OGL LOG] solve : 29 ms
nonecudaGKOCG:  Solving for p, Initial residual = 0.0195879, Final residual = 9.68559e-07, No Iterations 188
linear solve p 33385
time step continuity errors : sum local = 6.32118e-07, global = -4.3777e-20, cumulative = 3.07462e-20
[OGL LOG] init_preconditioner : 0 ms
[OGL LOG] solve : 29 ms
nonecudaGKOCG:  Solving for p, Initial residual = 0.0150566, Final residual = 9.77194e-07, No Iterations 184
linear solve p 32740
time step continuity errors : sum local = 6.3202e-07, global = -4.17013e-20, cumulative = -1.09551e-20
ExecutionTime = 4.67 s  ClockTime = 5 s

Time = 0.018

Courant Number mean: 0.191306 max: 0.938082
DILUPBiCGStab:  Solving for Ux, Initial residual = 0.00014596, Final residual = 1.49377e-07, No Iterations 5
DILUPBiCGStab:  Solving for Uy, Initial residual = 0.00022225, Final residual = 1.93366e-07, No Iterations 5
DILUPBiCGStab:  Solving for Uz, Initial residual = 0.00106812, Final residual = 9.89237e-07, No Iterations 5
linear solve U 103759
[OGL LOG] init_preconditioner : 0 ms
[OGL LOG] solve : 26 ms
nonecudaGKOCG:  Solving for p, Initial residual = 0.0133826, Final residual = 9.83297e-07, No Iterations 168
linear solve p 30418
time step continuity errors : sum local = 6.32224e-07, global = 5.30678e-21, cumulative = -5.6483e-21
[OGL LOG] init_preconditioner : 0 ms
[OGL LOG] solve : 26 ms
nonecudaGKOCG:  Solving for p, Initial residual = 0.0102851, Final residual = 9.06368e-07, No Iterations 166
linear solve p 30141
time step continuity errors : sum local = 6.31996e-07, global = -3.76082e-20, cumulative = -4.32565e-20
ExecutionTime = 4.91 s  ClockTime = 5 s

Time = 0.02

Courant Number mean: 0.191264 max: 0.938065
DILUPBiCGStab:  Solving for Ux, Initial residual = 0.000105279, Final residual = 1.00129e-07, No Iterations 5
DILUPBiCGStab:  Solving for Uy, Initial residual = 0.000156105, Final residual = 1.0737e-07, No Iterations 5
DILUPBiCGStab:  Solving for Uz, Initial residual = 0.000682837, Final residual = 6.68136e-07, No Iterations 5
linear solve U 103640
[OGL LOG] init_preconditioner : 0 ms
[OGL LOG] solve : 28 ms
nonecudaGKOCG:  Solving for p, Initial residual = 0.00919774, Final residual = 9.72693e-07, No Iterations 174
linear solve p 32837
time step continuity errors : sum local = 6.32115e-07, global = 1.24276e-20, cumulative = -3.08289e-20
[OGL LOG] init_preconditioner : 0 ms
[OGL LOG] solve : 26 ms
nonecudaGKOCG:  Solving for p, Initial residual = 0.0070651, Final residual = 9.8111e-07, No Iterations 167
linear solve p 30276
time step continuity errors : sum local = 6.32018e-07, global = 4.37806e-21, cumulative = -2.64509e-20
ExecutionTime = 5.13 s  ClockTime = 5 s

End

