/*---------------------------------------------------------------------------*\
  =========                 |
  \\      /  F ield         | OpenFOAM: The Open Source CFD Toolbox
   \\    /   O peration     | Website:  https://openfoam.org
    \\  /    A nd           | Version:  8
     \\/     M anipulation  |
\*---------------------------------------------------------------------------*/
Build  : 8-ef60d22ea792
Exec   : icoFoam
Date   : Sep 11 2021
Time   : 14:01:14
Host   : "uc2n442.localdomain"
PID    : 3719499
I/O    : uncollated
Case   : /pfs/data5/home/kit/scc/nq7776/data/code/OBR/lidDrivenCavity3D/Variation_init/100/Variation_mesh/95/Variation_matrix_solver/BiCGStab_DIC_Serial/1631361630
nProcs : 1
sigFpe : Enabling floating point exception trapping (FOAM_SIGFPE).
fileModificationChecking : Monitoring run-time modified files using timeStampMaster (fileModificationSkew 10)
allowSystemOperations : Allowing user-supplied system call operations

// * * * * * * * * * * * * * * * * * * * * * * * * * * * * * * * * * * * * * //
Create time

Create mesh for time = 0

Reading transportProperties

Reading field p

Reading field U

Reading/calculating face flux field phi


Starting time loop

Time = 0.00105263

Courant Number mean: 0.191438 max: 0.965363
DILUPBiCGStab:  Solving for Ux, Initial residual = 0.045256, Final residual = 5.87293e-05, No Iterations 5
DILUPBiCGStab:  Solving for Uy, Initial residual = 0.0864075, Final residual = 0.000143638, No Iterations 5
DILUPBiCGStab:  Solving for Uz, Initial residual = 0.119195, Final residual = 0.000245255, No Iterations 5
linear solve U 881251
DICPBiCGStab:  Solving for p, Initial residual = 0.553351, Final residual = 9.28389e-07, No Iterations 204
linear solve p 8295413
time step continuity errors : sum local = 6.11236e-10, global = 1.08366e-20, cumulative = 1.08366e-20
DICPBiCGStab:  Solving for p, Initial residual = 0.406397, Final residual = 6.75754e-07, No Iterations 200
linear solve p 8227580
time step continuity errors : sum local = 7.67957e-10, global = 1.61619e-20, cumulative = 2.69985e-20
ExecutionTime = 21.67 s  ClockTime = 21 s

Time = 0.00210526

Courant Number mean: 0.19198 max: 0.967664
DILUPBiCGStab:  Solving for Ux, Initial residual = 0.00523045, Final residual = 7.39126e-05, No Iterations 5
DILUPBiCGStab:  Solving for Uy, Initial residual = 0.0137426, Final residual = 0.000156406, No Iterations 5
DILUPBiCGStab:  Solving for Uz, Initial residual = 0.0306461, Final residual = 0.000347259, No Iterations 5
linear solve U 807644
DICPBiCGStab:  Solving for p, Initial residual = 0.506278, Final residual = 9.44632e-07, No Iterations 211
linear solve p 8705507
time step continuity errors : sum local = 1.11161e-09, global = 5.88497e-21, cumulative = 3.28835e-20
DICPBiCGStab:  Solving for p, Initial residual = 0.465372, Final residual = 8.38536e-07, No Iterations 211
linear solve p 8671319
time step continuity errors : sum local = 5.89719e-10, global = -2.58232e-20, cumulative = 7.0603e-21
ExecutionTime = 40.28 s  ClockTime = 40 s

Time = 0.00315789

Courant Number mean: 0.191927 max: 0.968176
DILUPBiCGStab:  Solving for Ux, Initial residual = 0.00334642, Final residual = 4.80242e-05, No Iterations 5
DILUPBiCGStab:  Solving for Uy, Initial residual = 0.00964535, Final residual = 0.000103284, No Iterations 5
DILUPBiCGStab:  Solving for Uz, Initial residual = 0.0265739, Final residual = 0.000316117, No Iterations 5
linear solve U 806176
DICPBiCGStab:  Solving for p, Initial residual = 0.411414, Final residual = 1.07576e-07, No Iterations 199
linear solve p 8200934
time step continuity errors : sum local = 5.4711e-11, global = -6.71387e-21, cumulative = 3.46429e-22
DICPBiCGStab:  Solving for p, Initial residual = 0.362315, Final residual = 7.98522e-07, No Iterations 204
linear solve p 8324851
time step continuity errors : sum local = 4.80756e-10, global = -1.1645e-20, cumulative = -1.12986e-20
ExecutionTime = 58.04 s  ClockTime = 58 s

Time = 0.00421053

Courant Number mean: 0.191778 max: 0.967733
DILUPBiCGStab:  Solving for Ux, Initial residual = 0.00216225, Final residual = 2.09368e-05, No Iterations 5
DILUPBiCGStab:  Solving for Uy, Initial residual = 0.00638933, Final residual = 4.9517e-05, No Iterations 5
DILUPBiCGStab:  Solving for Uz, Initial residual = 0.0215204, Final residual = 0.000246578, No Iterations 5
linear solve U 810572
DICPBiCGStab:  Solving for p, Initial residual = 0.353493, Final residual = 9.88249e-07, No Iterations 199
linear solve p 8168656
time step continuity errors : sum local = 4.95786e-10, global = 1.45949e-20, cumulative = 3.29632e-21
DICPBiCGStab:  Solving for p, Initial residual = 0.308716, Final residual = 9.86737e-07, No Iterations 185
linear solve p 7611094
time step continuity errors : sum local = 6.57835e-10, global = -1.21002e-20, cumulative = -8.80388e-21
ExecutionTime = 75.05 s  ClockTime = 75 s

Time = 0.00526316

Courant Number mean: 0.191744 max: 0.967372
DILUPBiCGStab:  Solving for Ux, Initial residual = 0.00155316, Final residual = 1.48529e-05, No Iterations 5
DILUPBiCGStab:  Solving for Uy, Initial residual = 0.00470406, Final residual = 3.22634e-05, No Iterations 5
DILUPBiCGStab:  Solving for Uz, Initial residual = 0.0193353, Final residual = 0.000210565, No Iterations 5
linear solve U 808393
DICPBiCGStab:  Solving for p, Initial residual = 0.298693, Final residual = 8.89711e-07, No Iterations 192
linear solve p 7888609
time step continuity errors : sum local = 4.28474e-10, global = -1.72208e-21, cumulative = -1.0526e-20
DICPBiCGStab:  Solving for p, Initial residual = 0.254874, Final residual = 9.2602e-07, No Iterations 197
linear solve p 8111698
time step continuity errors : sum local = 4.1353e-10, global = -1.16689e-20, cumulative = -2.21949e-20
ExecutionTime = 92.29 s  ClockTime = 92 s

Time = 0.00631579

Courant Number mean: 0.191698 max: 0.967608
DILUPBiCGStab:  Solving for Ux, Initial residual = 0.00118659, Final residual = 6.91284e-06, No Iterations 5
DILUPBiCGStab:  Solving for Uy, Initial residual = 0.00362428, Final residual = 1.71693e-05, No Iterations 5
DILUPBiCGStab:  Solving for Uz, Initial residual = 0.0157753, Final residual = 0.000159978, No Iterations 5
linear solve U 807731
DICPBiCGStab:  Solving for p, Initial residual = 0.262469, Final residual = 6.71228e-07, No Iterations 182
linear solve p 7444070
time step continuity errors : sum local = 3.02862e-10, global = -5.66629e-21, cumulative = -2.78612e-20
DICPBiCGStab:  Solving for p, Initial residual = 0.223482, Final residual = 7.31745e-07, No Iterations 189
linear solve p 7711487
time step continuity errors : sum local = 2.97506e-10, global = 1.40234e-20, cumulative = -1.38378e-20
ExecutionTime = 108.68 s  ClockTime = 109 s

Time = 0.00736842

Courant Number mean: 0.191678 max: 0.967283
DILUPBiCGStab:  Solving for Ux, Initial residual = 0.000948022, Final residual = 5.42583e-06, No Iterations 5
DILUPBiCGStab:  Solving for Uy, Initial residual = 0.00293304, Final residual = 1.32338e-05, No Iterations 5
DILUPBiCGStab:  Solving for Uz, Initial residual = 0.0131736, Final residual = 0.000127392, No Iterations 5
linear solve U 810645
DICPBiCGStab:  Solving for p, Initial residual = 0.223613, Final residual = 9.14165e-07, No Iterations 183
linear solve p 7536721
time step continuity errors : sum local = 5.06685e-10, global = -5.59966e-21, cumulative = -1.94375e-20
DICPBiCGStab:  Solving for p, Initial residual = 0.187973, Final residual = 9.75596e-07, No Iterations 182
linear solve p 7439179
time step continuity errors : sum local = 4.02691e-10, global = -1.37211e-20, cumulative = -3.31585e-20
ExecutionTime = 124.91 s  ClockTime = 125 s

Time = 0.00842105

Courant Number mean: 0.191661 max: 0.967486
DILUPBiCGStab:  Solving for Ux, Initial residual = 0.000777225, Final residual = 3.62776e-06, No Iterations 5
DILUPBiCGStab:  Solving for Uy, Initial residual = 0.00239798, Final residual = 8.23647e-06, No Iterations 5
DILUPBiCGStab:  Solving for Uz, Initial residual = 0.0104911, Final residual = 9.34577e-05, No Iterations 5
linear solve U 804059
DICPBiCGStab:  Solving for p, Initial residual = 0.197387, Final residual = 4.2367e-07, No Iterations 181
linear solve p 7386019
time step continuity errors : sum local = 1.60843e-10, global = -2.53924e-20, cumulative = -5.85509e-20
DICPBiCGStab:  Solving for p, Initial residual = 0.165807, Final residual = 9.40025e-07, No Iterations 174
linear solve p 7134952
time step continuity errors : sum local = 3.72894e-10, global = 4.22742e-20, cumulative = -1.62767e-20
ExecutionTime = 140.67 s  ClockTime = 141 s

Time = 0.00947368

Courant Number mean: 0.191651 max: 0.967296
DILUPBiCGStab:  Solving for Ux, Initial residual = 0.000646259, Final residual = 2.69269e-06, No Iterations 5
DILUPBiCGStab:  Solving for Uy, Initial residual = 0.00201298, Final residual = 7.01153e-06, No Iterations 5
DILUPBiCGStab:  Solving for Uz, Initial residual = 0.00860059, Final residual = 7.32197e-05, No Iterations 5
linear solve U 805197
DICPBiCGStab:  Solving for p, Initial residual = 0.169105, Final residual = 9.88909e-07, No Iterations 180
linear solve p 7380803
time step continuity errors : sum local = 3.8844e-10, global = 8.23088e-22, cumulative = -1.54536e-20
DICPBiCGStab:  Solving for p, Initial residual = 0.14089, Final residual = 2.72104e-07, No Iterations 177
linear solve p 7289429
time step continuity errors : sum local = 1.09132e-10, global = 1.432e-20, cumulative = -1.1336e-21
ExecutionTime = 156.59 s  ClockTime = 157 s

Time = 0.0105263

Courant Number mean: 0.191644 max: 0.967419
DILUPBiCGStab:  Solving for Ux, Initial residual = 0.000543978, Final residual = 2.23622e-06, No Iterations 5
DILUPBiCGStab:  Solving for Uy, Initial residual = 0.00169061, Final residual = 4.71023e-06, No Iterations 5
DILUPBiCGStab:  Solving for Uz, Initial residual = 0.00687151, Final residual = 5.36413e-05, No Iterations 5
linear solve U 805463
DICPBiCGStab:  Solving for p, Initial residual = 0.149177, Final residual = 9.87622e-07, No Iterations 159
linear solve p 6530333
time step continuity errors : sum local = 4.62616e-10, global = 1.14448e-20, cumulative = 1.03112e-20
DICPBiCGStab:  Solving for p, Initial residual = 0.124236, Final residual = 9.8158e-07, No Iterations 158
linear solve p 6496825
time step continuity errors : sum local = 4.039e-10, global = 3.36199e-21, cumulative = 1.36732e-20
ExecutionTime = 170.85 s  ClockTime = 171 s

End

