/*---------------------------------------------------------------------------*\
  =========                 |
  \\      /  F ield         | OpenFOAM: The Open Source CFD Toolbox
   \\    /   O peration     | Website:  https://openfoam.org
    \\  /    A nd           | Version:  8
     \\/     M anipulation  |
\*---------------------------------------------------------------------------*/
Build  : 8-ef60d22ea792
Exec   : icoFoam
Date   : Sep 11 2021
Time   : 13:37:19
Host   : "uc2n513.localdomain"
PID    : 215514
I/O    : uncollated
Case   : /pfs/data5/home/kit/scc/nq7776/data/code/OBR/lidDrivenCavity3D/Variation_init/100/Variation_mesh/90/Variation_matrix_solver/CG_BJ_CUDA/1631360210
nProcs : 1
sigFpe : Enabling floating point exception trapping (FOAM_SIGFPE).
fileModificationChecking : Monitoring run-time modified files using timeStampMaster (fileModificationSkew 10)
allowSystemOperations : Allowing user-supplied system call operations

// * * * * * * * * * * * * * * * * * * * * * * * * * * * * * * * * * * * * * //
Create time

Create mesh for time = 0

Reading transportProperties

Reading field p

Reading field U

Reading/calculating face flux field phi


Starting time loop

Time = 0.00111111

Courant Number mean: 0.191271 max: 0.964262
DILUPBiCGStab:  Solving for Ux, Initial residual = 0.0815126, Final residual = 3.69664e-05, No Iterations 5
DILUPBiCGStab:  Solving for Uy, Initial residual = 0.160779, Final residual = 9.81773e-05, No Iterations 5
DILUPBiCGStab:  Solving for Uz, Initial residual = 0.229936, Final residual = 0.000233997, No Iterations 5
linear solve U 792123
[OGL LOG] init_host_sparsity_pattern : 207 ms
[OGL LOG] matrix not stored update host matrix
[OGL LOG] update_host_mtx : 108 ms
[OGL LOG] matrix is not yet sorted, compute sorting idxs
[OGL LOG] compute_sort : 6533 ms
[OGL LOG] matrix is not yet sorted, sorting host matrix
[OGL LOG] sort_host_mtx_sparsity_pattern : 140 ms
[OGL LOG] sort_host_mtx : 86 ms
[OGL LOG] init_preconditioner : 94 ms
[OGL LOG] solve : 659 ms
BJcudaGKOCG:  Solving for p, Initial residual = 0.624561, Final residual = 9.84766e-07, No Iterations 609
linear solve p 8630990
time step continuity errors : sum local = 7.72956e-10, global = -5.97786e-21, cumulative = -5.97786e-21
[OGL LOG] init_preconditioner : 0 ms
[OGL LOG] solve : 644 ms
BJcudaGKOCG:  Solving for p, Initial residual = 0.406686, Final residual = 9.8425e-07, No Iterations 609
linear solve p 668077
time step continuity errors : sum local = 6.80073e-10, global = -9.16891e-22, cumulative = -6.89476e-21
ExecutionTime = 13.86 s  ClockTime = 14 s

Time = 0.00222222

Courant Number mean: 0.191576 max: 0.966096
DILUPBiCGStab:  Solving for Ux, Initial residual = 0.00592338, Final residual = 4.09337e-05, No Iterations 5
DILUPBiCGStab:  Solving for Uy, Initial residual = 0.0150639, Final residual = 9.7722e-05, No Iterations 5
DILUPBiCGStab:  Solving for Uz, Initial residual = 0.0371682, Final residual = 0.000290416, No Iterations 5
linear solve U 730724
[OGL LOG] init_preconditioner : 0 ms
[OGL LOG] solve : 701 ms
BJcudaGKOCG:  Solving for p, Initial residual = 0.505784, Final residual = 9.93555e-07, No Iterations 650
linear solve p 724417
time step continuity errors : sum local = 6.57679e-08, global = -9.05621e-21, cumulative = -1.5951e-20
[OGL LOG] init_preconditioner : 0 ms
[OGL LOG] solve : 701 ms
BJcudaGKOCG:  Solving for p, Initial residual = 0.413243, Final residual = 9.88216e-07, No Iterations 649
linear solve p 725456
time step continuity errors : sum local = 5.6206e-08, global = 2.5933e-20, cumulative = 9.98207e-21
ExecutionTime = 16.48 s  ClockTime = 17 s

Time = 0.00333333

Courant Number mean: 0.191547 max: 0.965832
DILUPBiCGStab:  Solving for Ux, Initial residual = 0.00295628, Final residual = 1.93785e-05, No Iterations 5
DILUPBiCGStab:  Solving for Uy, Initial residual = 0.0083024, Final residual = 4.5013e-05, No Iterations 5
DILUPBiCGStab:  Solving for Uz, Initial residual = 0.0239437, Final residual = 0.000210201, No Iterations 5
linear solve U 729543
[OGL LOG] init_preconditioner : 0 ms
[OGL LOG] solve : 685 ms
BJcudaGKOCG:  Solving for p, Initial residual = 0.418925, Final residual = 9.93717e-07, No Iterations 619
linear solve p 709503
time step continuity errors : sum local = 5.74483e-08, global = 2.21018e-20, cumulative = 3.20839e-20
[OGL LOG] init_preconditioner : 0 ms
[OGL LOG] solve : 670 ms
BJcudaGKOCG:  Solving for p, Initial residual = 0.332377, Final residual = 9.60534e-07, No Iterations 618
linear solve p 695665
time step continuity errors : sum local = 5.53505e-08, global = -1.5686e-20, cumulative = 1.63979e-20
ExecutionTime = 19.07 s  ClockTime = 20 s

Time = 0.00444444

Courant Number mean: 0.191511 max: 0.965615
DILUPBiCGStab:  Solving for Ux, Initial residual = 0.00214742, Final residual = 8.191e-06, No Iterations 5
DILUPBiCGStab:  Solving for Uy, Initial residual = 0.00587405, Final residual = 2.32685e-05, No Iterations 5
DILUPBiCGStab:  Solving for Uz, Initial residual = 0.0164918, Final residual = 0.000120183, No Iterations 5
linear solve U 724742
[OGL LOG] init_preconditioner : 0 ms
[OGL LOG] solve : 676 ms
BJcudaGKOCG:  Solving for p, Initial residual = 0.361194, Final residual = 9.64927e-07, No Iterations 609
linear solve p 698820
time step continuity errors : sum local = 5.74637e-08, global = -8.97105e-21, cumulative = 7.42681e-21
[OGL LOG] init_preconditioner : 0 ms
[OGL LOG] solve : 657 ms
BJcudaGKOCG:  Solving for p, Initial residual = 0.291193, Final residual = 9.39906e-07, No Iterations 608
linear solve p 680101
time step continuity errors : sum local = 5.57789e-08, global = 8.49598e-21, cumulative = 1.59228e-20
ExecutionTime = 21.62 s  ClockTime = 22 s

Time = 0.00555556

Courant Number mean: 0.191518 max: 0.965518
DILUPBiCGStab:  Solving for Ux, Initial residual = 0.0016945, Final residual = 5.93673e-06, No Iterations 5
DILUPBiCGStab:  Solving for Uy, Initial residual = 0.00442483, Final residual = 1.37469e-05, No Iterations 5
DILUPBiCGStab:  Solving for Uz, Initial residual = 0.0133832, Final residual = 9.38085e-05, No Iterations 5
linear solve U 725238
[OGL LOG] init_preconditioner : 0 ms
[OGL LOG] solve : 669 ms
BJcudaGKOCG:  Solving for p, Initial residual = 0.306595, Final residual = 9.84041e-07, No Iterations 604
linear solve p 692212
time step continuity errors : sum local = 5.62576e-08, global = -3.96061e-21, cumulative = 1.19622e-20
[OGL LOG] init_preconditioner : 0 ms
[OGL LOG] solve : 652 ms
BJcudaGKOCG:  Solving for p, Initial residual = 0.245976, Final residual = 9.98902e-07, No Iterations 601
linear solve p 676590
time step continuity errors : sum local = 5.54663e-08, global = 1.36197e-20, cumulative = 2.55819e-20
ExecutionTime = 24.14 s  ClockTime = 25 s

Time = 0.00666667

Courant Number mean: 0.191517 max: 0.965551
DILUPBiCGStab:  Solving for Ux, Initial residual = 0.00138669, Final residual = 3.32116e-06, No Iterations 5
DILUPBiCGStab:  Solving for Uy, Initial residual = 0.00349295, Final residual = 8.62141e-06, No Iterations 5
DILUPBiCGStab:  Solving for Uz, Initial residual = 0.0104296, Final residual = 6.29074e-05, No Iterations 5
linear solve U 723851
[OGL LOG] init_preconditioner : 0 ms
[OGL LOG] solve : 642 ms
BJcudaGKOCG:  Solving for p, Initial residual = 0.266614, Final residual = 9.72714e-07, No Iterations 597
linear solve p 666621
time step continuity errors : sum local = 5.6388e-08, global = 7.33081e-21, cumulative = 3.29127e-20
[OGL LOG] init_preconditioner : 0 ms
[OGL LOG] solve : 643 ms
BJcudaGKOCG:  Solving for p, Initial residual = 0.214427, Final residual = 9.7451e-07, No Iterations 595
linear solve p 666455
time step continuity errors : sum local = 5.56673e-08, global = -2.88777e-20, cumulative = 4.03499e-21
ExecutionTime = 26.64 s  ClockTime = 27 s

Time = 0.00777778

Courant Number mean: 0.191524 max: 0.965515
DILUPBiCGStab:  Solving for Ux, Initial residual = 0.00115072, Final residual = 2.6158e-06, No Iterations 5
DILUPBiCGStab:  Solving for Uy, Initial residual = 0.00283196, Final residual = 6.46263e-06, No Iterations 5
DILUPBiCGStab:  Solving for Uz, Initial residual = 0.008517, Final residual = 5.09618e-05, No Iterations 5
linear solve U 734557
[OGL LOG] init_preconditioner : 0 ms
[OGL LOG] solve : 639 ms
BJcudaGKOCG:  Solving for p, Initial residual = 0.230306, Final residual = 9.84447e-07, No Iterations 590
linear solve p 661979
time step continuity errors : sum local = 5.57349e-08, global = 2.61091e-20, cumulative = 3.01441e-20
[OGL LOG] init_preconditioner : 0 ms
[OGL LOG] solve : 640 ms
BJcudaGKOCG:  Solving for p, Initial residual = 0.185289, Final residual = 9.88408e-07, No Iterations 589
linear solve p 662992
time step continuity errors : sum local = 5.54867e-08, global = 2.18087e-20, cumulative = 5.19528e-20
ExecutionTime = 29.15 s  ClockTime = 30 s

Time = 0.00888889

Courant Number mean: 0.191529 max: 0.965518
DILUPBiCGStab:  Solving for Ux, Initial residual = 0.000963942, Final residual = 2.01926e-06, No Iterations 5
DILUPBiCGStab:  Solving for Uy, Initial residual = 0.00232866, Final residual = 4.31442e-06, No Iterations 5
DILUPBiCGStab:  Solving for Uz, Initial residual = 0.00676845, Final residual = 3.54706e-05, No Iterations 5
linear solve U 723659
[OGL LOG] init_preconditioner : 0 ms
[OGL LOG] solve : 634 ms
BJcudaGKOCG:  Solving for p, Initial residual = 0.199699, Final residual = 9.04145e-07, No Iterations 585
linear solve p 657612
time step continuity errors : sum local = 5.6071e-08, global = -1.12634e-21, cumulative = 5.08265e-20
[OGL LOG] init_preconditioner : 0 ms
[OGL LOG] solve : 633 ms
BJcudaGKOCG:  Solving for p, Initial residual = 0.160524, Final residual = 9.05617e-07, No Iterations 584
linear solve p 656387
time step continuity errors : sum local = 5.55858e-08, global = -1.73653e-20, cumulative = 3.34612e-20
ExecutionTime = 31.62 s  ClockTime = 32 s

Time = 0.01

Courant Number mean: 0.191535 max: 0.965521
DILUPBiCGStab:  Solving for Ux, Initial residual = 0.000812559, Final residual = 1.46349e-06, No Iterations 5
DILUPBiCGStab:  Solving for Uy, Initial residual = 0.0019357, Final residual = 4.08566e-06, No Iterations 5
DILUPBiCGStab:  Solving for Uz, Initial residual = 0.00552636, Final residual = 2.83753e-05, No Iterations 5
linear solve U 722528
[OGL LOG] init_preconditioner : 0 ms
[OGL LOG] solve : 630 ms
BJcudaGKOCG:  Solving for p, Initial residual = 0.173325, Final residual = 9.90814e-07, No Iterations 580
linear solve p 654209
time step continuity errors : sum local = 5.55147e-08, global = 3.82363e-21, cumulative = 3.72848e-20
[OGL LOG] init_preconditioner : 0 ms
[OGL LOG] solve : 626 ms
BJcudaGKOCG:  Solving for p, Initial residual = 0.139511, Final residual = 9.71173e-07, No Iterations 578
linear solve p 649067
time step continuity errors : sum local = 5.54902e-08, global = 2.01532e-20, cumulative = 5.74381e-20
ExecutionTime = 34.09 s  ClockTime = 35 s

Time = 0.0111111

Courant Number mean: 0.19154 max: 0.965506
DILUPBiCGStab:  Solving for Ux, Initial residual = 0.000687552, Final residual = 1.42021e-06, No Iterations 5
DILUPBiCGStab:  Solving for Uy, Initial residual = 0.00161644, Final residual = 2.87944e-06, No Iterations 5
DILUPBiCGStab:  Solving for Uz, Initial residual = 0.00444815, Final residual = 2.05802e-05, No Iterations 5
linear solve U 732010
[OGL LOG] init_preconditioner : 0 ms
[OGL LOG] solve : 623 ms
BJcudaGKOCG:  Solving for p, Initial residual = 0.149813, Final residual = 9.416e-07, No Iterations 575
linear solve p 647282
time step continuity errors : sum local = 5.58901e-08, global = -1.72075e-20, cumulative = 4.02306e-20
[OGL LOG] init_preconditioner : 0 ms
[OGL LOG] solve : 620 ms
BJcudaGKOCG:  Solving for p, Initial residual = 0.120445, Final residual = 9.38557e-07, No Iterations 574
linear solve p 643570
time step continuity errors : sum local = 5.55655e-08, global = 2.65318e-20, cumulative = 6.67624e-20
ExecutionTime = 36.54 s  ClockTime = 37 s

End

