/*---------------------------------------------------------------------------*\
  =========                 |
  \\      /  F ield         | OpenFOAM: The Open Source CFD Toolbox
   \\    /   O peration     | Website:  https://openfoam.org
    \\  /    A nd           | Version:  8
     \\/     M anipulation  |
\*---------------------------------------------------------------------------*/
Build  : 8-ef60d22ea792
Exec   : icoFoam
Date   : Sep 11 2021
Time   : 14:56:40
Host   : "uc2n442.localdomain"
PID    : 3724987
I/O    : uncollated
Case   : /pfs/data5/home/kit/scc/nq7776/data/code/OBR/lidDrivenCavity3D/Variation_init/100/Variation_mesh/20/Variation_matrix_solver/CG_NoPrecond_Serial/1631365000
nProcs : 1
sigFpe : Enabling floating point exception trapping (FOAM_SIGFPE).
fileModificationChecking : Monitoring run-time modified files using timeStampMaster (fileModificationSkew 10)
allowSystemOperations : Allowing user-supplied system call operations

// * * * * * * * * * * * * * * * * * * * * * * * * * * * * * * * * * * * * * //
Create time

Create mesh for time = 0

Reading transportProperties

Reading field p

Reading field U

Reading/calculating face flux field phi


Starting time loop

Time = 0.005

Courant Number mean: 0.189426 max: 0.847077
DILUPBiCGStab:  Solving for Ux, Initial residual = 0.0520863, Final residual = 1.93382e-07, No Iterations 5
DILUPBiCGStab:  Solving for Uy, Initial residual = 0.0827593, Final residual = 3.95798e-07, No Iterations 5
DILUPBiCGStab:  Solving for Uz, Initial residual = 0.0638903, Final residual = 5.63531e-07, No Iterations 5
linear solve U 5629
nonePCG:  Solving for p, Initial residual = 0.518631, Final residual = 8.39543e-07, No Iterations 165
linear solve p 10922
time step continuity errors : sum local = 6.81258e-09, global = 2.72023e-19, cumulative = 2.72023e-19
nonePCG:  Solving for p, Initial residual = 0.286623, Final residual = 9.53438e-07, No Iterations 162
linear solve p 10740
time step continuity errors : sum local = 5.75257e-09, global = -8.38695e-20, cumulative = 1.88153e-19
ExecutionTime = 0.09 s  ClockTime = 1 s

Time = 0.01

Courant Number mean: 0.188529 max: 0.846325
DILUPBiCGStab:  Solving for Ux, Initial residual = 0.0110583, Final residual = 2.88338e-07, No Iterations 5
DILUPBiCGStab:  Solving for Uy, Initial residual = 0.0195296, Final residual = 2.7634e-07, No Iterations 5
DILUPBiCGStab:  Solving for Uz, Initial residual = 0.0446953, Final residual = 4.31772e-07, No Iterations 5
linear solve U 4654
nonePCG:  Solving for p, Initial residual = 0.129827, Final residual = 8.10666e-07, No Iterations 160
linear solve p 10606
time step continuity errors : sum local = 4.91864e-09, global = 8.57474e-20, cumulative = 2.73901e-19
nonePCG:  Solving for p, Initial residual = 0.0825391, Final residual = 9.01415e-07, No Iterations 157
linear solve p 10412
time step continuity errors : sum local = 5.61418e-09, global = 4.35579e-19, cumulative = 7.09479e-19
ExecutionTime = 0.12 s  ClockTime = 1 s

Time = 0.015

Courant Number mean: 0.188052 max: 0.844689
DILUPBiCGStab:  Solving for Ux, Initial residual = 0.00147353, Final residual = 1.16618e-08, No Iterations 5
DILUPBiCGStab:  Solving for Uy, Initial residual = 0.00300943, Final residual = 2.28355e-08, No Iterations 5
DILUPBiCGStab:  Solving for Uz, Initial residual = 0.00692734, Final residual = 6.22953e-08, No Iterations 5
linear solve U 4668
nonePCG:  Solving for p, Initial residual = 0.0277582, Final residual = 8.0767e-07, No Iterations 153
linear solve p 10196
time step continuity errors : sum local = 4.98483e-09, global = 1.5135e-19, cumulative = 8.60829e-19
nonePCG:  Solving for p, Initial residual = 0.0179795, Final residual = 9.61253e-07, No Iterations 150
linear solve p 9987
time step continuity errors : sum local = 5.94139e-09, global = 1.57924e-19, cumulative = 1.01875e-18
ExecutionTime = 0.15 s  ClockTime = 1 s

Time = 0.02

Courant Number mean: 0.187909 max: 0.844511
DILUPBiCGStab:  Solving for Ux, Initial residual = 0.000567414, Final residual = 1.23239e-08, No Iterations 5
DILUPBiCGStab:  Solving for Uy, Initial residual = 0.000652453, Final residual = 1.26059e-08, No Iterations 5
DILUPBiCGStab:  Solving for Uz, Initial residual = 0.00324627, Final residual = 2.62218e-08, No Iterations 5
linear solve U 4606
nonePCG:  Solving for p, Initial residual = 0.00920683, Final residual = 9.25359e-07, No Iterations 144
linear solve p 10179
time step continuity errors : sum local = 5.69512e-09, global = -8.5127e-20, cumulative = 9.33626e-19
nonePCG:  Solving for p, Initial residual = 0.00619292, Final residual = 9.69924e-07, No Iterations 141
linear solve p 9523
time step continuity errors : sum local = 5.96166e-09, global = -2.10558e-20, cumulative = 9.1257e-19
ExecutionTime = 0.18 s  ClockTime = 1 s

Time = 0.025

Courant Number mean: 0.187822 max: 0.844405
DILUPBiCGStab:  Solving for Ux, Initial residual = 0.000229949, Final residual = 3.64851e-09, No Iterations 5
DILUPBiCGStab:  Solving for Uy, Initial residual = 0.000348917, Final residual = 5.97335e-09, No Iterations 5
DILUPBiCGStab:  Solving for Uz, Initial residual = 0.00156013, Final residual = 1.09352e-08, No Iterations 5
linear solve U 4650
nonePCG:  Solving for p, Initial residual = 0.00375734, Final residual = 9.30257e-07, No Iterations 69
linear solve p 4643
time step continuity errors : sum local = 6.58998e-09, global = 1.49057e-19, cumulative = 1.06163e-18
nonePCG:  Solving for p, Initial residual = 0.00258016, Final residual = 9.47859e-07, No Iterations 67
linear solve p 4518
time step continuity errors : sum local = 6.03789e-09, global = 1.34422e-19, cumulative = 1.19605e-18
ExecutionTime = 0.19 s  ClockTime = 1 s

Time = 0.03

Courant Number mean: 0.18777 max: 0.84431
DILUPBiCGStab:  Solving for Ux, Initial residual = 0.000125215, Final residual = 1.78567e-09, No Iterations 5
DILUPBiCGStab:  Solving for Uy, Initial residual = 0.00016208, Final residual = 2.88841e-09, No Iterations 5
DILUPBiCGStab:  Solving for Uz, Initial residual = 0.000994953, Final residual = 7.04691e-09, No Iterations 5
linear solve U 4616
nonePCG:  Solving for p, Initial residual = 0.001593, Final residual = 9.30107e-07, No Iterations 133
linear solve p 8820
time step continuity errors : sum local = 5.72351e-09, global = -1.56032e-19, cumulative = 1.04002e-18
nonePCG:  Solving for p, Initial residual = 0.00108287, Final residual = 8.46523e-07, No Iterations 132
linear solve p 8736
time step continuity errors : sum local = 5.20789e-09, global = 1.84001e-19, cumulative = 1.22402e-18
ExecutionTime = 0.22 s  ClockTime = 1 s

Time = 0.035

Courant Number mean: 0.18774 max: 0.84426
DILUPBiCGStab:  Solving for Ux, Initial residual = 6.77597e-05, Final residual = 5.43623e-10, No Iterations 5
DILUPBiCGStab:  Solving for Uy, Initial residual = 9.92934e-05, Final residual = 1.88888e-09, No Iterations 5
DILUPBiCGStab:  Solving for Uz, Initial residual = 0.000651486, Final residual = 4.76227e-09, No Iterations 5
linear solve U 4549
nonePCG:  Solving for p, Initial residual = 0.000709947, Final residual = 9.55997e-07, No Iterations 61
linear solve p 4118
time step continuity errors : sum local = 7.26872e-09, global = 6.17702e-20, cumulative = 1.28579e-18
nonePCG:  Solving for p, Initial residual = 0.000494893, Final residual = 9.31224e-07, No Iterations 59
linear solve p 3997
time step continuity errors : sum local = 6.17349e-09, global = 2.97193e-20, cumulative = 1.31551e-18
ExecutionTime = 0.24 s  ClockTime = 1 s

Time = 0.04

Courant Number mean: 0.187722 max: 0.84423
DILUPBiCGStab:  Solving for Ux, Initial residual = 4.14908e-05, Final residual = 3.17613e-10, No Iterations 5
DILUPBiCGStab:  Solving for Uy, Initial residual = 5.82837e-05, Final residual = 4.93328e-10, No Iterations 5
DILUPBiCGStab:  Solving for Uz, Initial residual = 0.000432704, Final residual = 2.88828e-09, No Iterations 5
linear solve U 4593
nonePCG:  Solving for p, Initial residual = 0.000326736, Final residual = 8.49054e-07, No Iterations 57
linear solve p 3881
time step continuity errors : sum local = 6.32761e-09, global = -8.64075e-20, cumulative = 1.2291e-18
nonePCG:  Solving for p, Initial residual = 0.0002259, Final residual = 9.1843e-07, No Iterations 55
linear solve p 3735
time step continuity errors : sum local = 6.16509e-09, global = 1.58274e-19, cumulative = 1.38737e-18
ExecutionTime = 0.26 s  ClockTime = 1 s

Time = 0.045

Courant Number mean: 0.187711 max: 0.844211
DILUPBiCGStab:  Solving for Ux, Initial residual = 2.55077e-05, Final residual = 1.06191e-10, No Iterations 5
DILUPBiCGStab:  Solving for Uy, Initial residual = 3.69836e-05, Final residual = 4.59308e-10, No Iterations 5
DILUPBiCGStab:  Solving for Uz, Initial residual = 0.000293198, Final residual = 1.78721e-09, No Iterations 5
linear solve U 4579
nonePCG:  Solving for p, Initial residual = 0.000154584, Final residual = 7.62836e-07, No Iterations 55
linear solve p 3758
time step continuity errors : sum local = 5.68288e-09, global = 1.40017e-19, cumulative = 1.52739e-18
nonePCG:  Solving for p, Initial residual = 0.000110523, Final residual = 8.44241e-07, No Iterations 53
linear solve p 3626
time step continuity errors : sum local = 5.78115e-09, global = 7.95711e-20, cumulative = 1.60696e-18
ExecutionTime = 0.28 s  ClockTime = 1 s

Time = 0.05

Courant Number mean: 0.187704 max: 0.8442
DILUPBiCGStab:  Solving for Ux, Initial residual = 1.65159e-05, Final residual = 7.22143e-11, No Iterations 5
DILUPBiCGStab:  Solving for Uy, Initial residual = 2.3482e-05, Final residual = 1.26592e-10, No Iterations 5
DILUPBiCGStab:  Solving for Uz, Initial residual = 0.000198416, Final residual = 1.22258e-09, No Iterations 5
linear solve U 4538
nonePCG:  Solving for p, Initial residual = 7.56256e-05, Final residual = 9.7295e-07, No Iterations 48
linear solve p 3270
time step continuity errors : sum local = 6.93769e-09, global = -9.42184e-20, cumulative = 1.51274e-18
nonePCG:  Solving for p, Initial residual = 5.4546e-05, Final residual = 9.25667e-07, No Iterations 47
linear solve p 3234
time step continuity errors : sum local = 6.34522e-09, global = 1.20344e-19, cumulative = 1.63309e-18
ExecutionTime = 0.29 s  ClockTime = 1 s

End

