/*---------------------------------------------------------------------------*\
  =========                 |
  \\      /  F ield         | OpenFOAM: The Open Source CFD Toolbox
   \\    /   O peration     | Website:  https://openfoam.org
    \\  /    A nd           | Version:  8
     \\/     M anipulation  |
\*---------------------------------------------------------------------------*/
Build  : 8-ef60d22ea792
Exec   : icoFoam
Date   : Sep 11 2021
Time   : 14:09:30
Host   : "uc2n513.localdomain"
PID    : 225427
I/O    : uncollated
Case   : /pfs/data5/home/kit/scc/nq7776/data/code/OBR/lidDrivenCavity3D/Variation_init/100/Variation_mesh/70/Variation_matrix_solver/CG_ILU_CUDA/1631362155
nProcs : 1
sigFpe : Enabling floating point exception trapping (FOAM_SIGFPE).
fileModificationChecking : Monitoring run-time modified files using timeStampMaster (fileModificationSkew 10)
allowSystemOperations : Allowing user-supplied system call operations

// * * * * * * * * * * * * * * * * * * * * * * * * * * * * * * * * * * * * * //
Create time

Create mesh for time = 0

Reading transportProperties

Reading field p

Reading field U

Reading/calculating face flux field phi


Starting time loop

Time = 0.00142857

Courant Number mean: 0.191369 max: 0.960255
DILUPBiCGStab:  Solving for Ux, Initial residual = 0.123219, Final residual = 1.08625e-05, No Iterations 5
DILUPBiCGStab:  Solving for Uy, Initial residual = 0.236374, Final residual = 2.69981e-05, No Iterations 5
DILUPBiCGStab:  Solving for Uz, Initial residual = 0.30937, Final residual = 0.000142646, No Iterations 5
linear solve U 360351
[OGL LOG] init_host_sparsity_pattern : 96 ms
[OGL LOG] matrix not stored update host matrix
[OGL LOG] update_host_mtx : 50 ms
[OGL LOG] matrix is not yet sorted, compute sorting idxs
[OGL LOG] compute_sort : 2931 ms
[OGL LOG] matrix is not yet sorted, sorting host matrix
[OGL LOG] sort_host_mtx_sparsity_pattern : 64 ms
[OGL LOG] sort_host_mtx : 36 ms
[OGL LOG] init_preconditioner : 101 ms
[OGL LOG] solve : 555 ms
ILUcudaGKOCG:  Solving for p, Initial residual = 0.562471, Final residual = 8.41974e-07, No Iterations 182
linear solve p 4591067
time step continuity errors : sum local = 9.95454e-10, global = 4.30318e-21, cumulative = 4.30318e-21
[OGL LOG] init_preconditioner : 0 ms
[OGL LOG] solve : 558 ms
ILUcudaGKOCG:  Solving for p, Initial residual = 0.247873, Final residual = 8.08111e-07, No Iterations 183
linear solve p 569364
time step continuity errors : sum local = 5.59764e-10, global = 6.30466e-21, cumulative = 1.06078e-20
ExecutionTime = 7.3 s  ClockTime = 7 s

Time = 0.00285714

Courant Number mean: 0.191442 max: 0.955464
DILUPBiCGStab:  Solving for Ux, Initial residual = 0.00494474, Final residual = 1.88394e-05, No Iterations 5
DILUPBiCGStab:  Solving for Uy, Initial residual = 0.010261, Final residual = 3.24075e-05, No Iterations 5
DILUPBiCGStab:  Solving for Uz, Initial residual = 0.033388, Final residual = 0.000124116, No Iterations 5
linear solve U 333858
[OGL LOG] init_preconditioner : 0 ms
[OGL LOG] solve : 557 ms
ILUcudaGKOCG:  Solving for p, Initial residual = 0.235819, Final residual = 8.86313e-07, No Iterations 182
linear solve p 567487
time step continuity errors : sum local = 2.12949e-07, global = -1.32504e-20, cumulative = -2.64253e-21
[OGL LOG] init_preconditioner : 0 ms
[OGL LOG] solve : 555 ms
ILUcudaGKOCG:  Solving for p, Initial residual = 0.161704, Final residual = 9.97171e-07, No Iterations 181
linear solve p 567020
time step continuity errors : sum local = 2.07661e-07, global = -3.14166e-21, cumulative = -5.78419e-21
ExecutionTime = 8.97 s  ClockTime = 9 s

Time = 0.00428571

Courant Number mean: 0.19146 max: 0.955931
DILUPBiCGStab:  Solving for Ux, Initial residual = 0.00112522, Final residual = 4.30594e-06, No Iterations 5
DILUPBiCGStab:  Solving for Uy, Initial residual = 0.00292402, Final residual = 9.89339e-06, No Iterations 5
DILUPBiCGStab:  Solving for Uz, Initial residual = 0.0148889, Final residual = 6.64465e-05, No Iterations 5
linear solve U 331888
[OGL LOG] init_preconditioner : 0 ms
[OGL LOG] solve : 551 ms
ILUcudaGKOCG:  Solving for p, Initial residual = 0.144117, Final residual = 7.70242e-07, No Iterations 180
linear solve p 561617
time step continuity errors : sum local = 2.06353e-07, global = -5.79957e-21, cumulative = -1.15838e-20
[OGL LOG] init_preconditioner : 0 ms
[OGL LOG] solve : 548 ms
ILUcudaGKOCG:  Solving for p, Initial residual = 0.103386, Final residual = 8.91189e-07, No Iterations 179
linear solve p 558403
time step continuity errors : sum local = 2.07125e-07, global = -1.7088e-20, cumulative = -2.86718e-20
ExecutionTime = 10.62 s  ClockTime = 11 s

Time = 0.00571429

Courant Number mean: 0.191438 max: 0.955696
DILUPBiCGStab:  Solving for Ux, Initial residual = 0.00066872, Final residual = 1.45939e-06, No Iterations 5
DILUPBiCGStab:  Solving for Uy, Initial residual = 0.00178004, Final residual = 4.57821e-06, No Iterations 5
DILUPBiCGStab:  Solving for Uz, Initial residual = 0.00718119, Final residual = 3.08568e-05, No Iterations 5
linear solve U 330642
[OGL LOG] init_preconditioner : 0 ms
[OGL LOG] solve : 535 ms
ILUcudaGKOCG:  Solving for p, Initial residual = 0.0999952, Final residual = 9.78037e-07, No Iterations 175
linear solve p 546217
time step continuity errors : sum local = 2.07985e-07, global = 3.23502e-20, cumulative = 3.67846e-21
[OGL LOG] init_preconditioner : 0 ms
[OGL LOG] solve : 536 ms
ILUcudaGKOCG:  Solving for p, Initial residual = 0.072848, Final residual = 9.31622e-07, No Iterations 175
linear solve p 546650
time step continuity errors : sum local = 2.07141e-07, global = 2.45928e-20, cumulative = 2.82713e-20
ExecutionTime = 12.24 s  ClockTime = 12 s

Time = 0.00714286

Courant Number mean: 0.191433 max: 0.95573
DILUPBiCGStab:  Solving for Ux, Initial residual = 0.000437039, Final residual = 1.29929e-06, No Iterations 5
DILUPBiCGStab:  Solving for Uy, Initial residual = 0.00117763, Final residual = 2.93873e-06, No Iterations 5
DILUPBiCGStab:  Solving for Uz, Initial residual = 0.00449452, Final residual = 1.63486e-05, No Iterations 5
linear solve U 332336
[OGL LOG] init_preconditioner : 0 ms
[OGL LOG] solve : 519 ms
ILUcudaGKOCG:  Solving for p, Initial residual = 0.0697443, Final residual = 8.34288e-07, No Iterations 170
linear solve p 530220
time step continuity errors : sum local = 2.06909e-07, global = -2.96925e-20, cumulative = -1.42118e-21
[OGL LOG] init_preconditioner : 0 ms
[OGL LOG] solve : 516 ms
ILUcudaGKOCG:  Solving for p, Initial residual = 0.0506238, Final residual = 9.35498e-07, No Iterations 169
linear solve p 527379
time step continuity errors : sum local = 2.07179e-07, global = 3.19787e-20, cumulative = 3.05575e-20
ExecutionTime = 13.83 s  ClockTime = 14 s

Time = 0.00857143

Courant Number mean: 0.191428 max: 0.9557
DILUPBiCGStab:  Solving for Ux, Initial residual = 0.000300129, Final residual = 8.3666e-07, No Iterations 5
DILUPBiCGStab:  Solving for Uy, Initial residual = 0.000803457, Final residual = 1.80474e-06, No Iterations 5
DILUPBiCGStab:  Solving for Uz, Initial residual = 0.00284462, Final residual = 8.74978e-06, No Iterations 5
linear solve U 341460
[OGL LOG] init_preconditioner : 0 ms
[OGL LOG] solve : 510 ms
ILUcudaGKOCG:  Solving for p, Initial residual = 0.050284, Final residual = 8.96367e-07, No Iterations 167
linear solve p 520958
time step continuity errors : sum local = 2.07351e-07, global = -7.66058e-21, cumulative = 2.28969e-20
[OGL LOG] init_preconditioner : 0 ms
[OGL LOG] solve : 508 ms
ILUcudaGKOCG:  Solving for p, Initial residual = 0.036754, Final residual = 9.94694e-07, No Iterations 166
linear solve p 519181
time step continuity errors : sum local = 2.07161e-07, global = -1.71945e-20, cumulative = 5.7024e-21
ExecutionTime = 15.41 s  ClockTime = 15 s

Time = 0.01

Courant Number mean: 0.191426 max: 0.955692
DILUPBiCGStab:  Solving for Ux, Initial residual = 0.000209858, Final residual = 6.57552e-07, No Iterations 5
DILUPBiCGStab:  Solving for Uy, Initial residual = 0.000562398, Final residual = 1.23067e-06, No Iterations 5
DILUPBiCGStab:  Solving for Uz, Initial residual = 0.00194788, Final residual = 5.98399e-06, No Iterations 5
linear solve U 329483
[OGL LOG] init_preconditioner : 0 ms
[OGL LOG] solve : 504 ms
ILUcudaGKOCG:  Solving for p, Initial residual = 0.0362606, Final residual = 9.06247e-07, No Iterations 165
linear solve p 514815
time step continuity errors : sum local = 2.07088e-07, global = 6.75227e-21, cumulative = 1.24547e-20
[OGL LOG] init_preconditioner : 0 ms
[OGL LOG] solve : 504 ms
ILUcudaGKOCG:  Solving for p, Initial residual = 0.0265612, Final residual = 7.99268e-07, No Iterations 165
linear solve p 514740
time step continuity errors : sum local = 2.07113e-07, global = 1.55486e-20, cumulative = 2.80033e-20
ExecutionTime = 16.96 s  ClockTime = 17 s

Time = 0.0114286

Courant Number mean: 0.191426 max: 0.955687
DILUPBiCGStab:  Solving for Ux, Initial residual = 0.000148409, Final residual = 4.39234e-07, No Iterations 5
DILUPBiCGStab:  Solving for Uy, Initial residual = 0.000400903, Final residual = 7.44931e-07, No Iterations 5
DILUPBiCGStab:  Solving for Uz, Initial residual = 0.001335, Final residual = 3.47636e-06, No Iterations 5
linear solve U 333042
[OGL LOG] init_preconditioner : 0 ms
[OGL LOG] solve : 464 ms
ILUcudaGKOCG:  Solving for p, Initial residual = 0.0266485, Final residual = 9.35588e-07, No Iterations 152
linear solve p 474912
time step continuity errors : sum local = 2.07199e-07, global = 2.11236e-20, cumulative = 4.91269e-20
[OGL LOG] init_preconditioner : 0 ms
[OGL LOG] solve : 461 ms
ILUcudaGKOCG:  Solving for p, Initial residual = 0.0196425, Final residual = 9.52743e-07, No Iterations 151
linear solve p 472088
time step continuity errors : sum local = 2.07156e-07, global = -8.72683e-21, cumulative = 4.04001e-20
ExecutionTime = 18.44 s  ClockTime = 18 s

Time = 0.0128571

Courant Number mean: 0.191427 max: 0.955681
DILUPBiCGStab:  Solving for Ux, Initial residual = 0.000106805, Final residual = 2.65557e-07, No Iterations 5
DILUPBiCGStab:  Solving for Uy, Initial residual = 0.000291504, Final residual = 4.88994e-07, No Iterations 5
DILUPBiCGStab:  Solving for Uz, Initial residual = 0.000961237, Final residual = 2.93823e-06, No Iterations 5
linear solve U 332707
[OGL LOG] init_preconditioner : 0 ms
[OGL LOG] solve : 458 ms
ILUcudaGKOCG:  Solving for p, Initial residual = 0.0196472, Final residual = 8.99604e-07, No Iterations 150
linear solve p 469679
time step continuity errors : sum local = 2.07135e-07, global = -3.79741e-20, cumulative = 2.42595e-21
[OGL LOG] init_preconditioner : 0 ms
[OGL LOG] solve : 456 ms
ILUcudaGKOCG:  Solving for p, Initial residual = 0.0145483, Final residual = 9.20116e-07, No Iterations 149
linear solve p 466938
time step continuity errors : sum local = 2.07153e-07, global = 1.03112e-20, cumulative = 1.27372e-20
ExecutionTime = 19.91 s  ClockTime = 20 s

Time = 0.0142857

Courant Number mean: 0.191429 max: 0.955681
DILUPBiCGStab:  Solving for Ux, Initial residual = 7.71977e-05, Final residual = 1.49631e-07, No Iterations 5
DILUPBiCGStab:  Solving for Uy, Initial residual = 0.000214049, Final residual = 3.28184e-07, No Iterations 5
DILUPBiCGStab:  Solving for Uz, Initial residual = 0.000687101, Final residual = 1.79992e-06, No Iterations 5
linear solve U 328239
[OGL LOG] init_preconditioner : 0 ms
[OGL LOG] solve : 487 ms
ILUcudaGKOCG:  Solving for p, Initial residual = 0.0146576, Final residual = 9.79007e-07, No Iterations 159
linear solve p 499136
time step continuity errors : sum local = 2.07168e-07, global = 5.85382e-20, cumulative = 7.12754e-20
[OGL LOG] init_preconditioner : 0 ms
[OGL LOG] solve : 484 ms
ILUcudaGKOCG:  Solving for p, Initial residual = 0.0109094, Final residual = 9.48e-07, No Iterations 158
linear solve p 495078
time step continuity errors : sum local = 2.07147e-07, global = -3.24223e-20, cumulative = 3.88531e-20
ExecutionTime = 21.44 s  ClockTime = 21 s

End

