/*---------------------------------------------------------------------------*\
  =========                 |
  \\      /  F ield         | OpenFOAM: The Open Source CFD Toolbox
   \\    /   O peration     | Website:  https://openfoam.org
    \\  /    A nd           | Version:  8
     \\/     M anipulation  |
\*---------------------------------------------------------------------------*/
Build  : 8-ef60d22ea792
Exec   : icoFoam
Date   : Sep 11 2021
Time   : 13:36:25
Host   : "uc2n513.localdomain"
PID    : 214752
I/O    : uncollated
Case   : /pfs/data5/home/kit/scc/nq7776/data/code/OBR/lidDrivenCavity3D/Variation_init/100/Variation_mesh/5/Variation_matrix_solver/BiCGStab_BJ_CUDA/1631360183
nProcs : 1
sigFpe : Enabling floating point exception trapping (FOAM_SIGFPE).
fileModificationChecking : Monitoring run-time modified files using timeStampMaster (fileModificationSkew 10)
allowSystemOperations : Allowing user-supplied system call operations

// * * * * * * * * * * * * * * * * * * * * * * * * * * * * * * * * * * * * * //
Create time

Create mesh for time = 0

Reading transportProperties

Reading field p

Reading field U

Reading/calculating face flux field phi


Starting time loop

Time = 0.02

Courant Number mean: 0.165966 max: 0.393736
DILUPBiCGStab:  Solving for Ux, Initial residual = 0.257055, Final residual = 2.34833e-13, No Iterations 5
DILUPBiCGStab:  Solving for Uy, Initial residual = 0.188796, Final residual = 5.98254e-14, No Iterations 5
DILUPBiCGStab:  Solving for Uz, Initial residual = 0.171115, Final residual = 6.75568e-14, No Iterations 5
linear solve U 199
[OGL LOG] init_host_sparsity_pattern : 0 ms
[OGL LOG] matrix not stored update host matrix
[OGL LOG] update_host_mtx : 0 ms
[OGL LOG] matrix is not yet sorted, compute sorting idxs
[OGL LOG] compute_sort : 0 ms
[OGL LOG] matrix is not yet sorted, sorting host matrix
[OGL LOG] sort_host_mtx_sparsity_pattern : 0 ms
[OGL LOG] sort_host_mtx : 0 ms
[OGL LOG] init_preconditioner : 0 ms
[OGL LOG] solve : 6 ms
BJcudaGKOBiCGStab:  Solving for p, Initial residual = 0.607222, Final residual = 9.54308e-07, No Iterations 19
linear solve p 731537
time step continuity errors : sum local = 1.08743e-07, global = 1.02306e-18, cumulative = 1.02306e-18
[OGL LOG] init_preconditioner : 0 ms
[OGL LOG] solve : 5 ms
BJcudaGKOBiCGStab:  Solving for p, Initial residual = 0.279374, Final residual = 5.12034e-07, No Iterations 18
linear solve p 5793
time step continuity errors : sum local = 4.36085e-08, global = -1.52803e-18, cumulative = -5.04977e-19
ExecutionTime = 0.77 s  ClockTime = 1 s

Time = 0.04

Courant Number mean: 0.153195 max: 0.395566
DILUPBiCGStab:  Solving for Ux, Initial residual = 0.0697041, Final residual = 3.44959e-14, No Iterations 5
DILUPBiCGStab:  Solving for Uy, Initial residual = 0.0816975, Final residual = 4.41392e-14, No Iterations 5
DILUPBiCGStab:  Solving for Uz, Initial residual = 0.163157, Final residual = 1.83419e-13, No Iterations 5
linear solve U 101
[OGL LOG] init_preconditioner : 0 ms
[OGL LOG] solve : 6 ms
BJcudaGKOBiCGStab:  Solving for p, Initial residual = 0.204578, Final residual = 2.15837e-07, No Iterations 20
linear solve p 6243
time step continuity errors : sum local = 0.000256585, global = -1.72583e-19, cumulative = -6.7756e-19
[OGL LOG] init_preconditioner : 0 ms
[OGL LOG] solve : 5 ms
BJcudaGKOBiCGStab:  Solving for p, Initial residual = 0.075445, Final residual = 2.966e-07, No Iterations 17
linear solve p 5384
time step continuity errors : sum local = 0.0002299, global = -6.33157e-19, cumulative = -1.31072e-18
ExecutionTime = 0.78 s  ClockTime = 1 s

Time = 0.06

Courant Number mean: 0.14992 max: 0.386777
DILUPBiCGStab:  Solving for Ux, Initial residual = 0.0140756, Final residual = 1.87206e-15, No Iterations 5
DILUPBiCGStab:  Solving for Uy, Initial residual = 0.0173408, Final residual = 3.57208e-15, No Iterations 5
DILUPBiCGStab:  Solving for Uz, Initial residual = 0.106762, Final residual = 9.14074e-14, No Iterations 5
linear solve U 97
[OGL LOG] init_preconditioner : 0 ms
[OGL LOG] solve : 4 ms
BJcudaGKOBiCGStab:  Solving for p, Initial residual = 0.0133806, Final residual = 7.00218e-07, No Iterations 15
linear solve p 4881
time step continuity errors : sum local = 0.000231036, global = -5.54807e-19, cumulative = -1.86552e-18
[OGL LOG] init_preconditioner : 0 ms
[OGL LOG] solve : 4 ms
BJcudaGKOBiCGStab:  Solving for p, Initial residual = 0.0024612, Final residual = 7.87798e-07, No Iterations 13
linear solve p 4345
time step continuity errors : sum local = 0.000230751, global = 8.47033e-19, cumulative = -1.01849e-18
ExecutionTime = 0.79 s  ClockTime = 1 s

Time = 0.08

Courant Number mean: 0.149044 max: 0.383217
DILUPBiCGStab:  Solving for Ux, Initial residual = 0.00403804, Final residual = 6.43882e-16, No Iterations 5
DILUPBiCGStab:  Solving for Uy, Initial residual = 0.0051381, Final residual = 1.16672e-15, No Iterations 5
DILUPBiCGStab:  Solving for Uz, Initial residual = 0.035408, Final residual = 3.13081e-14, No Iterations 5
linear solve U 99
[OGL LOG] init_preconditioner : 0 ms
[OGL LOG] solve : 4 ms
BJcudaGKOBiCGStab:  Solving for p, Initial residual = 0.00346215, Final residual = 5.52543e-07, No Iterations 14
linear solve p 4610
time step continuity errors : sum local = 0.000231581, global = -2.60463e-19, cumulative = -1.27895e-18
[OGL LOG] init_preconditioner : 0 ms
[OGL LOG] solve : 4 ms
BJcudaGKOBiCGStab:  Solving for p, Initial residual = 0.00137564, Final residual = 4.06644e-07, No Iterations 13
linear solve p 4315
time step continuity errors : sum local = 0.000231194, global = 3.33519e-19, cumulative = -9.45434e-19
ExecutionTime = 0.8 s  ClockTime = 1 s

Time = 0.1

Courant Number mean: 0.148703 max: 0.381686
DILUPBiCGStab:  Solving for Ux, Initial residual = 0.00124501, Final residual = 2.83067e-16, No Iterations 5
DILUPBiCGStab:  Solving for Uy, Initial residual = 0.00166927, Final residual = 2.40916e-16, No Iterations 5
DILUPBiCGStab:  Solving for Uz, Initial residual = 0.0148582, Final residual = 8.21582e-15, No Iterations 5
linear solve U 92
[OGL LOG] init_preconditioner : 0 ms
[OGL LOG] solve : 4 ms
BJcudaGKOBiCGStab:  Solving for p, Initial residual = 0.00100138, Final residual = 9.56729e-07, No Iterations 14
linear solve p 4455
time step continuity errors : sum local = 0.000231379, global = 6.03511e-19, cumulative = -3.41923e-19
[OGL LOG] init_preconditioner : 0 ms
[OGL LOG] solve : 3 ms
BJcudaGKOBiCGStab:  Solving for p, Initial residual = 0.000355322, Final residual = 3.79166e-07, No Iterations 12
linear solve p 4065
time step continuity errors : sum local = 0.000231287, global = -7.6233e-19, cumulative = -1.10425e-18
ExecutionTime = 0.81 s  ClockTime = 1 s

Time = 0.12

Courant Number mean: 0.148579 max: 0.381084
DILUPBiCGStab:  Solving for Ux, Initial residual = 0.000408306, Final residual = 1.1879e-16, No Iterations 5
DILUPBiCGStab:  Solving for Uy, Initial residual = 0.000559841, Final residual = 6.49207e-17, No Iterations 5
DILUPBiCGStab:  Solving for Uz, Initial residual = 0.00593521, Final residual = 2.32032e-15, No Iterations 5
linear solve U 92
[OGL LOG] init_preconditioner : 0 ms
[OGL LOG] solve : 3 ms
BJcudaGKOBiCGStab:  Solving for p, Initial residual = 0.000391175, Final residual = 5.98234e-07, No Iterations 12
linear solve p 4052
time step continuity errors : sum local = 0.000231351, global = -2.74227e-19, cumulative = -1.37848e-18
[OGL LOG] init_preconditioner : 0 ms
[OGL LOG] solve : 3 ms
BJcudaGKOBiCGStab:  Solving for p, Initial residual = 0.000145332, Final residual = 8.33551e-07, No Iterations 10
linear solve p 3439
time step continuity errors : sum local = 0.000231338, global = 1.55642e-19, cumulative = -1.22284e-18
ExecutionTime = 0.83 s  ClockTime = 1 s

Time = 0.14

Courant Number mean: 0.148534 max: 0.380857
DILUPBiCGStab:  Solving for Ux, Initial residual = 0.000141208, Final residual = 4.95041e-17, No Iterations 5
DILUPBiCGStab:  Solving for Uy, Initial residual = 0.000195023, Final residual = 2.24282e-17, No Iterations 5
DILUPBiCGStab:  Solving for Uz, Initial residual = 0.00239827, Final residual = 5.86283e-16, No Iterations 5
linear solve U 95
[OGL LOG] init_preconditioner : 0 ms
[OGL LOG] solve : 2 ms
BJcudaGKOBiCGStab:  Solving for p, Initial residual = 0.000152435, Final residual = 6.05509e-07, No Iterations 5
linear solve p 2203
time step continuity errors : sum local = 0.000231326, global = -2.20229e-19, cumulative = -1.44307e-18
[OGL LOG] init_preconditioner : 0 ms
[OGL LOG] solve : 1 ms
BJcudaGKOBiCGStab:  Solving for p, Initial residual = 5.37686e-05, Final residual = 6.47957e-07, No Iterations 4
linear solve p 1914
time step continuity errors : sum local = 0.000231327, global = 3.21873e-19, cumulative = -1.12119e-18
ExecutionTime = 0.83 s  ClockTime = 1 s

Time = 0.16

Courant Number mean: 0.148518 max: 0.380773
DILUPBiCGStab:  Solving for Ux, Initial residual = 5.08653e-05, Final residual = 1.95842e-17, No Iterations 5
DILUPBiCGStab:  Solving for Uy, Initial residual = 7.01956e-05, Final residual = 1.764e-17, No Iterations 5
DILUPBiCGStab:  Solving for Uz, Initial residual = 0.000978881, Final residual = 2.10567e-16, No Iterations 5
linear solve U 94
[OGL LOG] init_preconditioner : 0 ms
[OGL LOG] solve : 1 ms
BJcudaGKOBiCGStab:  Solving for p, Initial residual = 5.82926e-05, Final residual = 6.12668e-07, No Iterations 4
linear solve p 1907
time step continuity errors : sum local = 0.000231321, global = 1.26949e-18, cumulative = 1.48297e-19
[OGL LOG] init_preconditioner : 0 ms
[OGL LOG] solve : 1 ms
BJcudaGKOBiCGStab:  Solving for p, Initial residual = 2.04099e-05, Final residual = 6.74741e-07, No Iterations 3
linear solve p 1646
time step continuity errors : sum local = 0.000231318, global = 1.02173e-18, cumulative = 1.17003e-18
ExecutionTime = 0.83 s  ClockTime = 1 s

Time = 0.18

Courant Number mean: 0.148513 max: 0.380744
DILUPBiCGStab:  Solving for Ux, Initial residual = 1.91023e-05, Final residual = 8.21404e-18, No Iterations 5
DILUPBiCGStab:  Solving for Uy, Initial residual = 2.60494e-05, Final residual = 9.34834e-18, No Iterations 5
DILUPBiCGStab:  Solving for Uz, Initial residual = 0.000399217, Final residual = 7.94946e-17, No Iterations 5
linear solve U 95
[OGL LOG] init_preconditioner : 0 ms
[OGL LOG] solve : 1 ms
BJcudaGKOBiCGStab:  Solving for p, Initial residual = 2.20596e-05, Final residual = 8.47752e-07, No Iterations 3
linear solve p 1641
time step continuity errors : sum local = 0.000231314, global = 2.56227e-19, cumulative = 1.42626e-18
[OGL LOG] init_preconditioner : 0 ms
[OGL LOG] solve : 1 ms
BJcudaGKOBiCGStab:  Solving for p, Initial residual = 7.23059e-06, Final residual = 7.57751e-07, No Iterations 2
linear solve p 1366
time step continuity errors : sum local = 0.00023132, global = 9.32795e-19, cumulative = 2.35905e-18
ExecutionTime = 0.84 s  ClockTime = 1 s

Time = 0.2

Courant Number mean: 0.148511 max: 0.380733
DILUPBiCGStab:  Solving for Ux, Initial residual = 7.39243e-06, Final residual = 3.83417e-18, No Iterations 5
DILUPBiCGStab:  Solving for Uy, Initial residual = 9.89381e-06, Final residual = 5.52854e-18, No Iterations 5
DILUPBiCGStab:  Solving for Uz, Initial residual = 0.000163551, Final residual = 3.37372e-17, No Iterations 5
linear solve U 95
[OGL LOG] init_preconditioner : 0 ms
[OGL LOG] solve : 1 ms
BJcudaGKOBiCGStab:  Solving for p, Initial residual = 8.20213e-06, Final residual = 7.538e-07, No Iterations 2
linear solve p 1363
time step continuity errors : sum local = 0.000231313, global = -1.66336e-18, cumulative = 6.95692e-19
[OGL LOG] init_preconditioner : 0 ms
[OGL LOG] solve : 0 ms
BJcudaGKOBiCGStab:  Solving for p, Initial residual = 2.22809e-06, Final residual = 6.6598e-07, No Iterations 1
linear solve p 906
time step continuity errors : sum local = 0.000231313, global = 3.3246e-19, cumulative = 1.02815e-18
ExecutionTime = 0.84 s  ClockTime = 1 s

End

