/*---------------------------------------------------------------------------*\
  =========                 |
  \\      /  F ield         | OpenFOAM: The Open Source CFD Toolbox
   \\    /   O peration     | Website:  https://openfoam.org
    \\  /    A nd           | Version:  8
     \\/     M anipulation  |
\*---------------------------------------------------------------------------*/
Build  : 8-ef60d22ea792
Exec   : icoFoam
Date   : Sep 11 2021
Time   : 14:27:22
Host   : "uc2n513.localdomain"
PID    : 227733
I/O    : uncollated
Case   : /pfs/data5/home/kit/scc/nq7776/data/code/OBR/lidDrivenCavity3D/Variation_init/100/Variation_mesh/80/Variation_matrix_solver/CG_ILU_CUDA/1631363220
nProcs : 1
sigFpe : Enabling floating point exception trapping (FOAM_SIGFPE).
fileModificationChecking : Monitoring run-time modified files using timeStampMaster (fileModificationSkew 10)
allowSystemOperations : Allowing user-supplied system call operations

// * * * * * * * * * * * * * * * * * * * * * * * * * * * * * * * * * * * * * //
Create time

Create mesh for time = 0

Reading transportProperties

Reading field p

Reading field U

Reading/calculating face flux field phi


Starting time loop

Time = 0.00125

Courant Number mean: 0.191396 max: 0.961531
DILUPBiCGStab:  Solving for Ux, Initial residual = 0.0903312, Final residual = 1.56905e-05, No Iterations 5
DILUPBiCGStab:  Solving for Uy, Initial residual = 0.170741, Final residual = 4.42871e-05, No Iterations 5
DILUPBiCGStab:  Solving for Uz, Initial residual = 0.209354, Final residual = 0.0001275, No Iterations 5
linear solve U 527934
[OGL LOG] init_host_sparsity_pattern : 145 ms
[OGL LOG] matrix not stored update host matrix
[OGL LOG] update_host_mtx : 75 ms
[OGL LOG] matrix is not yet sorted, compute sorting idxs
[OGL LOG] compute_sort : 4403 ms
[OGL LOG] matrix is not yet sorted, sorting host matrix
[OGL LOG] sort_host_mtx_sparsity_pattern : 98 ms
[OGL LOG] sort_host_mtx : 60 ms
[OGL LOG] init_preconditioner : 150 ms
[OGL LOG] solve : 925 ms
ILUcudaGKOCG:  Solving for p, Initial residual = 0.614031, Final residual = 9.88365e-07, No Iterations 207
linear solve p 6631480
time step continuity errors : sum local = 8.02413e-10, global = -1.87958e-20, cumulative = -1.87958e-20
[OGL LOG] init_preconditioner : 0 ms
[OGL LOG] solve : 966 ms
ILUcudaGKOCG:  Solving for p, Initial residual = 0.278622, Final residual = 8.22062e-07, No Iterations 208
linear solve p 982322
time step continuity errors : sum local = 5.31915e-10, global = -2.80145e-20, cumulative = -4.68103e-20
ExecutionTime = 10.64 s  ClockTime = 10 s

Time = 0.0025

Courant Number mean: 0.19147 max: 0.961377
DILUPBiCGStab:  Solving for Ux, Initial residual = 0.00522743, Final residual = 1.34963e-05, No Iterations 5
DILUPBiCGStab:  Solving for Uy, Initial residual = 0.011848, Final residual = 4.13061e-05, No Iterations 5
DILUPBiCGStab:  Solving for Uz, Initial residual = 0.0160839, Final residual = 8.98524e-05, No Iterations 5
linear solve U 493811
[OGL LOG] init_preconditioner : 0 ms
[OGL LOG] solve : 967 ms
ILUcudaGKOCG:  Solving for p, Initial residual = 0.280793, Final residual = 7.89557e-07, No Iterations 208
linear solve p 983326
time step continuity errors : sum local = 8.03878e-08, global = -1.31813e-20, cumulative = -5.99916e-20
[OGL LOG] init_preconditioner : 0 ms
[OGL LOG] solve : 959 ms
ILUcudaGKOCG:  Solving for p, Initial residual = 0.149926, Final residual = 9.28744e-07, No Iterations 207
linear solve p 977289
time step continuity errors : sum local = 7.69783e-08, global = 3.33419e-20, cumulative = -2.66498e-20
ExecutionTime = 13.39 s  ClockTime = 13 s

Time = 0.00375

Courant Number mean: 0.19147 max: 0.961236
DILUPBiCGStab:  Solving for Ux, Initial residual = 0.00110796, Final residual = 5.95372e-06, No Iterations 5
DILUPBiCGStab:  Solving for Uy, Initial residual = 0.00325804, Final residual = 1.71423e-05, No Iterations 5
DILUPBiCGStab:  Solving for Uz, Initial residual = 0.00573312, Final residual = 4.75809e-05, No Iterations 5
linear solve U 487722
[OGL LOG] init_preconditioner : 0 ms
[OGL LOG] solve : 951 ms
ILUcudaGKOCG:  Solving for p, Initial residual = 0.139939, Final residual = 9.92708e-07, No Iterations 206
linear solve p 968403
time step continuity errors : sum local = 7.74268e-08, global = -2.40844e-20, cumulative = -5.07341e-20
[OGL LOG] init_preconditioner : 0 ms
[OGL LOG] solve : 949 ms
ILUcudaGKOCG:  Solving for p, Initial residual = 0.0905422, Final residual = 8.75732e-07, No Iterations 206
linear solve p 965193
time step continuity errors : sum local = 7.66456e-08, global = -1.70937e-20, cumulative = -6.78278e-20
ExecutionTime = 16.13 s  ClockTime = 16 s

Time = 0.005

Courant Number mean: 0.191473 max: 0.961205
DILUPBiCGStab:  Solving for Ux, Initial residual = 0.000493707, Final residual = 2.42557e-06, No Iterations 5
DILUPBiCGStab:  Solving for Uy, Initial residual = 0.0016368, Final residual = 9.14892e-06, No Iterations 5
DILUPBiCGStab:  Solving for Uz, Initial residual = 0.00336398, Final residual = 2.52875e-05, No Iterations 5
linear solve U 488945
[OGL LOG] init_preconditioner : 0 ms
[OGL LOG] solve : 948 ms
ILUcudaGKOCG:  Solving for p, Initial residual = 0.0901006, Final residual = 9.41564e-07, No Iterations 204
linear solve p 964733
time step continuity errors : sum local = 7.65528e-08, global = -4.56513e-21, cumulative = -7.23929e-20
[OGL LOG] init_preconditioner : 0 ms
[OGL LOG] solve : 949 ms
ILUcudaGKOCG:  Solving for p, Initial residual = 0.0667957, Final residual = 9.78948e-07, No Iterations 203
linear solve p 967001
time step continuity errors : sum local = 7.68031e-08, global = -1.16508e-20, cumulative = -8.40437e-20
ExecutionTime = 18.85 s  ClockTime = 19 s

Time = 0.00625

Courant Number mean: 0.191476 max: 0.961192
DILUPBiCGStab:  Solving for Ux, Initial residual = 0.000286407, Final residual = 1.82085e-06, No Iterations 5
DILUPBiCGStab:  Solving for Uy, Initial residual = 0.00102448, Final residual = 5.34971e-06, No Iterations 5
DILUPBiCGStab:  Solving for Uz, Initial residual = 0.00244406, Final residual = 1.9624e-05, No Iterations 5
linear solve U 489272
[OGL LOG] init_preconditioner : 0 ms
[OGL LOG] solve : 933 ms
ILUcudaGKOCG:  Solving for p, Initial residual = 0.065055, Final residual = 9.75992e-07, No Iterations 201
linear solve p 949158
time step continuity errors : sum local = 7.6974e-08, global = 1.65612e-20, cumulative = -6.74825e-20
[OGL LOG] init_preconditioner : 0 ms
[OGL LOG] solve : 931 ms
ILUcudaGKOCG:  Solving for p, Initial residual = 0.0503903, Final residual = 9.69543e-07, No Iterations 200
linear solve p 948598
time step continuity errors : sum local = 7.67262e-08, global = -1.79944e-20, cumulative = -8.54769e-20
ExecutionTime = 21.55 s  ClockTime = 21 s

Time = 0.0075

Courant Number mean: 0.191483 max: 0.961209
DILUPBiCGStab:  Solving for Ux, Initial residual = 0.000201134, Final residual = 1.2293e-06, No Iterations 5
DILUPBiCGStab:  Solving for Uy, Initial residual = 0.000728382, Final residual = 2.99299e-06, No Iterations 5
DILUPBiCGStab:  Solving for Uz, Initial residual = 0.001705, Final residual = 1.17631e-05, No Iterations 5
linear solve U 488606
[OGL LOG] init_preconditioner : 0 ms
[OGL LOG] solve : 917 ms
ILUcudaGKOCG:  Solving for p, Initial residual = 0.0505962, Final residual = 9.34339e-07, No Iterations 198
linear solve p 932745
time step continuity errors : sum local = 7.6694e-08, global = -9.25059e-21, cumulative = -9.47275e-20
[OGL LOG] init_preconditioner : 0 ms
[OGL LOG] solve : 918 ms
ILUcudaGKOCG:  Solving for p, Initial residual = 0.0403252, Final residual = 8.31456e-07, No Iterations 198
linear solve p 933656
time step continuity errors : sum local = 7.67395e-08, global = 9.18381e-21, cumulative = -8.55437e-20
ExecutionTime = 24.2 s  ClockTime = 24 s

Time = 0.00875

Courant Number mean: 0.191486 max: 0.961199
DILUPBiCGStab:  Solving for Ux, Initial residual = 0.000149353, Final residual = 8.31059e-07, No Iterations 5
DILUPBiCGStab:  Solving for Uy, Initial residual = 0.000560315, Final residual = 2.91416e-06, No Iterations 5
DILUPBiCGStab:  Solving for Uz, Initial residual = 0.00131852, Final residual = 1.00165e-05, No Iterations 5
linear solve U 493494
[OGL LOG] init_preconditioner : 0 ms
[OGL LOG] solve : 894 ms
ILUcudaGKOCG:  Solving for p, Initial residual = 0.0400496, Final residual = 9.50205e-07, No Iterations 192
linear solve p 910705
time step continuity errors : sum local = 7.67903e-08, global = -5.62554e-21, cumulative = -9.11692e-20
[OGL LOG] init_preconditioner : 0 ms
[OGL LOG] solve : 893 ms
ILUcudaGKOCG:  Solving for p, Initial residual = 0.0321753, Final residual = 8.90368e-07, No Iterations 192
linear solve p 910735
time step continuity errors : sum local = 7.6716e-08, global = -1.28688e-20, cumulative = -1.04038e-19
ExecutionTime = 26.82 s  ClockTime = 27 s

Time = 0.01

Courant Number mean: 0.191493 max: 0.961207
DILUPBiCGStab:  Solving for Ux, Initial residual = 0.000118772, Final residual = 8.13635e-07, No Iterations 5
DILUPBiCGStab:  Solving for Uy, Initial residual = 0.000428046, Final residual = 1.69433e-06, No Iterations 5
DILUPBiCGStab:  Solving for Uz, Initial residual = 0.000956224, Final residual = 6.09041e-06, No Iterations 5
linear solve U 487710
[OGL LOG] init_preconditioner : 0 ms
[OGL LOG] solve : 877 ms
ILUcudaGKOCG:  Solving for p, Initial residual = 0.0323055, Final residual = 9.30988e-07, No Iterations 188
linear solve p 894054
time step continuity errors : sum local = 7.67571e-08, global = 1.39638e-20, cumulative = -9.00742e-20
[OGL LOG] init_preconditioner : 0 ms
[OGL LOG] solve : 839 ms
ILUcudaGKOCG:  Solving for p, Initial residual = 0.0261701, Final residual = 9.765e-07, No Iterations 180
linear solve p 856767
time step continuity errors : sum local = 7.67697e-08, global = 1.37165e-20, cumulative = -7.63577e-20
ExecutionTime = 29.36 s  ClockTime = 29 s

Time = 0.01125

Courant Number mean: 0.191496 max: 0.961203
DILUPBiCGStab:  Solving for Ux, Initial residual = 9.24295e-05, Final residual = 5.46566e-07, No Iterations 5
DILUPBiCGStab:  Solving for Uy, Initial residual = 0.000347549, Final residual = 1.97281e-06, No Iterations 5
DILUPBiCGStab:  Solving for Uz, Initial residual = 0.000752017, Final residual = 5.50334e-06, No Iterations 5
linear solve U 488800
[OGL LOG] init_preconditioner : 0 ms
[OGL LOG] solve : 822 ms
ILUcudaGKOCG:  Solving for p, Initial residual = 0.0261777, Final residual = 9.49962e-07, No Iterations 177
linear solve p 838281
time step continuity errors : sum local = 7.67476e-08, global = -3.06628e-20, cumulative = -1.0702e-19
[OGL LOG] init_preconditioner : 0 ms
[OGL LOG] solve : 822 ms
ILUcudaGKOCG:  Solving for p, Initial residual = 0.0212478, Final residual = 9.95526e-07, No Iterations 176
linear solve p 838169
time step continuity errors : sum local = 7.67552e-08, global = -3.15127e-20, cumulative = -1.38533e-19
ExecutionTime = 31.83 s  ClockTime = 32 s

Time = 0.0125

Courant Number mean: 0.191501 max: 0.961206
DILUPBiCGStab:  Solving for Ux, Initial residual = 7.52252e-05, Final residual = 5.26611e-07, No Iterations 5
DILUPBiCGStab:  Solving for Uy, Initial residual = 0.000273881, Final residual = 1.27157e-06, No Iterations 5
DILUPBiCGStab:  Solving for Uz, Initial residual = 0.000567942, Final residual = 3.45526e-06, No Iterations 5
linear solve U 488724
[OGL LOG] init_preconditioner : 0 ms
[OGL LOG] solve : 876 ms
ILUcudaGKOCG:  Solving for p, Initial residual = 0.0213479, Final residual = 7.65167e-07, No Iterations 188
linear solve p 892495
time step continuity errors : sum local = 7.67287e-08, global = -2.63804e-20, cumulative = -1.64914e-19
[OGL LOG] init_preconditioner : 0 ms
[OGL LOG] solve : 867 ms
ILUcudaGKOCG:  Solving for p, Initial residual = 0.0173902, Final residual = 9.41811e-07, No Iterations 187
linear solve p 883211
time step continuity errors : sum local = 7.67397e-08, global = 2.6848e-20, cumulative = -1.38066e-19
ExecutionTime = 34.38 s  ClockTime = 34 s

End

