/*---------------------------------------------------------------------------*\
  =========                 |
  \\      /  F ield         | OpenFOAM: The Open Source CFD Toolbox
   \\    /   O peration     | Website:  https://openfoam.org
    \\  /    A nd           | Version:  8
     \\/     M anipulation  |
\*---------------------------------------------------------------------------*/
Build  : 8-ef60d22ea792
Exec   : icoFoam
Date   : Sep 11 2021
Time   : 14:34:35
Host   : "uc2n513.localdomain"
PID    : 228791
I/O    : uncollated
Case   : /pfs/data5/home/kit/scc/nq7776/data/code/OBR/lidDrivenCavity3D/Variation_init/100/Variation_mesh/85/Variation_matrix_solver/CG_ILU_CUDA/1631363648
nProcs : 1
sigFpe : Enabling floating point exception trapping (FOAM_SIGFPE).
fileModificationChecking : Monitoring run-time modified files using timeStampMaster (fileModificationSkew 10)
allowSystemOperations : Allowing user-supplied system call operations

// * * * * * * * * * * * * * * * * * * * * * * * * * * * * * * * * * * * * * //
Create time

Create mesh for time = 0

Reading transportProperties

Reading field p

Reading field U

Reading/calculating face flux field phi


Starting time loop

Time = 0.00117647

Courant Number mean: 0.19128 max: 0.963498
DILUPBiCGStab:  Solving for Ux, Initial residual = 0.0801002, Final residual = 3.10838e-05, No Iterations 5
DILUPBiCGStab:  Solving for Uy, Initial residual = 0.15471, Final residual = 7.99938e-05, No Iterations 5
DILUPBiCGStab:  Solving for Uz, Initial residual = 0.204787, Final residual = 0.000190775, No Iterations 5
linear solve U 651056
[OGL LOG] init_host_sparsity_pattern : 174 ms
[OGL LOG] matrix not stored update host matrix
[OGL LOG] update_host_mtx : 90 ms
[OGL LOG] matrix is not yet sorted, compute sorting idxs
[OGL LOG] compute_sort : 5443 ms
[OGL LOG] matrix is not yet sorted, sorting host matrix
[OGL LOG] sort_host_mtx_sparsity_pattern : 117 ms
[OGL LOG] sort_host_mtx : 72 ms
[OGL LOG] init_preconditioner : 187 ms
[OGL LOG] solve : 1113 ms
ILUcudaGKOCG:  Solving for p, Initial residual = 0.639229, Final residual = 9.30043e-07, No Iterations 221
linear solve p 7983305
time step continuity errors : sum local = 7.40909e-10, global = 7.96653e-22, cumulative = 7.96653e-22
[OGL LOG] init_preconditioner : 0 ms
[OGL LOG] solve : 1181 ms
ILUcudaGKOCG:  Solving for p, Initial residual = 0.354968, Final residual = 8.82159e-07, No Iterations 221
linear solve p 1201556
time step continuity errors : sum local = 6.25402e-10, global = 8.41732e-21, cumulative = 9.21398e-21
ExecutionTime = 12.97 s  ClockTime = 13 s

Time = 0.00235294

Courant Number mean: 0.191423 max: 0.964029
DILUPBiCGStab:  Solving for Ux, Initial residual = 0.00592858, Final residual = 2.11096e-05, No Iterations 5
DILUPBiCGStab:  Solving for Uy, Initial residual = 0.013936, Final residual = 6.02543e-05, No Iterations 5
DILUPBiCGStab:  Solving for Uz, Initial residual = 0.0246997, Final residual = 0.000175785, No Iterations 5
linear solve U 608109
[OGL LOG] init_preconditioner : 0 ms
[OGL LOG] solve : 1188 ms
ILUcudaGKOCG:  Solving for p, Initial residual = 0.425045, Final residual = 8.10594e-07, No Iterations 224
linear solve p 1209302
time step continuity errors : sum local = 8.15722e-08, global = 6.47582e-21, cumulative = 1.56898e-20
[OGL LOG] init_preconditioner : 0 ms
[OGL LOG] solve : 1189 ms
ILUcudaGKOCG:  Solving for p, Initial residual = 0.285915, Final residual = 9.00429e-07, No Iterations 223
linear solve p 1208668
time step continuity errors : sum local = 7.03823e-08, global = 2.65648e-20, cumulative = 4.22545e-20
ExecutionTime = 16.38 s  ClockTime = 16 s

Time = 0.00352941

Courant Number mean: 0.19141 max: 0.963513
DILUPBiCGStab:  Solving for Ux, Initial residual = 0.00217468, Final residual = 1.17808e-05, No Iterations 5
DILUPBiCGStab:  Solving for Uy, Initial residual = 0.00584957, Final residual = 3.04275e-05, No Iterations 5
DILUPBiCGStab:  Solving for Uz, Initial residual = 0.0146173, Final residual = 0.000111322, No Iterations 5
linear solve U 602559
[OGL LOG] init_preconditioner : 0 ms
[OGL LOG] solve : 1174 ms
ILUcudaGKOCG:  Solving for p, Initial residual = 0.285944, Final residual = 9.96912e-07, No Iterations 222
linear solve p 1195166
time step continuity errors : sum local = 6.73571e-08, global = 2.87094e-20, cumulative = 7.09639e-20
[OGL LOG] init_preconditioner : 0 ms
[OGL LOG] solve : 1179 ms
ILUcudaGKOCG:  Solving for p, Initial residual = 0.198173, Final residual = 8.71008e-07, No Iterations 222
linear solve p 1198833
time step continuity errors : sum local = 6.84994e-08, global = 3.79481e-20, cumulative = 1.08912e-19
ExecutionTime = 19.75 s  ClockTime = 19 s

Time = 0.00470588

Courant Number mean: 0.191413 max: 0.963513
DILUPBiCGStab:  Solving for Ux, Initial residual = 0.00132463, Final residual = 4.81698e-06, No Iterations 5
DILUPBiCGStab:  Solving for Uy, Initial residual = 0.0035311, Final residual = 1.6652e-05, No Iterations 5
DILUPBiCGStab:  Solving for Uz, Initial residual = 0.00929628, Final residual = 6.99103e-05, No Iterations 5
linear solve U 604756
[OGL LOG] init_preconditioner : 0 ms
[OGL LOG] solve : 1171 ms
ILUcudaGKOCG:  Solving for p, Initial residual = 0.211306, Final residual = 9.787e-07, No Iterations 220
linear solve p 1190988
time step continuity errors : sum local = 7.07505e-08, global = -1.51014e-20, cumulative = 9.38107e-20
[OGL LOG] init_preconditioner : 0 ms
[OGL LOG] solve : 1165 ms
ILUcudaGKOCG:  Solving for p, Initial residual = 0.153087, Final residual = 8.94921e-07, No Iterations 220
linear solve p 1187594
time step continuity errors : sum local = 6.9327e-08, global = 8.7225e-22, cumulative = 9.46829e-20
ExecutionTime = 23.11 s  ClockTime = 23 s

Time = 0.00588235

Courant Number mean: 0.191429 max: 0.963457
DILUPBiCGStab:  Solving for Ux, Initial residual = 0.000869886, Final residual = 3.81814e-06, No Iterations 5
DILUPBiCGStab:  Solving for Uy, Initial residual = 0.00226525, Final residual = 9.96212e-06, No Iterations 5
DILUPBiCGStab:  Solving for Uz, Initial residual = 0.00700804, Final residual = 5.76938e-05, No Iterations 5
linear solve U 604620
[OGL LOG] init_preconditioner : 0 ms
[OGL LOG] solve : 1164 ms
ILUcudaGKOCG:  Solving for p, Initial residual = 0.153486, Final residual = 8.6561e-07, No Iterations 219
linear solve p 1183953
time step continuity errors : sum local = 6.86183e-08, global = 4.14983e-20, cumulative = 1.36181e-19
[OGL LOG] init_preconditioner : 0 ms
[OGL LOG] solve : 1154 ms
ILUcudaGKOCG:  Solving for p, Initial residual = 0.114966, Final residual = 9.95576e-07, No Iterations 218
linear solve p 1175288
time step continuity errors : sum local = 6.88887e-08, global = 2.27245e-20, cumulative = 1.58906e-19
ExecutionTime = 26.44 s  ClockTime = 26 s

Time = 0.00705882

Courant Number mean: 0.191444 max: 0.963475
DILUPBiCGStab:  Solving for Ux, Initial residual = 0.000604737, Final residual = 2.21971e-06, No Iterations 5
DILUPBiCGStab:  Solving for Uy, Initial residual = 0.00154539, Final residual = 6.55304e-06, No Iterations 5
DILUPBiCGStab:  Solving for Uz, Initial residual = 0.00501604, Final residual = 3.50488e-05, No Iterations 5
linear solve U 602160
[OGL LOG] init_preconditioner : 0 ms
[OGL LOG] solve : 1154 ms
ILUcudaGKOCG:  Solving for p, Initial residual = 0.118902, Final residual = 7.87281e-07, No Iterations 218
linear solve p 1174322
time step continuity errors : sum local = 6.9495e-08, global = 7.93484e-21, cumulative = 1.66841e-19
[OGL LOG] init_preconditioner : 0 ms
[OGL LOG] solve : 1151 ms
ILUcudaGKOCG:  Solving for p, Initial residual = 0.0918093, Final residual = 9.60413e-07, No Iterations 217
linear solve p 1171143
time step continuity errors : sum local = 6.91294e-08, global = 2.42695e-21, cumulative = 1.69267e-19
ExecutionTime = 29.76 s  ClockTime = 29 s

Time = 0.00823529

Courant Number mean: 0.191456 max: 0.963473
DILUPBiCGStab:  Solving for Ux, Initial residual = 0.000439947, Final residual = 1.8335e-06, No Iterations 5
DILUPBiCGStab:  Solving for Uy, Initial residual = 0.00110339, Final residual = 5.58483e-06, No Iterations 5
DILUPBiCGStab:  Solving for Uz, Initial residual = 0.00387169, Final residual = 2.99962e-05, No Iterations 5
linear solve U 605635
[OGL LOG] init_preconditioner : 0 ms
[OGL LOG] solve : 1145 ms
ILUcudaGKOCG:  Solving for p, Initial residual = 0.09295, Final residual = 8.97861e-07, No Iterations 215
linear solve p 1165571
time step continuity errors : sum local = 6.8852e-08, global = -2.14934e-20, cumulative = 1.47774e-19
[OGL LOG] init_preconditioner : 0 ms
[OGL LOG] solve : 1134 ms
ILUcudaGKOCG:  Solving for p, Initial residual = 0.0731321, Final residual = 9.6864e-07, No Iterations 214
linear solve p 1154349
time step continuity errors : sum local = 6.89783e-08, global = 1.39547e-20, cumulative = 1.61729e-19
ExecutionTime = 33.06 s  ClockTime = 33 s

Time = 0.00941176

Courant Number mean: 0.191468 max: 0.963471
DILUPBiCGStab:  Solving for Ux, Initial residual = 0.000332021, Final residual = 1.53099e-06, No Iterations 5
DILUPBiCGStab:  Solving for Uy, Initial residual = 0.000829588, Final residual = 3.74234e-06, No Iterations 5
DILUPBiCGStab:  Solving for Uz, Initial residual = 0.00286575, Final residual = 1.89689e-05, No Iterations 5
linear solve U 605579
[OGL LOG] init_preconditioner : 0 ms
[OGL LOG] solve : 1105 ms
ILUcudaGKOCG:  Solving for p, Initial residual = 0.0748814, Final residual = 9.76273e-07, No Iterations 210
linear solve p 1124428
time step continuity errors : sum local = 6.9257e-08, global = 4.34905e-21, cumulative = 1.66078e-19
[OGL LOG] init_preconditioner : 0 ms
[OGL LOG] solve : 1120 ms
ILUcudaGKOCG:  Solving for p, Initial residual = 0.0597838, Final residual = 8.8422e-07, No Iterations 210
linear solve p 1142123
time step continuity errors : sum local = 6.90474e-08, global = 3.93574e-21, cumulative = 1.70014e-19
ExecutionTime = 36.3 s  ClockTime = 36 s

Time = 0.0105882

Courant Number mean: 0.191478 max: 0.963481
DILUPBiCGStab:  Solving for Ux, Initial residual = 0.00025925, Final residual = 1.16373e-06, No Iterations 5
DILUPBiCGStab:  Solving for Uy, Initial residual = 0.000639558, Final residual = 4.08696e-06, No Iterations 5
DILUPBiCGStab:  Solving for Uz, Initial residual = 0.00223452, Final residual = 1.59765e-05, No Iterations 5
linear solve U 599687
[OGL LOG] init_preconditioner : 0 ms
[OGL LOG] solve : 1091 ms
ILUcudaGKOCG:  Solving for p, Initial residual = 0.060819, Final residual = 9.95752e-07, No Iterations 205
linear solve p 1110899
time step continuity errors : sum local = 6.8952e-08, global = -2.25687e-20, cumulative = 1.47445e-19
[OGL LOG] init_preconditioner : 0 ms
[OGL LOG] solve : 1090 ms
ILUcudaGKOCG:  Solving for p, Initial residual = 0.0489475, Final residual = 9.13908e-07, No Iterations 205
linear solve p 1109668
time step continuity errors : sum local = 6.89963e-08, global = 2.52853e-20, cumulative = 1.7273e-19
ExecutionTime = 39.49 s  ClockTime = 39 s

Time = 0.0117647

Courant Number mean: 0.191488 max: 0.963475
DILUPBiCGStab:  Solving for Ux, Initial residual = 0.000206812, Final residual = 1.13202e-06, No Iterations 5
DILUPBiCGStab:  Solving for Uy, Initial residual = 0.000508376, Final residual = 2.72529e-06, No Iterations 5
DILUPBiCGStab:  Solving for Uz, Initial residual = 0.00169904, Final residual = 1.12826e-05, No Iterations 5
linear solve U 603295
[OGL LOG] init_preconditioner : 0 ms
[OGL LOG] solve : 1019 ms
ILUcudaGKOCG:  Solving for p, Initial residual = 0.0500161, Final residual = 8.49674e-07, No Iterations 191
linear solve p 1038521
time step continuity errors : sum local = 6.91193e-08, global = -1.18738e-20, cumulative = 1.60856e-19
[OGL LOG] init_preconditioner : 0 ms
[OGL LOG] solve : 1010 ms
ILUcudaGKOCG:  Solving for p, Initial residual = 0.0405373, Final residual = 9.41231e-07, No Iterations 190
linear solve p 1030010
time step continuity errors : sum local = 6.90396e-08, global = 2.77357e-20, cumulative = 1.88592e-19
ExecutionTime = 42.52 s  ClockTime = 42 s

End

