/*---------------------------------------------------------------------------*\
  =========                 |
  \\      /  F ield         | OpenFOAM: The Open Source CFD Toolbox
   \\    /   O peration     | Website:  https://openfoam.org
    \\  /    A nd           | Version:  8
     \\/     M anipulation  |
\*---------------------------------------------------------------------------*/
Build  : 8-ef60d22ea792
Exec   : icoFoam
Date   : Sep 11 2021
Time   : 14:40:41
Host   : "uc2n513.localdomain"
PID    : 231755
I/O    : uncollated
Case   : /pfs/data5/home/kit/scc/nq7776/data/code/OBR/lidDrivenCavity3D/Variation_init/100/Variation_mesh/35/Variation_matrix_solver/IR_NoPrecond_CUDA/1631364038
nProcs : 1
sigFpe : Enabling floating point exception trapping (FOAM_SIGFPE).
fileModificationChecking : Monitoring run-time modified files using timeStampMaster (fileModificationSkew 10)
allowSystemOperations : Allowing user-supplied system call operations

// * * * * * * * * * * * * * * * * * * * * * * * * * * * * * * * * * * * * * //
Create time

Create mesh for time = 0

Reading transportProperties

Reading field p

Reading field U

Reading/calculating face flux field phi


Starting time loop

Time = 0.00285714

Courant Number mean: 0.190911 max: 0.908567
DILUPBiCGStab:  Solving for Ux, Initial residual = 0.0505974, Final residual = 1.07894e-06, No Iterations 5
DILUPBiCGStab:  Solving for Uy, Initial residual = 0.0886223, Final residual = 3.41025e-06, No Iterations 5
DILUPBiCGStab:  Solving for Uz, Initial residual = 0.109411, Final residual = 1.20546e-05, No Iterations 5
linear solve U 32609
[OGL LOG] init_host_sparsity_pattern : 12 ms
[OGL LOG] matrix not stored update host matrix
[OGL LOG] update_host_mtx : 5 ms
[OGL LOG] matrix is not yet sorted, compute sorting idxs
[OGL LOG] compute_sort : 321 ms
[OGL LOG] matrix is not yet sorted, sorting host matrix
[OGL LOG] sort_host_mtx_sparsity_pattern : 7 ms
[OGL LOG] sort_host_mtx : 4 ms
[OGL LOG] init_preconditioner : 0 ms
[OGL LOG] solve : 50 ms
nonecudaGKOIR:  Solving for p, Initial residual = 0.486126, Final residual = 1.87716e-08, No Iterations 4
linear solve p 1147907
time step continuity errors : sum local = 5.8652e-11, global = -4.40339e-20, cumulative = -4.40339e-20
[OGL LOG] init_preconditioner : 0 ms
[OGL LOG] solve : 39 ms
nonecudaGKOIR:  Solving for p, Initial residual = 0.248642, Final residual = 6.08772e-07, No Iterations 3
linear solve p 40838
time step continuity errors : sum local = 1.50129e-09, global = -1.89778e-20, cumulative = -6.30117e-20
ExecutionTime = 1.47 s  ClockTime = 1 s

Time = 0.00571429

Courant Number mean: 0.190314 max: 0.910887
DILUPBiCGStab:  Solving for Ux, Initial residual = 0.00661151, Final residual = 3.58825e-06, No Iterations 5
DILUPBiCGStab:  Solving for Uy, Initial residual = 0.0135431, Final residual = 4.87531e-06, No Iterations 5
DILUPBiCGStab:  Solving for Uz, Initial residual = 0.0308812, Final residual = 1.20718e-05, No Iterations 5
linear solve U 29090
[OGL LOG] init_preconditioner : 0 ms
[OGL LOG] solve : 40 ms
nonecudaGKOIR:  Solving for p, Initial residual = 0.200799, Final residual = 3.48596e-07, No Iterations 3
linear solve p 42144
time step continuity errors : sum local = 4.93455e-07, global = 1.66571e-20, cumulative = -4.63547e-20
[OGL LOG] init_preconditioner : 0 ms
[OGL LOG] solve : 42 ms
nonecudaGKOIR:  Solving for p, Initial residual = 0.141545, Final residual = 2.06806e-07, No Iterations 3
linear solve p 44018
time step continuity errors : sum local = 4.24762e-07, global = -7.79913e-22, cumulative = -4.71346e-20
ExecutionTime = 1.6 s  ClockTime = 2 s

Time = 0.00857143

Courant Number mean: 0.190208 max: 0.910339
DILUPBiCGStab:  Solving for Ux, Initial residual = 0.00191683, Final residual = 9.78679e-07, No Iterations 5
DILUPBiCGStab:  Solving for Uy, Initial residual = 0.00463122, Final residual = 1.82871e-06, No Iterations 5
DILUPBiCGStab:  Solving for Uz, Initial residual = 0.0123625, Final residual = 2.97853e-06, No Iterations 5
linear solve U 29222
[OGL LOG] init_preconditioner : 0 ms
[OGL LOG] solve : 40 ms
nonecudaGKOIR:  Solving for p, Initial residual = 0.091621, Final residual = 8.83717e-08, No Iterations 3
linear solve p 42368
time step continuity errors : sum local = 4.07226e-07, global = -5.32483e-20, cumulative = -1.00383e-19
[OGL LOG] init_preconditioner : 0 ms
[OGL LOG] solve : 39 ms
nonecudaGKOIR:  Solving for p, Initial residual = 0.0658169, Final residual = 7.48271e-08, No Iterations 3
linear solve p 40484
time step continuity errors : sum local = 4.21905e-07, global = -1.11708e-20, cumulative = -1.11554e-19
ExecutionTime = 1.73 s  ClockTime = 2 s

Time = 0.0114286

Courant Number mean: 0.190301 max: 0.911286
DILUPBiCGStab:  Solving for Ux, Initial residual = 0.000755341, Final residual = 2.04908e-07, No Iterations 5
DILUPBiCGStab:  Solving for Uy, Initial residual = 0.00183493, Final residual = 3.96961e-07, No Iterations 5
DILUPBiCGStab:  Solving for Uz, Initial residual = 0.00487855, Final residual = 1.19635e-06, No Iterations 5
linear solve U 29041
[OGL LOG] init_preconditioner : 0 ms
[OGL LOG] solve : 39 ms
nonecudaGKOIR:  Solving for p, Initial residual = 0.0479569, Final residual = 5.06065e-08, No Iterations 3
linear solve p 40630
time step continuity errors : sum local = 4.26431e-07, global = -1.46873e-19, cumulative = -2.58427e-19
[OGL LOG] init_preconditioner : 0 ms
[OGL LOG] solve : 37 ms
nonecudaGKOIR:  Solving for p, Initial residual = 0.0341454, Final residual = 3.20707e-08, No Iterations 3
linear solve p 39105
time step continuity errors : sum local = 4.22295e-07, global = -7.45999e-21, cumulative = -2.65887e-19
ExecutionTime = 1.86 s  ClockTime = 2 s

Time = 0.0142857

Courant Number mean: 0.19029 max: 0.911194
DILUPBiCGStab:  Solving for Ux, Initial residual = 0.000356108, Final residual = 7.45505e-08, No Iterations 5
DILUPBiCGStab:  Solving for Uy, Initial residual = 0.000881879, Final residual = 1.6048e-07, No Iterations 5
DILUPBiCGStab:  Solving for Uz, Initial residual = 0.00222518, Final residual = 4.2612e-07, No Iterations 5
linear solve U 29207
[OGL LOG] init_preconditioner : 0 ms
[OGL LOG] solve : 42 ms
nonecudaGKOIR:  Solving for p, Initial residual = 0.0253805, Final residual = 2.21267e-08, No Iterations 3
linear solve p 43303
time step continuity errors : sum local = 4.21118e-07, global = -7.47186e-20, cumulative = -3.40605e-19
[OGL LOG] init_preconditioner : 0 ms
[OGL LOG] solve : 42 ms
nonecudaGKOIR:  Solving for p, Initial residual = 0.0177885, Final residual = 1.78961e-08, No Iterations 3
linear solve p 43570
time step continuity errors : sum local = 4.22232e-07, global = 9.83725e-20, cumulative = -2.42233e-19
ExecutionTime = 2 s  ClockTime = 2 s

Time = 0.0171429

Courant Number mean: 0.190299 max: 0.91131
DILUPBiCGStab:  Solving for Ux, Initial residual = 0.00019023, Final residual = 4.56943e-08, No Iterations 5
DILUPBiCGStab:  Solving for Uy, Initial residual = 0.000453121, Final residual = 2.88094e-08, No Iterations 5
DILUPBiCGStab:  Solving for Uz, Initial residual = 0.00121177, Final residual = 2.26329e-07, No Iterations 5
linear solve U 29175
[OGL LOG] init_preconditioner : 0 ms
[OGL LOG] solve : 38 ms
nonecudaGKOIR:  Solving for p, Initial residual = 0.013942, Final residual = 1.43823e-08, No Iterations 3
linear solve p 39895
time step continuity errors : sum local = 4.22599e-07, global = 1.53336e-20, cumulative = -2.26899e-19
[OGL LOG] init_preconditioner : 0 ms
[OGL LOG] solve : 39 ms
nonecudaGKOIR:  Solving for p, Initial residual = 0.0097567, Final residual = 9.41519e-09, No Iterations 3
linear solve p 40673
time step continuity errors : sum local = 4.22227e-07, global = 1.07339e-19, cumulative = -1.19561e-19
ExecutionTime = 2.13 s  ClockTime = 2 s

Time = 0.02

Courant Number mean: 0.190298 max: 0.911278
DILUPBiCGStab:  Solving for Ux, Initial residual = 0.000106037, Final residual = 1.58269e-08, No Iterations 5
DILUPBiCGStab:  Solving for Uy, Initial residual = 0.000242742, Final residual = 2.88736e-08, No Iterations 5
DILUPBiCGStab:  Solving for Uz, Initial residual = 0.000691063, Final residual = 1.32967e-07, No Iterations 5
linear solve U 29219
[OGL LOG] init_preconditioner : 0 ms
[OGL LOG] solve : 15 ms
nonecudaGKOIR:  Solving for p, Initial residual = 0.00780493, Final residual = 8.66674e-07, No Iterations 2
linear solve p 16760
time step continuity errors : sum local = 4.22857e-07, global = -2.61117e-20, cumulative = -1.45672e-19
[OGL LOG] init_preconditioner : 0 ms
[OGL LOG] solve : 16 ms
nonecudaGKOIR:  Solving for p, Initial residual = 0.00544919, Final residual = 6.34029e-07, No Iterations 2
linear solve p 17959
time step continuity errors : sum local = 4.22642e-07, global = -2.23817e-20, cumulative = -1.68054e-19
ExecutionTime = 2.22 s  ClockTime = 2 s

Time = 0.0228571

Courant Number mean: 0.190301 max: 0.911306
DILUPBiCGStab:  Solving for Ux, Initial residual = 6.17833e-05, Final residual = 1.01297e-08, No Iterations 5
DILUPBiCGStab:  Solving for Uy, Initial residual = 0.000135638, Final residual = 2.26422e-08, No Iterations 5
DILUPBiCGStab:  Solving for Uz, Initial residual = 0.000416576, Final residual = 8.84311e-08, No Iterations 5
linear solve U 29004
[OGL LOG] init_preconditioner : 0 ms
[OGL LOG] solve : 16 ms
nonecudaGKOIR:  Solving for p, Initial residual = 0.00444595, Final residual = 4.93239e-07, No Iterations 2
linear solve p 17505
time step continuity errors : sum local = 4.22674e-07, global = 5.26955e-20, cumulative = -1.15359e-19
[OGL LOG] init_preconditioner : 0 ms
[OGL LOG] solve : 16 ms
nonecudaGKOIR:  Solving for p, Initial residual = 0.00311902, Final residual = 3.48848e-07, No Iterations 2
linear solve p 18065
time step continuity errors : sum local = 4.22415e-07, global = -1.13072e-19, cumulative = -2.28431e-19
ExecutionTime = 2.3 s  ClockTime = 2 s

Time = 0.0257143

Courant Number mean: 0.190303 max: 0.911295
DILUPBiCGStab:  Solving for Ux, Initial residual = 3.68501e-05, Final residual = 6.13933e-09, No Iterations 5
DILUPBiCGStab:  Solving for Uy, Initial residual = 7.7031e-05, Final residual = 1.56233e-08, No Iterations 5
DILUPBiCGStab:  Solving for Uz, Initial residual = 0.0002759, Final residual = 6.63541e-08, No Iterations 5
linear solve U 29026
[OGL LOG] init_preconditioner : 0 ms
[OGL LOG] solve : 15 ms
nonecudaGKOIR:  Solving for p, Initial residual = 0.00255783, Final residual = 2.7181e-07, No Iterations 2
linear solve p 16287
time step continuity errors : sum local = 4.22478e-07, global = 9.38732e-21, cumulative = -2.19043e-19
[OGL LOG] init_preconditioner : 0 ms
[OGL LOG] solve : 14 ms
nonecudaGKOIR:  Solving for p, Initial residual = 0.00180284, Final residual = 2.06418e-07, No Iterations 2
linear solve p 15979
time step continuity errors : sum local = 4.22344e-07, global = 4.58447e-20, cumulative = -1.73199e-19
ExecutionTime = 2.38 s  ClockTime = 2 s

Time = 0.0285714

Courant Number mean: 0.190305 max: 0.911303
DILUPBiCGStab:  Solving for Ux, Initial residual = 2.30772e-05, Final residual = 4.16203e-09, No Iterations 5
DILUPBiCGStab:  Solving for Uy, Initial residual = 4.58686e-05, Final residual = 8.67961e-09, No Iterations 5
DILUPBiCGStab:  Solving for Uz, Initial residual = 0.000176088, Final residual = 3.97561e-08, No Iterations 5
linear solve U 29204
[OGL LOG] init_preconditioner : 0 ms
[OGL LOG] solve : 29 ms
nonecudaGKOIR:  Solving for p, Initial residual = 0.00148063, Final residual = 1.49634e-07, No Iterations 2
linear solve p 30756
time step continuity errors : sum local = 4.22286e-07, global = -7.39606e-20, cumulative = -2.47159e-19
[OGL LOG] init_preconditioner : 0 ms
[OGL LOG] solve : 31 ms
nonecudaGKOIR:  Solving for p, Initial residual = 0.00104924, Final residual = 1.10408e-07, No Iterations 2
linear solve p 33173
time step continuity errors : sum local = 4.22253e-07, global = 1.47037e-20, cumulative = -2.32456e-19
ExecutionTime = 2.5 s  ClockTime = 2 s

End

