/*---------------------------------------------------------------------------*\
  =========                 |
  \\      /  F ield         | OpenFOAM: The Open Source CFD Toolbox
   \\    /   O peration     | Website:  https://openfoam.org
    \\  /    A nd           | Version:  8
     \\/     M anipulation  |
\*---------------------------------------------------------------------------*/
Build  : 8-ef60d22ea792
Exec   : icoFoam
Date   : Sep 11 2021
Time   : 14:21:41
Host   : "uc2n513.localdomain"
PID    : 226860
I/O    : uncollated
Case   : /pfs/data5/home/kit/scc/nq7776/data/code/OBR/lidDrivenCavity3D/Variation_init/100/Variation_mesh/100/Variation_matrix_solver/BiCGStab_BJ_CUDA/1631362859
nProcs : 1
sigFpe : Enabling floating point exception trapping (FOAM_SIGFPE).
fileModificationChecking : Monitoring run-time modified files using timeStampMaster (fileModificationSkew 10)
allowSystemOperations : Allowing user-supplied system call operations

// * * * * * * * * * * * * * * * * * * * * * * * * * * * * * * * * * * * * * //
Create time

Create mesh for time = 0

Reading transportProperties

Reading field p

Reading field U

Reading/calculating face flux field phi


Starting time loop

Time = 0.001

Courant Number mean: 0.191555 max: 0.96896
DILUPBiCGStab:  Solving for Ux, Initial residual = 9.6672e-05, Final residual = 1.54351e-06, No Iterations 5
DILUPBiCGStab:  Solving for Uy, Initial residual = 0.00025914, Final residual = 4.93349e-06, No Iterations 5
DILUPBiCGStab:  Solving for Uz, Initial residual = 0.00322927, Final residual = 7.02504e-05, No Iterations 5
linear solve U 1105490
[OGL LOG] init_host_sparsity_pattern : 283 ms
[OGL LOG] matrix not stored update host matrix
[OGL LOG] update_host_mtx : 153 ms
[OGL LOG] matrix is not yet sorted, compute sorting idxs
[OGL LOG] compute_sort : 9004 ms
[OGL LOG] matrix is not yet sorted, sorting host matrix
[OGL LOG] sort_host_mtx_sparsity_pattern : 192 ms
[OGL LOG] sort_host_mtx : 117 ms
[OGL LOG] init_preconditioner : 122 ms
[OGL LOG] solve : 1563 ms
BJcudaGKOBiCGStab:  Solving for p, Initial residual = 0.00938001, Final residual = 8.79642e-07, No Iterations 547
linear solve p 12255616
time step continuity errors : sum local = 6.2896e-08, global = -1.63658e-21, cumulative = -1.63658e-21
[OGL LOG] init_preconditioner : 0 ms
[OGL LOG] solve : 1481 ms
BJcudaGKOBiCGStab:  Solving for p, Initial residual = 0.00658663, Final residual = 7.99634e-07, No Iterations 522
linear solve p 1514683
time step continuity errors : sum local = 1.82615e-07, global = -6.23102e-21, cumulative = -7.86759e-21
ExecutionTime = 19.75 s  ClockTime = 20 s

Time = 0.002

Courant Number mean: 0.19156 max: 0.968963
DILUPBiCGStab:  Solving for Ux, Initial residual = 7.8719e-05, Final residual = 1.34113e-06, No Iterations 5
DILUPBiCGStab:  Solving for Uy, Initial residual = 0.000201522, Final residual = 4.05355e-06, No Iterations 5
DILUPBiCGStab:  Solving for Uz, Initial residual = 0.00293806, Final residual = 7.18121e-05, No Iterations 5
linear solve U 1079578
[OGL LOG] init_preconditioner : 0 ms
[OGL LOG] solve : 1478 ms
BJcudaGKOBiCGStab:  Solving for p, Initial residual = 0.0145841, Final residual = 5.99615e-07, No Iterations 520
linear solve p 1511793
time step continuity errors : sum local = 9.85115e-08, global = -2.30157e-21, cumulative = -1.01692e-20
[OGL LOG] init_preconditioner : 0 ms
[OGL LOG] solve : 1406 ms
BJcudaGKOBiCGStab:  Solving for p, Initial residual = 0.0103089, Final residual = 9.64328e-07, No Iterations 497
linear solve p 1439728
time step continuity errors : sum local = 1.25758e-07, global = -2.4524e-20, cumulative = -3.46931e-20
ExecutionTime = 24.41 s  ClockTime = 24 s

Time = 0.003

Courant Number mean: 0.191566 max: 0.96896
DILUPBiCGStab:  Solving for Ux, Initial residual = 4.08946e-05, Final residual = 9.70293e-07, No Iterations 5
DILUPBiCGStab:  Solving for Uy, Initial residual = 0.000128334, Final residual = 3.18525e-06, No Iterations 5
DILUPBiCGStab:  Solving for Uz, Initial residual = 0.00288587, Final residual = 6.03177e-05, No Iterations 5
linear solve U 1079201
[OGL LOG] init_preconditioner : 0 ms
[OGL LOG] solve : 1475 ms
BJcudaGKOBiCGStab:  Solving for p, Initial residual = 0.0121937, Final residual = 9.8973e-07, No Iterations 522
linear solve p 1508276
time step continuity errors : sum local = 4.05866e-08, global = 6.77244e-22, cumulative = -3.40159e-20
[OGL LOG] init_preconditioner : 0 ms
[OGL LOG] solve : 1228 ms
BJcudaGKOBiCGStab:  Solving for p, Initial residual = 0.0104375, Final residual = 9.96919e-07, No Iterations 433
linear solve p 1261220
time step continuity errors : sum local = 4.06622e-08, global = -2.50932e-21, cumulative = -3.65252e-20
ExecutionTime = 28.9 s  ClockTime = 29 s

Time = 0.004

Courant Number mean: 0.191573 max: 0.968961
DILUPBiCGStab:  Solving for Ux, Initial residual = 3.11482e-05, Final residual = 7.93125e-07, No Iterations 5
DILUPBiCGStab:  Solving for Uy, Initial residual = 9.88692e-05, Final residual = 2.55281e-06, No Iterations 5
DILUPBiCGStab:  Solving for Uz, Initial residual = 0.00252056, Final residual = 3.2312e-05, No Iterations 5
linear solve U 1073183
[OGL LOG] init_preconditioner : 0 ms
[OGL LOG] solve : 1219 ms
BJcudaGKOBiCGStab:  Solving for p, Initial residual = 0.00973715, Final residual = 6.18909e-07, No Iterations 430
linear solve p 1252202
time step continuity errors : sum local = 4.537e-06, global = 1.13715e-20, cumulative = -2.51537e-20
[OGL LOG] init_preconditioner : 0 ms
[OGL LOG] solve : 1276 ms
BJcudaGKOBiCGStab:  Solving for p, Initial residual = 0.0255883, Final residual = 9.99933e-07, No Iterations 452
linear solve p 1308471
time step continuity errors : sum local = 4.06218e-08, global = -7.40787e-21, cumulative = -3.25616e-20
ExecutionTime = 33.15 s  ClockTime = 33 s

Time = 0.005

Courant Number mean: 0.191579 max: 0.968961
DILUPBiCGStab:  Solving for Ux, Initial residual = 2.61198e-05, Final residual = 7.12999e-07, No Iterations 5
DILUPBiCGStab:  Solving for Uy, Initial residual = 8.74113e-05, Final residual = 2.8399e-06, No Iterations 5
DILUPBiCGStab:  Solving for Uz, Initial residual = 0.0153559, Final residual = 0.000550168, No Iterations 5
linear solve U 1077090
[OGL LOG] init_preconditioner : 0 ms
[OGL LOG] solve : 1387 ms
BJcudaGKOBiCGStab:  Solving for p, Initial residual = 0.0996789, Final residual = 9.71776e-07, No Iterations 490
linear solve p 1419146
time step continuity errors : sum local = 4.06999e-08, global = -4.54682e-21, cumulative = -3.71084e-20
[OGL LOG] init_preconditioner : 0 ms
[OGL LOG] solve : 1379 ms
BJcudaGKOBiCGStab:  Solving for p, Initial residual = 0.0898829, Final residual = 7.49704e-07, No Iterations 486
linear solve p 1412192
time step continuity errors : sum local = 4.81389e-06, global = 2.65321e-20, cumulative = -1.05763e-20
ExecutionTime = 37.67 s  ClockTime = 37 s

Time = 0.006

Courant Number mean: 0.191587 max: 0.968965
DILUPBiCGStab:  Solving for Ux, Initial residual = 6.31369e-05, Final residual = 1.17067e-06, No Iterations 5
DILUPBiCGStab:  Solving for Uy, Initial residual = 0.000219696, Final residual = 5.02888e-06, No Iterations 5
DILUPBiCGStab:  Solving for Uz, Initial residual = 0.0335427, Final residual = 0.000949085, No Iterations 5
linear solve U 1065631
[OGL LOG] init_preconditioner : 0 ms
[OGL LOG] solve : 1531 ms
BJcudaGKOBiCGStab:  Solving for p, Initial residual = 0.170289, Final residual = 4.05389e-07, No Iterations 540
linear solve p 1565152
time step continuity errors : sum local = 4.16229e-06, global = 8.19426e-21, cumulative = -2.38205e-21
[OGL LOG] init_preconditioner : 0 ms
[OGL LOG] solve : 1386 ms
BJcudaGKOBiCGStab:  Solving for p, Initial residual = 0.161739, Final residual = 7.45583e-07, No Iterations 489
linear solve p 1418289
time step continuity errors : sum local = 1.63319e-06, global = -1.70617e-21, cumulative = -4.08822e-21
ExecutionTime = 42.35 s  ClockTime = 42 s

Time = 0.007

Courant Number mean: 0.191592 max: 0.968965
DILUPBiCGStab:  Solving for Ux, Initial residual = 9.7058e-05, Final residual = 1.80041e-06, No Iterations 5
DILUPBiCGStab:  Solving for Uy, Initial residual = 0.000325333, Final residual = 5.87174e-06, No Iterations 5
DILUPBiCGStab:  Solving for Uz, Initial residual = 0.0238461, Final residual = 0.00031117, No Iterations 5
linear solve U 1077547
[OGL LOG] init_preconditioner : 0 ms
[OGL LOG] solve : 1319 ms
BJcudaGKOBiCGStab:  Solving for p, Initial residual = 0.0792326, Final residual = 9.60542e-07, No Iterations 466
linear solve p 1351394
time step continuity errors : sum local = 4.07826e-08, global = -5.965e-21, cumulative = -1.00532e-20
[OGL LOG] init_preconditioner : 0 ms
[OGL LOG] solve : 1312 ms
BJcudaGKOBiCGStab:  Solving for p, Initial residual = 0.0692826, Final residual = 7.71703e-07, No Iterations 463
linear solve p 1345304
time step continuity errors : sum local = 1.86989e-06, global = 2.06989e-20, cumulative = 1.06456e-20
ExecutionTime = 46.75 s  ClockTime = 47 s

Time = 0.008

Courant Number mean: 0.191598 max: 0.968971
DILUPBiCGStab:  Solving for Ux, Initial residual = 6.29608e-05, Final residual = 1.32175e-06, No Iterations 5
DILUPBiCGStab:  Solving for Uy, Initial residual = 0.000208695, Final residual = 4.24606e-06, No Iterations 5
DILUPBiCGStab:  Solving for Uz, Initial residual = 0.0155166, Final residual = 0.00027965, No Iterations 5
linear solve U 1066423
[OGL LOG] init_preconditioner : 0 ms
[OGL LOG] solve : 1350 ms
BJcudaGKOBiCGStab:  Solving for p, Initial residual = 0.0574262, Final residual = 7.29676e-07, No Iterations 475
linear solve p 1381498
time step continuity errors : sum local = 4.37462e-06, global = -4.5237e-20, cumulative = -3.45914e-20
[OGL LOG] init_preconditioner : 0 ms
[OGL LOG] solve : 1430 ms
BJcudaGKOBiCGStab:  Solving for p, Initial residual = 0.0688134, Final residual = 1.2876e-07, No Iterations 505
linear solve p 1461464
time step continuity errors : sum local = 7.23425e-06, global = -1.45031e-20, cumulative = -4.90945e-20
ExecutionTime = 51.27 s  ClockTime = 51 s

Time = 0.009

Courant Number mean: 0.191603 max: 0.968967
DILUPBiCGStab:  Solving for Ux, Initial residual = 3.85769e-05, Final residual = 7.60363e-07, No Iterations 5
DILUPBiCGStab:  Solving for Uy, Initial residual = 0.000139918, Final residual = 4.45542e-06, No Iterations 5
DILUPBiCGStab:  Solving for Uz, Initial residual = 0.0407604, Final residual = 0.00129102, No Iterations 5
linear solve U 1079752
[OGL LOG] init_preconditioner : 0 ms
[OGL LOG] solve : 1487 ms
BJcudaGKOBiCGStab:  Solving for p, Initial residual = 0.225638, Final residual = 9.60387e-07, No Iterations 526
linear solve p 1519041
time step continuity errors : sum local = 3.62809e-07, global = 4.41274e-21, cumulative = -4.46817e-20
[OGL LOG] init_preconditioner : 0 ms
[OGL LOG] solve : 1349 ms
BJcudaGKOBiCGStab:  Solving for p, Initial residual = 0.193402, Final residual = 9.50123e-07, No Iterations 476
linear solve p 1383252
time step continuity errors : sum local = 1.68658e-07, global = -1.41341e-20, cumulative = -5.88158e-20
ExecutionTime = 55.87 s  ClockTime = 56 s

Time = 0.01

Courant Number mean: 0.191611 max: 0.968971
DILUPBiCGStab:  Solving for Ux, Initial residual = 0.000128732, Final residual = 2.35613e-06, No Iterations 5
DILUPBiCGStab:  Solving for Uy, Initial residual = 0.000438568, Final residual = 8.21572e-06, No Iterations 5
DILUPBiCGStab:  Solving for Uz, Initial residual = 0.0515046, Final residual = 0.000924718, No Iterations 5
linear solve U 1065161
[OGL LOG] init_preconditioner : 0 ms
[OGL LOG] solve : 1507 ms
BJcudaGKOBiCGStab:  Solving for p, Initial residual = 0.17769, Final residual = 9.04535e-07, No Iterations 533
linear solve p 1541048
time step continuity errors : sum local = 9.42294e-08, global = -1.92478e-21, cumulative = -6.07406e-20
[OGL LOG] init_preconditioner : 0 ms
[OGL LOG] solve : 1330 ms
BJcudaGKOBiCGStab:  Solving for p, Initial residual = 0.156681, Final residual = 9.55698e-07, No Iterations 470
linear solve p 1363631
time step continuity errors : sum local = 1.05746e-06, global = 2.34519e-23, cumulative = -6.07171e-20
ExecutionTime = 60.47 s  ClockTime = 60 s

End

