/*---------------------------------------------------------------------------*\
  =========                 |
  \\      /  F ield         | OpenFOAM: The Open Source CFD Toolbox
   \\    /   O peration     | Website:  https://openfoam.org
    \\  /    A nd           | Version:  8
     \\/     M anipulation  |
\*---------------------------------------------------------------------------*/
Build  : 8-ef60d22ea792
Exec   : icoFoam
Date   : Sep 11 2021
Time   : 14:14:30
Host   : "uc2n442.localdomain"
PID    : 3720619
I/O    : uncollated
Case   : /pfs/data5/home/kit/scc/nq7776/data/code/OBR/lidDrivenCavity3D/Variation_init/100/Variation_mesh/70/Variation_matrix_solver/CG_DIC_Serial/1631362459
nProcs : 1
sigFpe : Enabling floating point exception trapping (FOAM_SIGFPE).
fileModificationChecking : Monitoring run-time modified files using timeStampMaster (fileModificationSkew 10)
allowSystemOperations : Allowing user-supplied system call operations

// * * * * * * * * * * * * * * * * * * * * * * * * * * * * * * * * * * * * * //
Create time

Create mesh for time = 0

Reading transportProperties

Reading field p

Reading field U

Reading/calculating face flux field phi


Starting time loop

Time = 0.00142857

Courant Number mean: 0.191369 max: 0.960255
DILUPBiCGStab:  Solving for Ux, Initial residual = 0.123219, Final residual = 1.08625e-05, No Iterations 5
DILUPBiCGStab:  Solving for Uy, Initial residual = 0.236374, Final residual = 2.69981e-05, No Iterations 5
DILUPBiCGStab:  Solving for Uz, Initial residual = 0.30937, Final residual = 0.000142646, No Iterations 5
linear solve U 342426
DICPCG:  Solving for p, Initial residual = 0.562471, Final residual = 7.8835e-07, No Iterations 182
linear solve p 1447343
time step continuity errors : sum local = 9.32061e-10, global = 3.55278e-20, cumulative = 3.55278e-20
DICPCG:  Solving for p, Initial residual = 0.247873, Final residual = 7.85286e-07, No Iterations 183
linear solve p 1440572
time step continuity errors : sum local = 5.43959e-10, global = -3.45964e-21, cumulative = 3.20682e-20
ExecutionTime = 4.95 s  ClockTime = 5 s

Time = 0.00285714

Courant Number mean: 0.191442 max: 0.955464
DILUPBiCGStab:  Solving for Ux, Initial residual = 0.00494474, Final residual = 1.88394e-05, No Iterations 5
DILUPBiCGStab:  Solving for Uy, Initial residual = 0.010261, Final residual = 3.24075e-05, No Iterations 5
DILUPBiCGStab:  Solving for Uz, Initial residual = 0.033388, Final residual = 0.000124117, No Iterations 5
linear solve U 322849
DICPCG:  Solving for p, Initial residual = 0.235851, Final residual = 8.2523e-07, No Iterations 182
linear solve p 1417681
time step continuity errors : sum local = 5.67378e-10, global = -1.98308e-20, cumulative = 1.22374e-20
DICPCG:  Solving for p, Initial residual = 0.161707, Final residual = 9.22373e-07, No Iterations 181
linear solve p 1407959
time step continuity errors : sum local = 6.17029e-10, global = 3.94408e-20, cumulative = 5.16782e-20
ExecutionTime = 8.27 s  ClockTime = 8 s

Time = 0.00428571

Courant Number mean: 0.19146 max: 0.955931
DILUPBiCGStab:  Solving for Ux, Initial residual = 0.00112522, Final residual = 4.30587e-06, No Iterations 5
DILUPBiCGStab:  Solving for Uy, Initial residual = 0.00292404, Final residual = 9.89205e-06, No Iterations 5
DILUPBiCGStab:  Solving for Uz, Initial residual = 0.0148888, Final residual = 6.64431e-05, No Iterations 5
linear solve U 318714
DICPCG:  Solving for p, Initial residual = 0.144118, Final residual = 9.65469e-07, No Iterations 179
linear solve p 1408169
time step continuity errors : sum local = 6.20727e-10, global = -1.32284e-20, cumulative = 3.84498e-20
DICPCG:  Solving for p, Initial residual = 0.103387, Final residual = 8.16556e-07, No Iterations 179
linear solve p 1411775
time step continuity errors : sum local = 5.24743e-10, global = -8.33189e-21, cumulative = 3.01179e-20
ExecutionTime = 11.59 s  ClockTime = 12 s

Time = 0.00571429

Courant Number mean: 0.191438 max: 0.955696
DILUPBiCGStab:  Solving for Ux, Initial residual = 0.00066871, Final residual = 1.45988e-06, No Iterations 5
DILUPBiCGStab:  Solving for Uy, Initial residual = 0.00178008, Final residual = 4.57826e-06, No Iterations 5
DILUPBiCGStab:  Solving for Uz, Initial residual = 0.00718128, Final residual = 3.08565e-05, No Iterations 5
linear solve U 315874
DICPCG:  Solving for p, Initial residual = 0.0999961, Final residual = 9.80456e-07, No Iterations 175
linear solve p 1386338
time step continuity errors : sum local = 5.98261e-10, global = -2.66555e-20, cumulative = 3.46248e-21
DICPCG:  Solving for p, Initial residual = 0.0728489, Final residual = 9.1305e-07, No Iterations 175
linear solve p 1376422
time step continuity errors : sum local = 5.53188e-10, global = 1.38307e-20, cumulative = 1.72932e-20
ExecutionTime = 14.84 s  ClockTime = 15 s

Time = 0.00714286

Courant Number mean: 0.191433 max: 0.95573
DILUPBiCGStab:  Solving for Ux, Initial residual = 0.000437039, Final residual = 1.29928e-06, No Iterations 5
DILUPBiCGStab:  Solving for Uy, Initial residual = 0.00117767, Final residual = 2.93922e-06, No Iterations 5
DILUPBiCGStab:  Solving for Uz, Initial residual = 0.00449466, Final residual = 1.63471e-05, No Iterations 5
linear solve U 316093
DICPCG:  Solving for p, Initial residual = 0.0697454, Final residual = 8.4053e-07, No Iterations 170
linear solve p 1337168
time step continuity errors : sum local = 5.05887e-10, global = 3.75835e-20, cumulative = 5.48767e-20
DICPCG:  Solving for p, Initial residual = 0.0506248, Final residual = 9.05055e-07, No Iterations 169
linear solve p 1337168
time step continuity errors : sum local = 5.44948e-10, global = -8.80076e-21, cumulative = 4.60759e-20
ExecutionTime = 18.01 s  ClockTime = 18 s

Time = 0.00857143

Courant Number mean: 0.191428 max: 0.9557
DILUPBiCGStab:  Solving for Ux, Initial residual = 0.000300133, Final residual = 8.36747e-07, No Iterations 5
DILUPBiCGStab:  Solving for Uy, Initial residual = 0.000803496, Final residual = 1.80462e-06, No Iterations 5
DILUPBiCGStab:  Solving for Uz, Initial residual = 0.00284475, Final residual = 8.74693e-06, No Iterations 5
linear solve U 315622
DICPCG:  Solving for p, Initial residual = 0.0502855, Final residual = 8.73522e-07, No Iterations 167
linear solve p 1323074
time step continuity errors : sum local = 5.14119e-10, global = -6.59997e-21, cumulative = 3.9476e-20
DICPCG:  Solving for p, Initial residual = 0.0367551, Final residual = 9.76867e-07, No Iterations 166
linear solve p 1296007
time step continuity errors : sum local = 5.73501e-10, global = -1.13262e-20, cumulative = 2.81498e-20
ExecutionTime = 21.11 s  ClockTime = 21 s

Time = 0.01

Courant Number mean: 0.191426 max: 0.955692
DILUPBiCGStab:  Solving for Ux, Initial residual = 0.000209862, Final residual = 6.5743e-07, No Iterations 5
DILUPBiCGStab:  Solving for Uy, Initial residual = 0.000562435, Final residual = 1.23132e-06, No Iterations 5
DILUPBiCGStab:  Solving for Uz, Initial residual = 0.00194801, Final residual = 5.9846e-06, No Iterations 5
linear solve U 315627
DICPCG:  Solving for p, Initial residual = 0.0362619, Final residual = 8.69336e-07, No Iterations 165
linear solve p 1300222
time step continuity errors : sum local = 5.09131e-10, global = 4.8889e-21, cumulative = 3.30387e-20
DICPCG:  Solving for p, Initial residual = 0.0265622, Final residual = 9.79812e-07, No Iterations 164
linear solve p 1291010
time step continuity errors : sum local = 5.73872e-10, global = 2.03661e-20, cumulative = 5.34048e-20
ExecutionTime = 24.2 s  ClockTime = 24 s

Time = 0.0114286

Courant Number mean: 0.191426 max: 0.955687
DILUPBiCGStab:  Solving for Ux, Initial residual = 0.000148412, Final residual = 4.39294e-07, No Iterations 5
DILUPBiCGStab:  Solving for Uy, Initial residual = 0.000400932, Final residual = 7.45469e-07, No Iterations 5
DILUPBiCGStab:  Solving for Uz, Initial residual = 0.0013351, Final residual = 3.47668e-06, No Iterations 5
linear solve U 318337
DICPCG:  Solving for p, Initial residual = 0.0266497, Final residual = 8.83424e-07, No Iterations 152
linear solve p 1199209
time step continuity errors : sum local = 5.12194e-10, global = -2.21594e-20, cumulative = 3.12454e-20
DICPCG:  Solving for p, Initial residual = 0.0196435, Final residual = 8.91925e-07, No Iterations 151
linear solve p 1193104
time step continuity errors : sum local = 5.16719e-10, global = -2.00019e-20, cumulative = 1.12435e-20
ExecutionTime = 27.09 s  ClockTime = 27 s

Time = 0.0128571

Courant Number mean: 0.191427 max: 0.955681
DILUPBiCGStab:  Solving for Ux, Initial residual = 0.000106806, Final residual = 2.65658e-07, No Iterations 5
DILUPBiCGStab:  Solving for Uy, Initial residual = 0.00029153, Final residual = 4.89508e-07, No Iterations 5
DILUPBiCGStab:  Solving for Uz, Initial residual = 0.000961289, Final residual = 2.93687e-06, No Iterations 5
linear solve U 316301
DICPCG:  Solving for p, Initial residual = 0.0196481, Final residual = 9.55768e-07, No Iterations 149
linear solve p 1169178
time step continuity errors : sum local = 5.53043e-10, global = 5.37819e-20, cumulative = 6.50254e-20
DICPCG:  Solving for p, Initial residual = 0.014549, Final residual = 9.88182e-07, No Iterations 148
linear solve p 1182095
time step continuity errors : sum local = 5.71764e-10, global = -1.42198e-20, cumulative = 5.08056e-20
ExecutionTime = 29.93 s  ClockTime = 30 s

Time = 0.0142857

Courant Number mean: 0.191429 max: 0.955681
DILUPBiCGStab:  Solving for Ux, Initial residual = 7.71997e-05, Final residual = 1.49679e-07, No Iterations 5
DILUPBiCGStab:  Solving for Uy, Initial residual = 0.000214068, Final residual = 3.28434e-07, No Iterations 5
DILUPBiCGStab:  Solving for Uz, Initial residual = 0.000687097, Final residual = 1.79104e-06, No Iterations 5
linear solve U 315856
DICPCG:  Solving for p, Initial residual = 0.0146583, Final residual = 9.67976e-07, No Iterations 159
linear solve p 1256026
time step continuity errors : sum local = 5.57411e-10, global = -5.46133e-20, cumulative = -3.80771e-21
DICPCG:  Solving for p, Initial residual = 0.0109099, Final residual = 9.82355e-07, No Iterations 158
linear solve p 1240614
time step continuity errors : sum local = 5.65562e-10, global = 3.33378e-20, cumulative = 2.95301e-20
ExecutionTime = 32.92 s  ClockTime = 33 s

End

