/*---------------------------------------------------------------------------*\
  =========                 |
  \\      /  F ield         | OpenFOAM: The Open Source CFD Toolbox
   \\    /   O peration     | Website:  https://openfoam.org
    \\  /    A nd           | Version:  8
     \\/     M anipulation  |
\*---------------------------------------------------------------------------*/
Build  : 8-ef60d22ea792
Exec   : icoFoam
Date   : Sep 11 2021
Time   : 14:37:58
Host   : "uc2n442.localdomain"
PID    : 3722372
I/O    : uncollated
Case   : /pfs/data5/home/kit/scc/nq7776/data/code/OBR/lidDrivenCavity3D/Variation_init/100/Variation_mesh/80/Variation_matrix_solver/BiCGStab_DIC_Serial/1631363857
nProcs : 1
sigFpe : Enabling floating point exception trapping (FOAM_SIGFPE).
fileModificationChecking : Monitoring run-time modified files using timeStampMaster (fileModificationSkew 10)
allowSystemOperations : Allowing user-supplied system call operations

// * * * * * * * * * * * * * * * * * * * * * * * * * * * * * * * * * * * * * //
Create time

Create mesh for time = 0

Reading transportProperties

Reading field p

Reading field U

Reading/calculating face flux field phi


Starting time loop

Time = 0.00125

Courant Number mean: 0.191396 max: 0.961531
DILUPBiCGStab:  Solving for Ux, Initial residual = 0.0903312, Final residual = 1.56905e-05, No Iterations 5
DILUPBiCGStab:  Solving for Uy, Initial residual = 0.170741, Final residual = 4.42871e-05, No Iterations 5
DILUPBiCGStab:  Solving for Uz, Initial residual = 0.209354, Final residual = 0.0001275, No Iterations 5
linear solve U 506602
DICPBiCGStab:  Solving for p, Initial residual = 0.614031, Final residual = 8.62382e-07, No Iterations 147
linear solve p 3503512
time step continuity errors : sum local = 8.08229e-10, global = -3.36482e-20, cumulative = -3.36482e-20
DICPBiCGStab:  Solving for p, Initial residual = 0.278622, Final residual = 4.89284e-07, No Iterations 153
linear solve p 3734649
time step continuity errors : sum local = 3.64348e-10, global = -2.02925e-20, cumulative = -5.39407e-20
ExecutionTime = 10.2 s  ClockTime = 10 s

Time = 0.0025

Courant Number mean: 0.19147 max: 0.961377
DILUPBiCGStab:  Solving for Ux, Initial residual = 0.00522738, Final residual = 1.34966e-05, No Iterations 5
DILUPBiCGStab:  Solving for Uy, Initial residual = 0.0118478, Final residual = 4.12818e-05, No Iterations 5
DILUPBiCGStab:  Solving for Uz, Initial residual = 0.0160729, Final residual = 8.85385e-05, No Iterations 5
linear solve U 462675
DICPBiCGStab:  Solving for p, Initial residual = 0.280791, Final residual = 8.8321e-07, No Iterations 157
linear solve p 3725539
time step continuity errors : sum local = 5.30458e-10, global = -1.40845e-22, cumulative = -5.40816e-20
DICPBiCGStab:  Solving for p, Initial residual = 0.149925, Final residual = 2.92311e-07, No Iterations 157
linear solve p 3835742
time step continuity errors : sum local = 1.50691e-10, global = 1.02375e-20, cumulative = -4.38441e-20
ExecutionTime = 18.47 s  ClockTime = 18 s

Time = 0.00375

Courant Number mean: 0.19147 max: 0.961236
DILUPBiCGStab:  Solving for Ux, Initial residual = 0.00110781, Final residual = 5.94559e-06, No Iterations 5
DILUPBiCGStab:  Solving for Uy, Initial residual = 0.00325733, Final residual = 1.71124e-05, No Iterations 5
DILUPBiCGStab:  Solving for Uz, Initial residual = 0.00570943, Final residual = 4.72369e-05, No Iterations 5
linear solve U 466758
DICPBiCGStab:  Solving for p, Initial residual = 0.139935, Final residual = 5.48247e-07, No Iterations 146
linear solve p 3553355
time step continuity errors : sum local = 3.25832e-10, global = -2.73031e-20, cumulative = -7.11472e-20
DICPBiCGStab:  Solving for p, Initial residual = 0.0905382, Final residual = 9.97131e-07, No Iterations 144
linear solve p 3560135
time step continuity errors : sum local = 7.79002e-10, global = 1.73873e-20, cumulative = -5.37599e-20
ExecutionTime = 26.31 s  ClockTime = 26 s

Time = 0.005

Courant Number mean: 0.191473 max: 0.961205
DILUPBiCGStab:  Solving for Ux, Initial residual = 0.000493478, Final residual = 2.42585e-06, No Iterations 5
DILUPBiCGStab:  Solving for Uy, Initial residual = 0.00163558, Final residual = 9.09039e-06, No Iterations 5
DILUPBiCGStab:  Solving for Uz, Initial residual = 0.0033412, Final residual = 2.55979e-05, No Iterations 5
linear solve U 463348
DICPBiCGStab:  Solving for p, Initial residual = 0.0900879, Final residual = 3.06081e-07, No Iterations 161
linear solve p 3847734
time step continuity errors : sum local = 1.56034e-10, global = -2.26713e-20, cumulative = -7.64313e-20
DICPBiCGStab:  Solving for p, Initial residual = 0.0667839, Final residual = 9.75882e-07, No Iterations 148
linear solve p 3614152
time step continuity errors : sum local = 4.71376e-10, global = -1.16767e-20, cumulative = -8.81079e-20
ExecutionTime = 34.49 s  ClockTime = 34 s

Time = 0.00625

Courant Number mean: 0.191476 max: 0.961192
DILUPBiCGStab:  Solving for Ux, Initial residual = 0.000285889, Final residual = 1.80417e-06, No Iterations 5
DILUPBiCGStab:  Solving for Uy, Initial residual = 0.00102328, Final residual = 5.38268e-06, No Iterations 5
DILUPBiCGStab:  Solving for Uz, Initial residual = 0.00242994, Final residual = 2.03666e-05, No Iterations 5
linear solve U 462510
DICPBiCGStab:  Solving for p, Initial residual = 0.0650399, Final residual = 4.81603e-07, No Iterations 147
linear solve p 3500466
time step continuity errors : sum local = 2.90018e-10, global = -1.26924e-20, cumulative = -1.008e-19
DICPBiCGStab:  Solving for p, Initial residual = 0.0503768, Final residual = 7.76636e-07, No Iterations 154
linear solve p 3758660
time step continuity errors : sum local = 3.75799e-10, global = 1.24839e-20, cumulative = -8.83164e-20
ExecutionTime = 42.46 s  ClockTime = 42 s

Time = 0.0075

Courant Number mean: 0.191483 max: 0.961209
DILUPBiCGStab:  Solving for Ux, Initial residual = 0.000200885, Final residual = 1.23062e-06, No Iterations 5
DILUPBiCGStab:  Solving for Uy, Initial residual = 0.000726898, Final residual = 2.95039e-06, No Iterations 5
DILUPBiCGStab:  Solving for Uz, Initial residual = 0.00170515, Final residual = 1.28772e-05, No Iterations 5
linear solve U 465241
DICPBiCGStab:  Solving for p, Initial residual = 0.0505796, Final residual = 9.95903e-07, No Iterations 141
linear solve p 3429368
time step continuity errors : sum local = 4.9626e-10, global = -2.34987e-20, cumulative = -1.11815e-19
DICPBiCGStab:  Solving for p, Initial residual = 0.0403096, Final residual = 3.62145e-07, No Iterations 144
linear solve p 3542762
time step continuity errors : sum local = 1.65185e-10, global = 9.70238e-21, cumulative = -1.02113e-19
ExecutionTime = 50.15 s  ClockTime = 50 s

Time = 0.00875

Courant Number mean: 0.191486 max: 0.961199
DILUPBiCGStab:  Solving for Ux, Initial residual = 0.000148951, Final residual = 8.19676e-07, No Iterations 5
DILUPBiCGStab:  Solving for Uy, Initial residual = 0.000559835, Final residual = 2.94374e-06, No Iterations 5
DILUPBiCGStab:  Solving for Uz, Initial residual = 0.00132985, Final residual = 1.13367e-05, No Iterations 5
linear solve U 464245
DICPBiCGStab:  Solving for p, Initial residual = 0.0400345, Final residual = 7.11659e-07, No Iterations 138
linear solve p 3290766
time step continuity errors : sum local = 4.50015e-10, global = -5.45805e-21, cumulative = -1.07571e-19
DICPBiCGStab:  Solving for p, Initial residual = 0.0321618, Final residual = 7.67613e-07, No Iterations 134
linear solve p 3275860
time step continuity errors : sum local = 5.55233e-10, global = -1.70504e-20, cumulative = -1.24621e-19
ExecutionTime = 57.43 s  ClockTime = 57 s

Time = 0.01

Courant Number mean: 0.191493 max: 0.961207
DILUPBiCGStab:  Solving for Ux, Initial residual = 0.000118834, Final residual = 8.27124e-07, No Iterations 5
DILUPBiCGStab:  Solving for Uy, Initial residual = 0.000426741, Final residual = 1.63959e-06, No Iterations 5
DILUPBiCGStab:  Solving for Uz, Initial residual = 0.00100076, Final residual = 9.46161e-06, No Iterations 5
linear solve U 460698
DICPBiCGStab:  Solving for p, Initial residual = 0.0322889, Final residual = 9.65208e-07, No Iterations 64
linear solve p 1531881
time step continuity errors : sum local = 6.06106e-10, global = -2.49282e-20, cumulative = -1.49549e-19
DICPBiCGStab:  Solving for p, Initial residual = 0.0261551, Final residual = 9.85297e-07, No Iterations 71
linear solve p 1749080
time step continuity errors : sum local = 6.88717e-10, global = 1.52687e-20, cumulative = -1.34281e-19
ExecutionTime = 61.44 s  ClockTime = 61 s

Time = 0.01125

Courant Number mean: 0.191496 max: 0.961204
DILUPBiCGStab:  Solving for Ux, Initial residual = 9.19489e-05, Final residual = 5.31429e-07, No Iterations 5
DILUPBiCGStab:  Solving for Uy, Initial residual = 0.000347505, Final residual = 1.99429e-06, No Iterations 5
DILUPBiCGStab:  Solving for Uz, Initial residual = 0.00075941, Final residual = 5.72216e-06, No Iterations 5
linear solve U 466849
DICPBiCGStab:  Solving for p, Initial residual = 0.0261614, Final residual = 9.46018e-07, No Iterations 112
linear solve p 2728327
time step continuity errors : sum local = 8.43173e-10, global = 1.84381e-20, cumulative = -1.15843e-19
DICPBiCGStab:  Solving for p, Initial residual = 0.0212338, Final residual = 5.10145e-07, No Iterations 63
linear solve p 1551080
time step continuity errors : sum local = 3.50282e-10, global = 1.15342e-20, cumulative = -1.04308e-19
ExecutionTime = 66.44 s  ClockTime = 66 s

Time = 0.0125

Courant Number mean: 0.191501 max: 0.961207
DILUPBiCGStab:  Solving for Ux, Initial residual = 7.50856e-05, Final residual = 5.22427e-07, No Iterations 5
DILUPBiCGStab:  Solving for Uy, Initial residual = 0.000274438, Final residual = 1.29783e-06, No Iterations 5
DILUPBiCGStab:  Solving for Uz, Initial residual = 0.000584925, Final residual = 4.74334e-06, No Iterations 5
linear solve U 466381
DICPBiCGStab:  Solving for p, Initial residual = 0.0213415, Final residual = 1.25492e-07, No Iterations 137
linear solve p 3263703
time step continuity errors : sum local = 6.8479e-11, global = -2.31853e-20, cumulative = -1.27494e-19
DICPBiCGStab:  Solving for p, Initial residual = 0.017385, Final residual = 5.64762e-07, No Iterations 132
linear solve p 3238927
time step continuity errors : sum local = 2.83711e-10, global = 5.65536e-20, cumulative = -7.094e-20
ExecutionTime = 73.68 s  ClockTime = 74 s

End

