/*---------------------------------------------------------------------------*\
  =========                 |
  \\      /  F ield         | OpenFOAM: The Open Source CFD Toolbox
   \\    /   O peration     | Website:  https://openfoam.org
    \\  /    A nd           | Version:  8
     \\/     M anipulation  |
\*---------------------------------------------------------------------------*/
Build  : 8-ef60d22ea792
Exec   : icoFoam
Date   : Sep 11 2021
Time   : 14:56:23
Host   : "uc2n442.localdomain"
PID    : 3724524
I/O    : uncollated
Case   : /pfs/data5/home/kit/scc/nq7776/data/code/OBR/lidDrivenCavity3D/Variation_init/100/Variation_mesh/35/Variation_matrix_solver/CG_DIC_Serial/1631364981
nProcs : 1
sigFpe : Enabling floating point exception trapping (FOAM_SIGFPE).
fileModificationChecking : Monitoring run-time modified files using timeStampMaster (fileModificationSkew 10)
allowSystemOperations : Allowing user-supplied system call operations

// * * * * * * * * * * * * * * * * * * * * * * * * * * * * * * * * * * * * * //
Create time

Create mesh for time = 0

Reading transportProperties

Reading field p

Reading field U

Reading/calculating face flux field phi


Starting time loop

Time = 0.00285714

Courant Number mean: 0.190911 max: 0.908567
DILUPBiCGStab:  Solving for Ux, Initial residual = 0.0505974, Final residual = 1.07894e-06, No Iterations 5
DILUPBiCGStab:  Solving for Uy, Initial residual = 0.0886223, Final residual = 3.41025e-06, No Iterations 5
DILUPBiCGStab:  Solving for Uz, Initial residual = 0.109411, Final residual = 1.20546e-05, No Iterations 5
linear solve U 32196
DICPCG:  Solving for p, Initial residual = 0.486126, Final residual = 8.61472e-07, No Iterations 91
linear solve p 66628
time step continuity errors : sum local = 2.69166e-09, global = -9.51489e-20, cumulative = -9.51489e-20
DICPCG:  Solving for p, Initial residual = 0.248641, Final residual = 7.72104e-07, No Iterations 91
linear solve p 67158
time step continuity errors : sum local = 1.89439e-09, global = 8.50924e-20, cumulative = -1.00565e-20
ExecutionTime = 0.41 s  ClockTime = 0 s

Time = 0.00571429

Courant Number mean: 0.190314 max: 0.910887
DILUPBiCGStab:  Solving for Ux, Initial residual = 0.00661151, Final residual = 3.58824e-06, No Iterations 5
DILUPBiCGStab:  Solving for Uy, Initial residual = 0.0135431, Final residual = 4.87533e-06, No Iterations 5
DILUPBiCGStab:  Solving for Uz, Initial residual = 0.0308813, Final residual = 1.20671e-05, No Iterations 5
linear solve U 29020
DICPCG:  Solving for p, Initial residual = 0.200803, Final residual = 9.42522e-07, No Iterations 90
linear solve p 65995
time step continuity errors : sum local = 2.24493e-09, global = 9.43805e-20, cumulative = 8.4324e-20
DICPCG:  Solving for p, Initial residual = 0.141539, Final residual = 6.38763e-07, No Iterations 90
linear solve p 65784
time step continuity errors : sum local = 1.51188e-09, global = 4.55882e-20, cumulative = 1.29912e-19
ExecutionTime = 0.59 s  ClockTime = 1 s

Time = 0.00857143

Courant Number mean: 0.190208 max: 0.910339
DILUPBiCGStab:  Solving for Ux, Initial residual = 0.00191689, Final residual = 9.78625e-07, No Iterations 5
DILUPBiCGStab:  Solving for Uy, Initial residual = 0.00463115, Final residual = 1.8286e-06, No Iterations 5
DILUPBiCGStab:  Solving for Uz, Initial residual = 0.0123624, Final residual = 2.97837e-06, No Iterations 5
linear solve U 29487
DICPCG:  Solving for p, Initial residual = 0.0916249, Final residual = 6.5378e-07, No Iterations 88
linear solve p 63776
time step continuity errors : sum local = 1.50739e-09, global = -4.6071e-20, cumulative = 8.38411e-20
DICPCG:  Solving for p, Initial residual = 0.065816, Final residual = 8.53106e-07, No Iterations 87
linear solve p 64051
time step continuity errors : sum local = 1.97119e-09, global = 5.06738e-20, cumulative = 1.34515e-19
ExecutionTime = 0.76 s  ClockTime = 1 s

Time = 0.0114286

Courant Number mean: 0.190301 max: 0.911286
DILUPBiCGStab:  Solving for Ux, Initial residual = 0.000755336, Final residual = 2.0494e-07, No Iterations 5
DILUPBiCGStab:  Solving for Uy, Initial residual = 0.00183489, Final residual = 3.96851e-07, No Iterations 5
DILUPBiCGStab:  Solving for Uz, Initial residual = 0.00487869, Final residual = 1.19587e-06, No Iterations 5
linear solve U 28643
DICPCG:  Solving for p, Initial residual = 0.0479582, Final residual = 7.35328e-07, No Iterations 86
linear solve p 62981
time step continuity errors : sum local = 1.6249e-09, global = 6.77193e-20, cumulative = 2.02234e-19
DICPCG:  Solving for p, Initial residual = 0.0341448, Final residual = 8.40036e-07, No Iterations 85
linear solve p 62495
time step continuity errors : sum local = 1.84692e-09, global = -6.79767e-21, cumulative = 1.95436e-19
ExecutionTime = 0.94 s  ClockTime = 1 s

Time = 0.0142857

Courant Number mean: 0.19029 max: 0.911194
DILUPBiCGStab:  Solving for Ux, Initial residual = 0.000356124, Final residual = 7.45571e-08, No Iterations 5
DILUPBiCGStab:  Solving for Uy, Initial residual = 0.000881854, Final residual = 1.60481e-07, No Iterations 5
DILUPBiCGStab:  Solving for Uz, Initial residual = 0.00222515, Final residual = 4.26384e-07, No Iterations 5
linear solve U 28374
DICPCG:  Solving for p, Initial residual = 0.0253808, Final residual = 9.84897e-07, No Iterations 83
linear solve p 60671
time step continuity errors : sum local = 2.16682e-09, global = 2.12963e-20, cumulative = 2.16733e-19
DICPCG:  Solving for p, Initial residual = 0.017788, Final residual = 8.02033e-07, No Iterations 83
linear solve p 61238
time step continuity errors : sum local = 1.76736e-09, global = 8.11964e-21, cumulative = 2.24852e-19
ExecutionTime = 1.11 s  ClockTime = 1 s

Time = 0.0171429

Courant Number mean: 0.190299 max: 0.91131
DILUPBiCGStab:  Solving for Ux, Initial residual = 0.000190214, Final residual = 4.5671e-08, No Iterations 5
DILUPBiCGStab:  Solving for Uy, Initial residual = 0.000453101, Final residual = 2.87958e-08, No Iterations 5
DILUPBiCGStab:  Solving for Uz, Initial residual = 0.00121215, Final residual = 2.26112e-07, No Iterations 5
linear solve U 28495
DICPCG:  Solving for p, Initial residual = 0.0139414, Final residual = 8.62081e-07, No Iterations 40
linear solve p 29917
time step continuity errors : sum local = 2.27891e-09, global = -5.0013e-20, cumulative = 1.74839e-19
DICPCG:  Solving for p, Initial residual = 0.00975637, Final residual = 8.63569e-07, No Iterations 39
linear solve p 29111
time step continuity errors : sum local = 2.02558e-09, global = -2.43131e-21, cumulative = 1.72408e-19
ExecutionTime = 1.22 s  ClockTime = 1 s

Time = 0.02

Courant Number mean: 0.190298 max: 0.911278
DILUPBiCGStab:  Solving for Ux, Initial residual = 0.000106041, Final residual = 1.57901e-08, No Iterations 5
DILUPBiCGStab:  Solving for Uy, Initial residual = 0.000242735, Final residual = 2.87963e-08, No Iterations 5
DILUPBiCGStab:  Solving for Uz, Initial residual = 0.000691617, Final residual = 1.32792e-07, No Iterations 5
linear solve U 28517
DICPCG:  Solving for p, Initial residual = 0.00780452, Final residual = 8.52382e-07, No Iterations 37
linear solve p 27547
time step continuity errors : sum local = 2.12224e-09, global = 1.33268e-20, cumulative = 1.85735e-19
DICPCG:  Solving for p, Initial residual = 0.00544887, Final residual = 9.47233e-07, No Iterations 35
linear solve p 26455
time step continuity errors : sum local = 2.10584e-09, global = -1.45084e-19, cumulative = 4.06514e-20
ExecutionTime = 1.32 s  ClockTime = 1 s

Time = 0.0228571

Courant Number mean: 0.190301 max: 0.911306
DILUPBiCGStab:  Solving for Ux, Initial residual = 6.17843e-05, Final residual = 1.0185e-08, No Iterations 5
DILUPBiCGStab:  Solving for Uy, Initial residual = 0.00013564, Final residual = 2.26739e-08, No Iterations 5
DILUPBiCGStab:  Solving for Uz, Initial residual = 0.000417399, Final residual = 8.9678e-08, No Iterations 5
linear solve U 28754
DICPCG:  Solving for p, Initial residual = 0.00444509, Final residual = 8.35455e-07, No Iterations 35
linear solve p 26576
time step continuity errors : sum local = 2.19392e-09, global = -7.79295e-20, cumulative = -3.72781e-20
DICPCG:  Solving for p, Initial residual = 0.0031186, Final residual = 8.31905e-07, No Iterations 34
linear solve p 25621
time step continuity errors : sum local = 1.95269e-09, global = 4.41221e-20, cumulative = 6.84395e-21
ExecutionTime = 1.42 s  ClockTime = 1 s

Time = 0.0257143

Courant Number mean: 0.190303 max: 0.911295
DILUPBiCGStab:  Solving for Ux, Initial residual = 3.68598e-05, Final residual = 6.09755e-09, No Iterations 5
DILUPBiCGStab:  Solving for Uy, Initial residual = 7.70123e-05, Final residual = 1.56089e-08, No Iterations 5
DILUPBiCGStab:  Solving for Uz, Initial residual = 0.000278408, Final residual = 6.70132e-08, No Iterations 5
linear solve U 28659
DICPCG:  Solving for p, Initial residual = 0.00255794, Final residual = 8.52882e-07, No Iterations 30
linear solve p 22596
time step continuity errors : sum local = 2.09559e-09, global = 1.55051e-20, cumulative = 2.23491e-20
DICPCG:  Solving for p, Initial residual = 0.00180302, Final residual = 7.60933e-07, No Iterations 30
linear solve p 23064
time step continuity errors : sum local = 1.6868e-09, global = -6.5039e-20, cumulative = -4.269e-20
ExecutionTime = 1.52 s  ClockTime = 1 s

Time = 0.0285714

Courant Number mean: 0.190305 max: 0.911303
DILUPBiCGStab:  Solving for Ux, Initial residual = 2.31321e-05, Final residual = 4.17681e-09, No Iterations 5
DILUPBiCGStab:  Solving for Uy, Initial residual = 4.57971e-05, Final residual = 8.76663e-09, No Iterations 5
DILUPBiCGStab:  Solving for Uz, Initial residual = 0.000178783, Final residual = 4.3574e-08, No Iterations 5
linear solve U 28383
DICPCG:  Solving for p, Initial residual = 0.00148198, Final residual = 8.34639e-07, No Iterations 32
linear solve p 24210
time step continuity errors : sum local = 2.1373e-09, global = 1.15562e-19, cumulative = 7.28725e-20
DICPCG:  Solving for p, Initial residual = 0.0010505, Final residual = 9.30724e-07, No Iterations 30
linear solve p 22638
time step continuity errors : sum local = 2.15464e-09, global = 4.61785e-20, cumulative = 1.19051e-19
ExecutionTime = 1.61 s  ClockTime = 2 s

End

