/*---------------------------------------------------------------------------*\
  =========                 |
  \\      /  F ield         | OpenFOAM: The Open Source CFD Toolbox
   \\    /   O peration     | Website:  https://openfoam.org
    \\  /    A nd           | Version:  8
     \\/     M anipulation  |
\*---------------------------------------------------------------------------*/
Build  : 8-ef60d22ea792
Exec   : icoFoam
Date   : Sep 11 2021
Time   : 14:36:39
Host   : "uc2n513.localdomain"
PID    : 229497
I/O    : uncollated
Case   : /pfs/data5/home/kit/scc/nq7776/data/code/OBR/lidDrivenCavity3D/Variation_init/100/Variation_mesh/10/Variation_matrix_solver/IR_NoPrecond_CUDA/1631363797
nProcs : 1
sigFpe : Enabling floating point exception trapping (FOAM_SIGFPE).
fileModificationChecking : Monitoring run-time modified files using timeStampMaster (fileModificationSkew 10)
allowSystemOperations : Allowing user-supplied system call operations

// * * * * * * * * * * * * * * * * * * * * * * * * * * * * * * * * * * * * * //
Create time

Create mesh for time = 0

Reading transportProperties

Reading field p

Reading field U

Reading/calculating face flux field phi


Starting time loop

Time = 0.01

Courant Number mean: 0.184879 max: 0.722295
DILUPBiCGStab:  Solving for Ux, Initial residual = 0.138471, Final residual = 2.65068e-09, No Iterations 5
DILUPBiCGStab:  Solving for Uy, Initial residual = 0.150118, Final residual = 5.88061e-10, No Iterations 5
DILUPBiCGStab:  Solving for Uz, Initial residual = 0.278898, Final residual = 3.06847e-09, No Iterations 5
linear solve U 795
[OGL LOG] init_host_sparsity_pattern : 0 ms
[OGL LOG] matrix not stored update host matrix
[OGL LOG] update_host_mtx : 0 ms
[OGL LOG] matrix is not yet sorted, compute sorting idxs
[OGL LOG] compute_sort : 5 ms
[OGL LOG] matrix is not yet sorted, sorting host matrix
[OGL LOG] sort_host_mtx_sparsity_pattern : 0 ms
[OGL LOG] sort_host_mtx : 0 ms
[OGL LOG] init_preconditioner : 0 ms
[OGL LOG] solve : 13 ms
nonecudaGKOIR:  Solving for p, Initial residual = 0.615468, Final residual = 9.29811e-07, No Iterations 3
linear solve p 734138
time step continuity errors : sum local = 3.03743e-08, global = -1.53347e-19, cumulative = -1.53347e-19
[OGL LOG] init_preconditioner : 0 ms
[OGL LOG] solve : 13 ms
nonecudaGKOIR:  Solving for p, Initial residual = 0.309181, Final residual = 5.02078e-07, No Iterations 3
linear solve p 13368
time step continuity errors : sum local = 9.82624e-09, global = 3.25922e-19, cumulative = 1.72575e-19
ExecutionTime = 0.78 s  ClockTime = 1 s

Time = 0.02

Courant Number mean: 0.181259 max: 0.69519
DILUPBiCGStab:  Solving for Ux, Initial residual = 0.0298072, Final residual = 1.18556e-09, No Iterations 5
DILUPBiCGStab:  Solving for Uy, Initial residual = 0.0402524, Final residual = 4.76418e-09, No Iterations 5
DILUPBiCGStab:  Solving for Uz, Initial residual = 0.0940025, Final residual = 1.11477e-09, No Iterations 5
linear solve U 556
[OGL LOG] init_preconditioner : 0 ms
[OGL LOG] solve : 13 ms
nonecudaGKOIR:  Solving for p, Initial residual = 0.144568, Final residual = 1.69701e-07, No Iterations 3
linear solve p 13789
time step continuity errors : sum local = 2.73959e-05, global = -3.51783e-19, cumulative = -1.79209e-19
[OGL LOG] init_preconditioner : 0 ms
[OGL LOG] solve : 13 ms
nonecudaGKOIR:  Solving for p, Initial residual = 0.0646378, Final residual = 6.61841e-08, No Iterations 3
linear solve p 13974
time step continuity errors : sum local = 2.45281e-05, global = -1.44624e-19, cumulative = -3.23833e-19
ExecutionTime = 0.81 s  ClockTime = 1 s

Time = 0.03

Courant Number mean: 0.179525 max: 0.686072
DILUPBiCGStab:  Solving for Ux, Initial residual = 0.00445946, Final residual = 1.13203e-10, No Iterations 5
DILUPBiCGStab:  Solving for Uy, Initial residual = 0.00704944, Final residual = 8.17629e-10, No Iterations 5
DILUPBiCGStab:  Solving for Uz, Initial residual = 0.0284287, Final residual = 1.45637e-09, No Iterations 5
linear solve U 549
[OGL LOG] init_preconditioner : 0 ms
[OGL LOG] solve : 12 ms
nonecudaGKOIR:  Solving for p, Initial residual = 0.0147298, Final residual = 1.81867e-08, No Iterations 3
linear solve p 12934
time step continuity errors : sum local = 2.44094e-05, global = 6.07217e-19, cumulative = 2.83384e-19
[OGL LOG] init_preconditioner : 0 ms
[OGL LOG] solve : 10 ms
nonecudaGKOIR:  Solving for p, Initial residual = 0.0067204, Final residual = 4.21146e-07, No Iterations 2
linear solve p 10399
time step continuity errors : sum local = 2.44006e-05, global = 2.34919e-19, cumulative = 5.18303e-19
ExecutionTime = 0.83 s  ClockTime = 1 s

Time = 0.04

Courant Number mean: 0.178874 max: 0.683124
DILUPBiCGStab:  Solving for Ux, Initial residual = 0.00128751, Final residual = 3.61074e-11, No Iterations 5
DILUPBiCGStab:  Solving for Uy, Initial residual = 0.00194446, Final residual = 2.43394e-09, No Iterations 5
DILUPBiCGStab:  Solving for Uz, Initial residual = 0.00913913, Final residual = 3.83515e-10, No Iterations 5
linear solve U 544
[OGL LOG] init_preconditioner : 0 ms
[OGL LOG] solve : 10 ms
nonecudaGKOIR:  Solving for p, Initial residual = 0.00287208, Final residual = 3.11254e-07, No Iterations 2
linear solve p 10541
time step continuity errors : sum local = 2.44707e-05, global = -2.78131e-19, cumulative = 2.40172e-19
[OGL LOG] init_preconditioner : 0 ms
[OGL LOG] solve : 10 ms
nonecudaGKOIR:  Solving for p, Initial residual = 0.00179625, Final residual = 1.63209e-07, No Iterations 2
linear solve p 10564
time step continuity errors : sum local = 2.44207e-05, global = -3.49203e-19, cumulative = -1.09031e-19
ExecutionTime = 0.85 s  ClockTime = 1 s

Time = 0.05

Courant Number mean: 0.178608 max: 0.682133
DILUPBiCGStab:  Solving for Ux, Initial residual = 0.000452232, Final residual = 9.80695e-12, No Iterations 5
DILUPBiCGStab:  Solving for Uy, Initial residual = 0.000695798, Final residual = 2.2653e-09, No Iterations 5
DILUPBiCGStab:  Solving for Uz, Initial residual = 0.00435345, Final residual = 1.51963e-10, No Iterations 5
linear solve U 549
[OGL LOG] init_preconditioner : 0 ms
[OGL LOG] solve : 10 ms
nonecudaGKOIR:  Solving for p, Initial residual = 0.00105388, Final residual = 8.73405e-08, No Iterations 2
linear solve p 10655
time step continuity errors : sum local = 2.44353e-05, global = 4.64545e-20, cumulative = -6.25762e-20
[OGL LOG] init_preconditioner : 0 ms
[OGL LOG] solve : 10 ms
nonecudaGKOIR:  Solving for p, Initial residual = 0.000625821, Final residual = 4.36575e-08, No Iterations 2
linear solve p 10704
time step continuity errors : sum local = 2.44233e-05, global = -2.06994e-19, cumulative = -2.6957e-19
ExecutionTime = 0.88 s  ClockTime = 1 s

Time = 0.06

Courant Number mean: 0.178489 max: 0.681727
DILUPBiCGStab:  Solving for Ux, Initial residual = 0.000193829, Final residual = 3.42761e-12, No Iterations 5
DILUPBiCGStab:  Solving for Uy, Initial residual = 0.000279325, Final residual = 8.78564e-11, No Iterations 5
DILUPBiCGStab:  Solving for Uz, Initial residual = 0.00217702, Final residual = 5.77691e-11, No Iterations 5
linear solve U 542
[OGL LOG] init_preconditioner : 0 ms
[OGL LOG] solve : 10 ms
nonecudaGKOIR:  Solving for p, Initial residual = 0.000423329, Final residual = 4.63128e-08, No Iterations 2
linear solve p 10474
time step continuity errors : sum local = 2.44291e-05, global = 4.08826e-19, cumulative = 1.39256e-19
[OGL LOG] init_preconditioner : 0 ms
[OGL LOG] solve : 10 ms
nonecudaGKOIR:  Solving for p, Initial residual = 0.000263209, Final residual = 2.53314e-08, No Iterations 2
linear solve p 10603
time step continuity errors : sum local = 2.44246e-05, global = 2.16953e-19, cumulative = 3.56209e-19
ExecutionTime = 0.9 s  ClockTime = 1 s

Time = 0.07

Courant Number mean: 0.178435 max: 0.68156
DILUPBiCGStab:  Solving for Ux, Initial residual = 9.15799e-05, Final residual = 1.03914e-12, No Iterations 5
DILUPBiCGStab:  Solving for Uy, Initial residual = 0.000124791, Final residual = 1.54772e-10, No Iterations 5
DILUPBiCGStab:  Solving for Uz, Initial residual = 0.00112212, Final residual = 2.50638e-11, No Iterations 5
linear solve U 550
[OGL LOG] init_preconditioner : 0 ms
[OGL LOG] solve : 10 ms
nonecudaGKOIR:  Solving for p, Initial residual = 0.000192738, Final residual = 1.7399e-08, No Iterations 2
linear solve p 10768
time step continuity errors : sum local = 2.44269e-05, global = 2.19037e-20, cumulative = 3.78113e-19
[OGL LOG] init_preconditioner : 0 ms
[OGL LOG] solve : 7 ms
nonecudaGKOIR:  Solving for p, Initial residual = 0.000117872, Final residual = 8.34397e-07, No Iterations 1
linear solve p 7362
time step continuity errors : sum local = 2.44258e-05, global = -3.58798e-19, cumulative = 1.93147e-20
ExecutionTime = 0.92 s  ClockTime = 1 s

Time = 0.08

Courant Number mean: 0.178409 max: 0.681485
DILUPBiCGStab:  Solving for Ux, Initial residual = 4.53338e-05, Final residual = 3.55079e-13, No Iterations 5
DILUPBiCGStab:  Solving for Uy, Initial residual = 5.91958e-05, Final residual = 6.07494e-12, No Iterations 5
DILUPBiCGStab:  Solving for Uz, Initial residual = 0.000588097, Final residual = 1.20387e-11, No Iterations 5
linear solve U 541
[OGL LOG] init_preconditioner : 0 ms
[OGL LOG] solve : 10 ms
nonecudaGKOIR:  Solving for p, Initial residual = 9.36476e-05, Final residual = 9.13882e-09, No Iterations 2
linear solve p 10930
time step continuity errors : sum local = 2.44261e-05, global = 8.99973e-20, cumulative = 1.09312e-19
[OGL LOG] init_preconditioner : 0 ms
[OGL LOG] solve : 7 ms
nonecudaGKOIR:  Solving for p, Initial residual = 5.77205e-05, Final residual = 3.94994e-07, No Iterations 1
linear solve p 7427
time step continuity errors : sum local = 2.44262e-05, global = 1.61466e-20, cumulative = 1.25458e-19
ExecutionTime = 0.94 s  ClockTime = 1 s

Time = 0.09

Courant Number mean: 0.178396 max: 0.681452
DILUPBiCGStab:  Solving for Ux, Initial residual = 2.28272e-05, Final residual = 1.27582e-13, No Iterations 5
DILUPBiCGStab:  Solving for Uy, Initial residual = 2.90551e-05, Final residual = 2.06056e-12, No Iterations 5
DILUPBiCGStab:  Solving for Uz, Initial residual = 0.000308504, Final residual = 6.00604e-12, No Iterations 5
linear solve U 548
[OGL LOG] init_preconditioner : 0 ms
[OGL LOG] solve : 4 ms
nonecudaGKOIR:  Solving for p, Initial residual = 4.60656e-05, Final residual = 5.02848e-07, No Iterations 1
linear solve p 4220
time step continuity errors : sum local = 2.44305e-05, global = 4.41251e-19, cumulative = 5.6671e-19
[OGL LOG] init_preconditioner : 0 ms
[OGL LOG] solve : 3 ms
nonecudaGKOIR:  Solving for p, Initial residual = 2.8383e-05, Final residual = 2.99358e-07, No Iterations 1
linear solve p 3977
time step continuity errors : sum local = 2.44277e-05, global = -3.03807e-19, cumulative = 2.62903e-19
ExecutionTime = 0.95 s  ClockTime = 1 s

Time = 0.1

Courant Number mean: 0.17839 max: 0.681436
DILUPBiCGStab:  Solving for Ux, Initial residual = 1.16425e-05, Final residual = 5.269e-14, No Iterations 5
DILUPBiCGStab:  Solving for Uy, Initial residual = 1.45726e-05, Final residual = 8.8988e-13, No Iterations 5
DILUPBiCGStab:  Solving for Uz, Initial residual = 0.000162258, Final residual = 3.06681e-12, No Iterations 5
linear solve U 546
[OGL LOG] init_preconditioner : 0 ms
[OGL LOG] solve : 7 ms
nonecudaGKOIR:  Solving for p, Initial residual = 2.31745e-05, Final residual = 2.24037e-07, No Iterations 1
linear solve p 7277
time step continuity errors : sum local = 2.44254e-05, global = -3.03013e-19, cumulative = -4.011e-20
[OGL LOG] init_preconditioner : 0 ms
[OGL LOG] solve : 7 ms
nonecudaGKOIR:  Solving for p, Initial residual = 1.42007e-05, Final residual = 1.16576e-07, No Iterations 1
linear solve p 7278
time step continuity errors : sum local = 2.44258e-05, global = 5.14374e-19, cumulative = 4.74264e-19
ExecutionTime = 0.96 s  ClockTime = 1 s

End

