/*---------------------------------------------------------------------------*\
  =========                 |
  \\      /  F ield         | OpenFOAM: The Open Source CFD Toolbox
   \\    /   O peration     | Website:  https://openfoam.org
    \\  /    A nd           | Version:  8
     \\/     M anipulation  |
\*---------------------------------------------------------------------------*/
Build  : 8-ef60d22ea792
Exec   : icoFoam
Date   : Sep 11 2021
Time   : 13:51:28
Host   : "uc2n513.localdomain"
PID    : 221407
I/O    : uncollated
Case   : /pfs/data5/home/kit/scc/nq7776/data/code/OBR/lidDrivenCavity3D/Variation_init/100/Variation_mesh/25/Variation_matrix_solver/BiCGStab_NoPrecond_CUDA/1631361085
nProcs : 1
sigFpe : Enabling floating point exception trapping (FOAM_SIGFPE).
fileModificationChecking : Monitoring run-time modified files using timeStampMaster (fileModificationSkew 10)
allowSystemOperations : Allowing user-supplied system call operations

// * * * * * * * * * * * * * * * * * * * * * * * * * * * * * * * * * * * * * //
Create time

Create mesh for time = 0

Reading transportProperties

Reading field p

Reading field U

Reading/calculating face flux field phi


Starting time loop

Time = 0.004

Courant Number mean: 0.190206 max: 0.902763
DILUPBiCGStab:  Solving for Ux, Initial residual = 0.141566, Final residual = 7.19632e-07, No Iterations 5
DILUPBiCGStab:  Solving for Uy, Initial residual = 0.199843, Final residual = 1.48111e-06, No Iterations 5
DILUPBiCGStab:  Solving for Uz, Initial residual = 0.419047, Final residual = 6.53558e-06, No Iterations 5
linear solve U 11204
[OGL LOG] init_host_sparsity_pattern : 4 ms
[OGL LOG] matrix not stored update host matrix
[OGL LOG] update_host_mtx : 1 ms
[OGL LOG] matrix is not yet sorted, compute sorting idxs
[OGL LOG] compute_sort : 105 ms
[OGL LOG] matrix is not yet sorted, sorting host matrix
[OGL LOG] sort_host_mtx_sparsity_pattern : 2 ms
[OGL LOG] sort_host_mtx : 1 ms
[OGL LOG] init_preconditioner : 0 ms
[OGL LOG] solve : 49 ms
nonecudaGKOBiCGStab:  Solving for p, Initial residual = 0.573274, Final residual = 9.69216e-07, No Iterations 175
linear solve p 892639
time step continuity errors : sum local = 1.34705e-08, global = 4.41128e-20, cumulative = 4.41128e-20
[OGL LOG] init_preconditioner : 0 ms
[OGL LOG] solve : 48 ms
nonecudaGKOBiCGStab:  Solving for p, Initial residual = 0.280701, Final residual = 9.92251e-07, No Iterations 176
linear solve p 49434
time step continuity errors : sum local = 8.80029e-09, global = 9.02573e-20, cumulative = 1.3437e-19
ExecutionTime = 1.06 s  ClockTime = 1 s

Time = 0.008

Courant Number mean: 0.189744 max: 0.879561
DILUPBiCGStab:  Solving for Ux, Initial residual = 0.0127398, Final residual = 6.9026e-07, No Iterations 5
DILUPBiCGStab:  Solving for Uy, Initial residual = 0.0199774, Final residual = 1.27334e-06, No Iterations 5
DILUPBiCGStab:  Solving for Uz, Initial residual = 0.0739782, Final residual = 3.74705e-06, No Iterations 5
linear solve U 9693
[OGL LOG] init_preconditioner : 0 ms
[OGL LOG] solve : 47 ms
nonecudaGKOBiCGStab:  Solving for p, Initial residual = 0.180382, Final residual = 9.67067e-07, No Iterations 172
linear solve p 48308
time step continuity errors : sum local = 3.31696e-06, global = -1.35029e-20, cumulative = 1.20867e-19
[OGL LOG] init_preconditioner : 0 ms
[OGL LOG] solve : 46 ms
nonecudaGKOBiCGStab:  Solving for p, Initial residual = 0.106375, Final residual = 9.72697e-07, No Iterations 169
linear solve p 47387
time step continuity errors : sum local = 3.0665e-06, global = 2.70339e-20, cumulative = 1.47901e-19
ExecutionTime = 1.16 s  ClockTime = 1 s

Time = 0.012

Courant Number mean: 0.189395 max: 0.876756
DILUPBiCGStab:  Solving for Ux, Initial residual = 0.00162325, Final residual = 1.27729e-07, No Iterations 5
DILUPBiCGStab:  Solving for Uy, Initial residual = 0.00313145, Final residual = 2.49124e-07, No Iterations 5
DILUPBiCGStab:  Solving for Uz, Initial residual = 0.0223526, Final residual = 1.00009e-06, No Iterations 5
linear solve U 9750
[OGL LOG] init_preconditioner : 0 ms
[OGL LOG] solve : 42 ms
nonecudaGKOBiCGStab:  Solving for p, Initial residual = 0.0483462, Final residual = 7.74522e-07, No Iterations 152
linear solve p 42892
time step continuity errors : sum local = 3.03002e-06, global = 1.33398e-19, cumulative = 2.81299e-19
[OGL LOG] init_preconditioner : 0 ms
[OGL LOG] solve : 42 ms
nonecudaGKOBiCGStab:  Solving for p, Initial residual = 0.031832, Final residual = 8.1002e-07, No Iterations 153
linear solve p 43144
time step continuity errors : sum local = 3.05097e-06, global = -4.81733e-20, cumulative = 2.33126e-19
ExecutionTime = 1.27 s  ClockTime = 1 s

Time = 0.016

Courant Number mean: 0.189204 max: 0.876129
DILUPBiCGStab:  Solving for Ux, Initial residual = 0.000630163, Final residual = 5.03801e-08, No Iterations 5
DILUPBiCGStab:  Solving for Uy, Initial residual = 0.000837647, Final residual = 5.13869e-08, No Iterations 5
DILUPBiCGStab:  Solving for Uz, Initial residual = 0.00466602, Final residual = 2.0873e-07, No Iterations 5
linear solve U 9640
[OGL LOG] init_preconditioner : 0 ms
[OGL LOG] solve : 40 ms
nonecudaGKOBiCGStab:  Solving for p, Initial residual = 0.0180264, Final residual = 8.58291e-07, No Iterations 133
linear solve p 40803
time step continuity errors : sum local = 3.06202e-06, global = -1.49141e-20, cumulative = 2.18211e-19
[OGL LOG] init_preconditioner : 0 ms
[OGL LOG] solve : 33 ms
nonecudaGKOBiCGStab:  Solving for p, Initial residual = 0.0122861, Final residual = 9.79972e-07, No Iterations 120
linear solve p 33995
time step continuity errors : sum local = 3.05453e-06, global = -2.70141e-20, cumulative = 1.91197e-19
ExecutionTime = 1.35 s  ClockTime = 1 s

Time = 0.02

Courant Number mean: 0.189124 max: 0.875978
DILUPBiCGStab:  Solving for Ux, Initial residual = 0.000280505, Final residual = 1.95505e-08, No Iterations 5
DILUPBiCGStab:  Solving for Uy, Initial residual = 0.000380009, Final residual = 2.29338e-08, No Iterations 5
DILUPBiCGStab:  Solving for Uz, Initial residual = 0.00234222, Final residual = 1.18486e-07, No Iterations 5
linear solve U 9720
[OGL LOG] init_preconditioner : 0 ms
[OGL LOG] solve : 39 ms
nonecudaGKOBiCGStab:  Solving for p, Initial residual = 0.00784636, Final residual = 8.62534e-07, No Iterations 141
linear solve p 39794
time step continuity errors : sum local = 3.05229e-06, global = 1.41787e-19, cumulative = 3.32984e-19
[OGL LOG] init_preconditioner : 0 ms
[OGL LOG] solve : 37 ms
nonecudaGKOBiCGStab:  Solving for p, Initial residual = 0.00548256, Final residual = 9.65136e-07, No Iterations 134
linear solve p 37785
time step continuity errors : sum local = 3.0539e-06, global = 1.02153e-19, cumulative = 4.35138e-19
ExecutionTime = 1.45 s  ClockTime = 1 s

Time = 0.024

Courant Number mean: 0.189076 max: 0.875913
DILUPBiCGStab:  Solving for Ux, Initial residual = 0.000155701, Final residual = 1.00063e-08, No Iterations 5
DILUPBiCGStab:  Solving for Uy, Initial residual = 0.000192161, Final residual = 1.26074e-08, No Iterations 5
DILUPBiCGStab:  Solving for Uz, Initial residual = 0.00113854, Final residual = 7.64364e-08, No Iterations 5
linear solve U 9582
[OGL LOG] init_preconditioner : 0 ms
[OGL LOG] solve : 32 ms
nonecudaGKOBiCGStab:  Solving for p, Initial residual = 0.00362657, Final residual = 9.34266e-07, No Iterations 115
linear solve p 32554
time step continuity errors : sum local = 3.05526e-06, global = -8.65429e-20, cumulative = 3.48595e-19
[OGL LOG] init_preconditioner : 0 ms
[OGL LOG] solve : 16 ms
nonecudaGKOBiCGStab:  Solving for p, Initial residual = 0.0025619, Final residual = 7.99367e-07, No Iterations 56
linear solve p 16683
time step continuity errors : sum local = 3.05344e-06, global = 4.4461e-20, cumulative = 3.93056e-19
ExecutionTime = 1.52 s  ClockTime = 1 s

Time = 0.028

Courant Number mean: 0.189051 max: 0.875863
DILUPBiCGStab:  Solving for Ux, Initial residual = 8.69451e-05, Final residual = 5.12159e-09, No Iterations 5
DILUPBiCGStab:  Solving for Uy, Initial residual = 0.000124236, Final residual = 6.65502e-09, No Iterations 5
DILUPBiCGStab:  Solving for Uz, Initial residual = 0.000779501, Final residual = 4.07842e-08, No Iterations 5
linear solve U 9600
[OGL LOG] init_preconditioner : 0 ms
[OGL LOG] solve : 32 ms
nonecudaGKOBiCGStab:  Solving for p, Initial residual = 0.00173122, Final residual = 9.00683e-07, No Iterations 116
linear solve p 32791
time step continuity errors : sum local = 3.05383e-06, global = 5.44004e-20, cumulative = 4.47456e-19
[OGL LOG] init_preconditioner : 0 ms
[OGL LOG] solve : 16 ms
nonecudaGKOBiCGStab:  Solving for p, Initial residual = 0.00123502, Final residual = 9.998e-07, No Iterations 58
linear solve p 17060
time step continuity errors : sum local = 3.05424e-06, global = 7.19713e-20, cumulative = 5.19428e-19
ExecutionTime = 1.58 s  ClockTime = 1 s

Time = 0.032

Courant Number mean: 0.189036 max: 0.875835
DILUPBiCGStab:  Solving for Ux, Initial residual = 5.53807e-05, Final residual = 2.66768e-09, No Iterations 5
DILUPBiCGStab:  Solving for Uy, Initial residual = 7.77674e-05, Final residual = 4.4267e-09, No Iterations 5
DILUPBiCGStab:  Solving for Uz, Initial residual = 0.000497314, Final residual = 3.36219e-08, No Iterations 5
linear solve U 9948
[OGL LOG] init_preconditioner : 0 ms
[OGL LOG] solve : 30 ms
nonecudaGKOBiCGStab:  Solving for p, Initial residual = 0.000874494, Final residual = 9.97927e-07, No Iterations 108
linear solve p 30691
time step continuity errors : sum local = 3.05351e-06, global = 7.08795e-20, cumulative = 5.90307e-19
[OGL LOG] init_preconditioner : 0 ms
[OGL LOG] solve : 28 ms
nonecudaGKOBiCGStab:  Solving for p, Initial residual = 0.000628768, Final residual = 9.66217e-07, No Iterations 101
linear solve p 28850
time step continuity errors : sum local = 3.05426e-06, global = -5.16756e-20, cumulative = 5.38631e-19
ExecutionTime = 1.65 s  ClockTime = 1 s

Time = 0.036

Courant Number mean: 0.189028 max: 0.875816
DILUPBiCGStab:  Solving for Ux, Initial residual = 3.37273e-05, Final residual = 1.95991e-09, No Iterations 5
DILUPBiCGStab:  Solving for Uy, Initial residual = 5.62834e-05, Final residual = 1.76403e-09, No Iterations 5
DILUPBiCGStab:  Solving for Uz, Initial residual = 0.000417618, Final residual = 2.68936e-08, No Iterations 5
linear solve U 9610
[OGL LOG] init_preconditioner : 0 ms
[OGL LOG] solve : 38 ms
nonecudaGKOBiCGStab:  Solving for p, Initial residual = 0.000440516, Final residual = 9.79252e-07, No Iterations 129
linear solve p 39201
time step continuity errors : sum local = 3.05115e-06, global = 3.87154e-20, cumulative = 5.77347e-19
[OGL LOG] init_preconditioner : 0 ms
[OGL LOG] solve : 35 ms
nonecudaGKOBiCGStab:  Solving for p, Initial residual = 0.000318974, Final residual = 3.63647e-07, No Iterations 122
linear solve p 35593
time step continuity errors : sum local = 3.05107e-06, global = 1.75222e-19, cumulative = 7.52569e-19
ExecutionTime = 1.74 s  ClockTime = 1 s

Time = 0.04

Courant Number mean: 0.189023 max: 0.875804
DILUPBiCGStab:  Solving for Ux, Initial residual = 2.34347e-05, Final residual = 1.32823e-09, No Iterations 5
DILUPBiCGStab:  Solving for Uy, Initial residual = 3.69036e-05, Final residual = 1.62808e-09, No Iterations 5
DILUPBiCGStab:  Solving for Uz, Initial residual = 0.000252687, Final residual = 1.51801e-08, No Iterations 5
linear solve U 10042
[OGL LOG] init_preconditioner : 0 ms
[OGL LOG] solve : 28 ms
nonecudaGKOBiCGStab:  Solving for p, Initial residual = 0.000232638, Final residual = 9.56798e-07, No Iterations 101
linear solve p 29187
time step continuity errors : sum local = 3.05441e-06, global = 5.95239e-20, cumulative = 8.12092e-19
[OGL LOG] init_preconditioner : 0 ms
[OGL LOG] solve : 13 ms
nonecudaGKOBiCGStab:  Solving for p, Initial residual = 0.00016949, Final residual = 9.74818e-07, No Iterations 46
linear solve p 13802
time step continuity errors : sum local = 3.05221e-06, global = 1.34561e-19, cumulative = 9.46653e-19
ExecutionTime = 1.81 s  ClockTime = 1 s

End

