/*---------------------------------------------------------------------------*\
  =========                 |
  \\      /  F ield         | OpenFOAM: The Open Source CFD Toolbox
   \\    /   O peration     | Website:  https://openfoam.org
    \\  /    A nd           | Version:  8
     \\/     M anipulation  |
\*---------------------------------------------------------------------------*/
Build  : 8-ef60d22ea792
Exec   : icoFoam
Date   : Sep 11 2021
Time   : 14:42:19
Host   : "uc2n513.localdomain"
PID    : 233017
I/O    : uncollated
Case   : /pfs/data5/home/kit/scc/nq7776/data/code/OBR/lidDrivenCavity3D/Variation_init/100/Variation_mesh/60/Variation_matrix_solver/BiCGStab_NoPrecond_CUDA/1631364129
nProcs : 1
sigFpe : Enabling floating point exception trapping (FOAM_SIGFPE).
fileModificationChecking : Monitoring run-time modified files using timeStampMaster (fileModificationSkew 10)
allowSystemOperations : Allowing user-supplied system call operations

// * * * * * * * * * * * * * * * * * * * * * * * * * * * * * * * * * * * * * //
Create time

Create mesh for time = 0

Reading transportProperties

Reading field p

Reading field U

Reading/calculating face flux field phi


Starting time loop

Time = 0.00166667

Courant Number mean: 0.191334 max: 0.95794
DILUPBiCGStab:  Solving for Ux, Initial residual = 0.0784069, Final residual = 7.98028e-06, No Iterations 5
DILUPBiCGStab:  Solving for Uy, Initial residual = 0.151717, Final residual = 1.9553e-05, No Iterations 5
DILUPBiCGStab:  Solving for Uz, Initial residual = 0.170934, Final residual = 5.87202e-05, No Iterations 5
linear solve U 210867
[OGL LOG] init_host_sparsity_pattern : 60 ms
[OGL LOG] matrix not stored update host matrix
[OGL LOG] update_host_mtx : 31 ms
[OGL LOG] matrix is not yet sorted, compute sorting idxs
[OGL LOG] compute_sort : 1761 ms
[OGL LOG] matrix is not yet sorted, sorting host matrix
[OGL LOG] sort_host_mtx_sparsity_pattern : 40 ms
[OGL LOG] sort_host_mtx : 22 ms
[OGL LOG] init_preconditioner : 0 ms
[OGL LOG] solve : 282 ms
nonecudaGKOBiCGStab:  Solving for p, Initial residual = 0.575692, Final residual = 9.97652e-07, No Iterations 414
linear solve p 2941476
time step continuity errors : sum local = 7.93281e-08, global = -4.86953e-20, cumulative = -4.86953e-20
[OGL LOG] init_preconditioner : 0 ms
[OGL LOG] solve : 248 ms
nonecudaGKOBiCGStab:  Solving for p, Initial residual = 0.29547, Final residual = 8.56915e-07, No Iterations 369
linear solve p 254710
time step continuity errors : sum local = 1.0587e-05, global = 3.49334e-20, cumulative = -1.37618e-20
ExecutionTime = 4.48 s  ClockTime = 4 s

Time = 0.00333333

Courant Number mean: 0.19128 max: 0.948742
DILUPBiCGStab:  Solving for Ux, Initial residual = 0.00518972, Final residual = 4.52447e-06, No Iterations 5
DILUPBiCGStab:  Solving for Uy, Initial residual = 0.0106615, Final residual = 7.87811e-06, No Iterations 5
DILUPBiCGStab:  Solving for Uz, Initial residual = 0.0325713, Final residual = 0.000236616, No Iterations 5
linear solve U 191495
[OGL LOG] init_preconditioner : 0 ms
[OGL LOG] solve : 253 ms
nonecudaGKOBiCGStab:  Solving for p, Initial residual = 0.195821, Final residual = 4.70673e-07, No Iterations 377
linear solve p 259844
time step continuity errors : sum local = 7.42512e-06, global = -6.54922e-20, cumulative = -7.9254e-20
[OGL LOG] init_preconditioner : 0 ms
[OGL LOG] solve : 253 ms
nonecudaGKOBiCGStab:  Solving for p, Initial residual = 0.11869, Final residual = 4.34479e-07, No Iterations 377
linear solve p 260410
time step continuity errors : sum local = 7.86776e-06, global = -4.32529e-20, cumulative = -1.22507e-19
ExecutionTime = 5.31 s  ClockTime = 5 s

Time = 0.005

Courant Number mean: 0.191278 max: 0.948304
DILUPBiCGStab:  Solving for Ux, Initial residual = 0.000632785, Final residual = 1.96114e-06, No Iterations 5
DILUPBiCGStab:  Solving for Uy, Initial residual = 0.0015172, Final residual = 4.85506e-06, No Iterations 5
DILUPBiCGStab:  Solving for Uz, Initial residual = 0.0469566, Final residual = 0.000352629, No Iterations 5
linear solve U 191715
[OGL LOG] init_preconditioner : 0 ms
[OGL LOG] solve : 241 ms
nonecudaGKOBiCGStab:  Solving for p, Initial residual = 0.167985, Final residual = 3.79565e-07, No Iterations 358
linear solve p 247321
time step continuity errors : sum local = 1.30628e-05, global = -4.63059e-20, cumulative = -1.68813e-19
[OGL LOG] init_preconditioner : 0 ms
[OGL LOG] solve : 241 ms
nonecudaGKOBiCGStab:  Solving for p, Initial residual = 0.123065, Final residual = 7.46782e-07, No Iterations 359
linear solve p 247388
time step continuity errors : sum local = 2.87754e-07, global = 1.55816e-20, cumulative = -1.53231e-19
ExecutionTime = 6.12 s  ClockTime = 6 s

Time = 0.00666667

Courant Number mean: 0.191274 max: 0.948311
DILUPBiCGStab:  Solving for Ux, Initial residual = 0.000329775, Final residual = 1.12563e-06, No Iterations 5
DILUPBiCGStab:  Solving for Uy, Initial residual = 0.000958749, Final residual = 3.19555e-06, No Iterations 5
DILUPBiCGStab:  Solving for Uz, Initial residual = 0.0616662, Final residual = 0.000386543, No Iterations 5
linear solve U 190978
[OGL LOG] init_preconditioner : 0 ms
[OGL LOG] solve : 233 ms
nonecudaGKOBiCGStab:  Solving for p, Initial residual = 0.162127, Final residual = 1.30203e-07, No Iterations 346
linear solve p 239195
time step continuity errors : sum local = 3.11562e-05, global = 5.3221e-20, cumulative = -1.0001e-19
[OGL LOG] init_preconditioner : 0 ms
[OGL LOG] solve : 243 ms
nonecudaGKOBiCGStab:  Solving for p, Initial residual = 0.178095, Final residual = 9.50658e-07, No Iterations 361
linear solve p 249903
time step continuity errors : sum local = 1.72875e-06, global = -3.62798e-20, cumulative = -1.3629e-19
ExecutionTime = 6.92 s  ClockTime = 7 s

Time = 0.00833333

Courant Number mean: 0.191275 max: 0.948276
DILUPBiCGStab:  Solving for Ux, Initial residual = 0.000251054, Final residual = 9.2825e-07, No Iterations 5
DILUPBiCGStab:  Solving for Uy, Initial residual = 0.000769155, Final residual = 2.95499e-06, No Iterations 5
DILUPBiCGStab:  Solving for Uz, Initial residual = 0.050107, Final residual = 0.000248625, No Iterations 5
linear solve U 191604
[OGL LOG] init_preconditioner : 0 ms
[OGL LOG] solve : 229 ms
nonecudaGKOBiCGStab:  Solving for p, Initial residual = 0.110128, Final residual = 7.1061e-07, No Iterations 338
linear solve p 236450
time step continuity errors : sum local = 5.25353e-05, global = -5.70544e-20, cumulative = -1.93344e-19
[OGL LOG] init_preconditioner : 0 ms
[OGL LOG] solve : 238 ms
nonecudaGKOBiCGStab:  Solving for p, Initial residual = 0.143019, Final residual = 9.56001e-07, No Iterations 353
linear solve p 244270
time step continuity errors : sum local = 4.40912e-06, global = 1.38232e-20, cumulative = -1.79521e-19
ExecutionTime = 7.72 s  ClockTime = 8 s

Time = 0.01

Courant Number mean: 0.191279 max: 0.948417
DILUPBiCGStab:  Solving for Ux, Initial residual = 0.000171376, Final residual = 4.97967e-07, No Iterations 5
DILUPBiCGStab:  Solving for Uy, Initial residual = 0.000611127, Final residual = 3.35322e-06, No Iterations 5
DILUPBiCGStab:  Solving for Uz, Initial residual = 0.10906, Final residual = 0.000888509, No Iterations 5
linear solve U 190956
[OGL LOG] init_preconditioner : 0 ms
[OGL LOG] solve : 249 ms
nonecudaGKOBiCGStab:  Solving for p, Initial residual = 0.289193, Final residual = 4.90667e-07, No Iterations 370
linear solve p 255960
time step continuity errors : sum local = 2.34624e-05, global = -2.88255e-21, cumulative = -1.82404e-19
[OGL LOG] init_preconditioner : 0 ms
[OGL LOG] solve : 245 ms
nonecudaGKOBiCGStab:  Solving for p, Initial residual = 0.232244, Final residual = 9.50932e-07, No Iterations 365
linear solve p 252157
time step continuity errors : sum local = 1.17584e-06, global = 6.45069e-20, cumulative = -1.17897e-19
ExecutionTime = 8.53 s  ClockTime = 9 s

Time = 0.0116667

Courant Number mean: 0.191291 max: 0.948307
DILUPBiCGStab:  Solving for Ux, Initial residual = 0.000348041, Final residual = 1.38652e-06, No Iterations 5
DILUPBiCGStab:  Solving for Uy, Initial residual = 0.00115006, Final residual = 5.17789e-06, No Iterations 5
DILUPBiCGStab:  Solving for Uz, Initial residual = 0.133147, Final residual = 0.000803831, No Iterations 5
linear solve U 191250
[OGL LOG] init_preconditioner : 0 ms
[OGL LOG] solve : 243 ms
nonecudaGKOBiCGStab:  Solving for p, Initial residual = 0.272964, Final residual = 9.81576e-07, No Iterations 361
linear solve p 249402
time step continuity errors : sum local = 5.81141e-06, global = 3.01245e-20, cumulative = -8.77724e-20
[OGL LOG] init_preconditioner : 0 ms
[OGL LOG] solve : 243 ms
nonecudaGKOBiCGStab:  Solving for p, Initial residual = 0.22998, Final residual = 8.50392e-07, No Iterations 362
linear solve p 249458
time step continuity errors : sum local = 3.3116e-06, global = -1.5943e-20, cumulative = -1.03715e-19
ExecutionTime = 9.33 s  ClockTime = 9 s

Time = 0.0133333

Courant Number mean: 0.19129 max: 0.948322
DILUPBiCGStab:  Solving for Ux, Initial residual = 0.000293679, Final residual = 1.17843e-06, No Iterations 5
DILUPBiCGStab:  Solving for Uy, Initial residual = 0.000986029, Final residual = 3.96882e-06, No Iterations 5
DILUPBiCGStab:  Solving for Uz, Initial residual = 0.118232, Final residual = 0.000533343, No Iterations 5
linear solve U 189959
[OGL LOG] init_preconditioner : 0 ms
[OGL LOG] solve : 245 ms
nonecudaGKOBiCGStab:  Solving for p, Initial residual = 0.234609, Final residual = 2.59923e-07, No Iterations 366
linear solve p 252187
time step continuity errors : sum local = 1.94313e-05, global = -1.54887e-20, cumulative = -1.19204e-19
[OGL LOG] init_preconditioner : 0 ms
[OGL LOG] solve : 244 ms
nonecudaGKOBiCGStab:  Solving for p, Initial residual = 0.225262, Final residual = 7.456e-07, No Iterations 361
linear solve p 250859
time step continuity errors : sum local = 5.61473e-06, global = -5.93312e-20, cumulative = -1.78535e-19
ExecutionTime = 10.15 s  ClockTime = 10 s

Time = 0.015

Courant Number mean: 0.191285 max: 0.948351
DILUPBiCGStab:  Solving for Ux, Initial residual = 0.000231113, Final residual = 8.60044e-07, No Iterations 5
DILUPBiCGStab:  Solving for Uy, Initial residual = 0.000764124, Final residual = 2.64707e-06, No Iterations 5
DILUPBiCGStab:  Solving for Uz, Initial residual = 0.075483, Final residual = 0.000205749, No Iterations 5
linear solve U 190617
[OGL LOG] init_preconditioner : 0 ms
[OGL LOG] solve : 243 ms
nonecudaGKOBiCGStab:  Solving for p, Initial residual = 0.152059, Final residual = 9.91948e-07, No Iterations 361
linear solve p 249377
time step continuity errors : sum local = 4.56045e-07, global = 2.14615e-20, cumulative = -1.57074e-19
[OGL LOG] init_preconditioner : 0 ms
[OGL LOG] solve : 140 ms
nonecudaGKOBiCGStab:  Solving for p, Initial residual = 0.1272, Final residual = 9.85732e-07, No Iterations 207
linear solve p 146700
time step continuity errors : sum local = 2.89066e-07, global = 5.57123e-21, cumulative = -1.51502e-19
ExecutionTime = 10.85 s  ClockTime = 11 s

Time = 0.0166667

Courant Number mean: 0.191285 max: 0.948331
DILUPBiCGStab:  Solving for Ux, Initial residual = 0.000119393, Final residual = 3.93694e-07, No Iterations 5
DILUPBiCGStab:  Solving for Uy, Initial residual = 0.000407107, Final residual = 1.07672e-06, No Iterations 5
DILUPBiCGStab:  Solving for Uz, Initial residual = 0.0508552, Final residual = 0.000132259, No Iterations 5
linear solve U 190394
[OGL LOG] init_preconditioner : 0 ms
[OGL LOG] solve : 226 ms
nonecudaGKOBiCGStab:  Solving for p, Initial residual = 0.110649, Final residual = 9.88834e-07, No Iterations 335
linear solve p 232496
time step continuity errors : sum local = 9.80134e-07, global = -1.79584e-20, cumulative = -1.69461e-19
[OGL LOG] init_preconditioner : 0 ms
[OGL LOG] solve : 229 ms
nonecudaGKOBiCGStab:  Solving for p, Initial residual = 0.0933923, Final residual = 9.50003e-07, No Iterations 338
linear solve p 236391
time step continuity errors : sum local = 9.50588e-07, global = 5.48943e-20, cumulative = -1.14567e-19
ExecutionTime = 11.63 s  ClockTime = 12 s

End

