/*---------------------------------------------------------------------------*\
  =========                 |
  \\      /  F ield         | OpenFOAM: The Open Source CFD Toolbox
   \\    /   O peration     | Website:  https://openfoam.org
    \\  /    A nd           | Version:  8
     \\/     M anipulation  |
\*---------------------------------------------------------------------------*/
Build  : 8-ef60d22ea792
Exec   : icoFoam
Date   : Sep 11 2021
Time   : 13:49:59
Host   : "uc2n513.localdomain"
PID    : 220353
I/O    : uncollated
Case   : /pfs/data5/home/kit/scc/nq7776/data/code/OBR/lidDrivenCavity3D/Variation_init/100/Variation_mesh/75/Variation_matrix_solver/BiCGStab_BJ_CUDA/1631360982
nProcs : 1
sigFpe : Enabling floating point exception trapping (FOAM_SIGFPE).
fileModificationChecking : Monitoring run-time modified files using timeStampMaster (fileModificationSkew 10)
allowSystemOperations : Allowing user-supplied system call operations

// * * * * * * * * * * * * * * * * * * * * * * * * * * * * * * * * * * * * * //
Create time

Create mesh for time = 0

Reading transportProperties

Reading field p

Reading field U

Reading/calculating face flux field phi


Starting time loop

Time = 0.00133333

Courant Number mean: 0.191396 max: 0.960629
DILUPBiCGStab:  Solving for Ux, Initial residual = 0.15118, Final residual = 1.71065e-05, No Iterations 5
DILUPBiCGStab:  Solving for Uy, Initial residual = 0.286633, Final residual = 4.01866e-05, No Iterations 5
DILUPBiCGStab:  Solving for Uz, Initial residual = 0.411091, Final residual = 0.000172886, No Iterations 5
linear solve U 441296
[OGL LOG] init_host_sparsity_pattern : 121 ms
[OGL LOG] matrix not stored update host matrix
[OGL LOG] update_host_mtx : 62 ms
[OGL LOG] matrix is not yet sorted, compute sorting idxs
[OGL LOG] compute_sort : 3613 ms
[OGL LOG] matrix is not yet sorted, sorting host matrix
[OGL LOG] sort_host_mtx_sparsity_pattern : 80 ms
[OGL LOG] sort_host_mtx : 52 ms
[OGL LOG] init_preconditioner : 45 ms
[OGL LOG] solve : 510 ms
BJcudaGKOBiCGStab:  Solving for p, Initial residual = 0.61762, Final residual = 4.59129e-07, No Iterations 364
linear solve p 5259140
time step continuity errors : sum local = 8.43092e-07, global = 3.42601e-20, cumulative = 3.42601e-20
[OGL LOG] init_preconditioner : 0 ms
[OGL LOG] solve : 501 ms
BJcudaGKOBiCGStab:  Solving for p, Initial residual = 0.269291, Final residual = 9.73119e-07, No Iterations 362
linear solve p 514528
time step continuity errors : sum local = 8.57364e-10, global = 2.22186e-22, cumulative = 3.44823e-20
ExecutionTime = 8.35 s  ClockTime = 8 s

Time = 0.00266667

Courant Number mean: 0.191562 max: 0.958264
DILUPBiCGStab:  Solving for Ux, Initial residual = 0.00536985, Final residual = 2.79299e-05, No Iterations 5
DILUPBiCGStab:  Solving for Uy, Initial residual = 0.0116943, Final residual = 5.45307e-05, No Iterations 5
DILUPBiCGStab:  Solving for Uz, Initial residual = 0.0571531, Final residual = 0.000217297, No Iterations 5
linear solve U 419013
[OGL LOG] init_preconditioner : 0 ms
[OGL LOG] solve : 507 ms
BJcudaGKOBiCGStab:  Solving for p, Initial residual = 0.291876, Final residual = 4.63746e-07, No Iterations 367
linear solve p 520510
time step continuity errors : sum local = 2.3754e-06, global = -1.72921e-20, cumulative = 1.71902e-20
[OGL LOG] init_preconditioner : 0 ms
[OGL LOG] solve : 554 ms
BJcudaGKOBiCGStab:  Solving for p, Initial residual = 0.213352, Final residual = 9.50532e-07, No Iterations 400
linear solve p 567598
time step continuity errors : sum local = 1.81184e-07, global = 6.45359e-21, cumulative = 2.36438e-20
ExecutionTime = 10.11 s  ClockTime = 10 s

Time = 0.004

Courant Number mean: 0.191591 max: 0.958758
DILUPBiCGStab:  Solving for Ux, Initial residual = 0.00111766, Final residual = 6.77377e-06, No Iterations 5
DILUPBiCGStab:  Solving for Uy, Initial residual = 0.00329432, Final residual = 1.49233e-05, No Iterations 5
DILUPBiCGStab:  Solving for Uz, Initial residual = 0.0260402, Final residual = 0.000196663, No Iterations 5
linear solve U 404119
[OGL LOG] init_preconditioner : 0 ms
[OGL LOG] solve : 476 ms
BJcudaGKOBiCGStab:  Solving for p, Initial residual = 0.178372, Final residual = 8.05098e-07, No Iterations 345
linear solve p 489295
time step continuity errors : sum local = 1.58887e-07, global = -9.06873e-21, cumulative = 1.45751e-20
[OGL LOG] init_preconditioner : 0 ms
[OGL LOG] solve : 477 ms
BJcudaGKOBiCGStab:  Solving for p, Initial residual = 0.137867, Final residual = 9.81586e-07, No Iterations 343
linear solve p 490807
time step continuity errors : sum local = 4.67945e-07, global = 1.0531e-20, cumulative = 2.51061e-20
ExecutionTime = 11.74 s  ClockTime = 12 s

Time = 0.00533333

Courant Number mean: 0.19157 max: 0.958682
DILUPBiCGStab:  Solving for Ux, Initial residual = 0.000641627, Final residual = 2.6844e-06, No Iterations 5
DILUPBiCGStab:  Solving for Uy, Initial residual = 0.00199963, Final residual = 7.67423e-06, No Iterations 5
DILUPBiCGStab:  Solving for Uz, Initial residual = 0.0145976, Final residual = 0.000103292, No Iterations 5
linear solve U 404871
[OGL LOG] init_preconditioner : 0 ms
[OGL LOG] solve : 490 ms
BJcudaGKOBiCGStab:  Solving for p, Initial residual = 0.128988, Final residual = 9.96184e-07, No Iterations 355
linear solve p 504944
time step continuity errors : sum local = 1.58925e-07, global = 3.72983e-21, cumulative = 2.88359e-20
[OGL LOG] init_preconditioner : 0 ms
[OGL LOG] solve : 503 ms
BJcudaGKOBiCGStab:  Solving for p, Initial residual = 0.102854, Final residual = 9.19023e-07, No Iterations 363
linear solve p 516270
time step continuity errors : sum local = 2.28134e-07, global = -2.69509e-20, cumulative = 1.88506e-21
ExecutionTime = 13.42 s  ClockTime = 13 s

Time = 0.00666667

Courant Number mean: 0.191555 max: 0.958626
DILUPBiCGStab:  Solving for Ux, Initial residual = 0.000432444, Final residual = 1.73773e-06, No Iterations 5
DILUPBiCGStab:  Solving for Uy, Initial residual = 0.00139461, Final residual = 4.12941e-06, No Iterations 5
DILUPBiCGStab:  Solving for Uz, Initial residual = 0.0101945, Final residual = 4.84303e-05, No Iterations 5
linear solve U 403749
[OGL LOG] init_preconditioner : 0 ms
[OGL LOG] solve : 462 ms
BJcudaGKOBiCGStab:  Solving for p, Initial residual = 0.0953258, Final residual = 8.20591e-07, No Iterations 332
linear solve p 476281
time step continuity errors : sum local = 1.58537e-07, global = -3.61981e-21, cumulative = -1.73475e-21
[OGL LOG] init_preconditioner : 0 ms
[OGL LOG] solve : 512 ms
BJcudaGKOBiCGStab:  Solving for p, Initial residual = 0.0760737, Final residual = 6.00458e-07, No Iterations 372
linear solve p 525894
time step continuity errors : sum local = 1.92575e-07, global = 2.64098e-21, cumulative = 9.06226e-22
ExecutionTime = 15.09 s  ClockTime = 15 s

Time = 0.008

Courant Number mean: 0.191545 max: 0.958677
DILUPBiCGStab:  Solving for Ux, Initial residual = 0.000309974, Final residual = 1.18012e-06, No Iterations 5
DILUPBiCGStab:  Solving for Uy, Initial residual = 0.00103132, Final residual = 3.00555e-06, No Iterations 5
DILUPBiCGStab:  Solving for Uz, Initial residual = 0.0072972, Final residual = 2.91155e-05, No Iterations 5
linear solve U 405761
[OGL LOG] init_preconditioner : 0 ms
[OGL LOG] solve : 507 ms
BJcudaGKOBiCGStab:  Solving for p, Initial residual = 0.0735685, Final residual = 2.42706e-07, No Iterations 367
linear solve p 520953
time step continuity errors : sum local = 1.65417e-07, global = -2.99503e-20, cumulative = -2.90441e-20
[OGL LOG] init_preconditioner : 0 ms
[OGL LOG] solve : 507 ms
BJcudaGKOBiCGStab:  Solving for p, Initial residual = 0.0592675, Final residual = 5.14885e-07, No Iterations 368
linear solve p 520766
time step continuity errors : sum local = 1.58095e-07, global = -1.42767e-20, cumulative = -4.33208e-20
ExecutionTime = 16.78 s  ClockTime = 17 s

Time = 0.00933333

Courant Number mean: 0.191534 max: 0.958624
DILUPBiCGStab:  Solving for Ux, Initial residual = 0.000230818, Final residual = 8.74442e-07, No Iterations 5
DILUPBiCGStab:  Solving for Uy, Initial residual = 0.000781922, Final residual = 1.97136e-06, No Iterations 5
DILUPBiCGStab:  Solving for Uz, Initial residual = 0.00543369, Final residual = 1.57046e-05, No Iterations 5
linear solve U 403343
[OGL LOG] init_preconditioner : 0 ms
[OGL LOG] solve : 450 ms
BJcudaGKOBiCGStab:  Solving for p, Initial residual = 0.0570201, Final residual = 5.57391e-07, No Iterations 324
linear solve p 464062
time step continuity errors : sum local = 3.14619e-07, global = -1.04903e-20, cumulative = -5.3811e-20
[OGL LOG] init_preconditioner : 0 ms
[OGL LOG] solve : 461 ms
BJcudaGKOBiCGStab:  Solving for p, Initial residual = 0.045815, Final residual = 9.97978e-07, No Iterations 334
linear solve p 474378
time step continuity errors : sum local = 1.58293e-07, global = -2.68918e-20, cumulative = -8.07029e-20
ExecutionTime = 18.37 s  ClockTime = 18 s

Time = 0.0106667

Courant Number mean: 0.191529 max: 0.958655
DILUPBiCGStab:  Solving for Ux, Initial residual = 0.000175323, Final residual = 6.50707e-07, No Iterations 5
DILUPBiCGStab:  Solving for Uy, Initial residual = 0.000606451, Final residual = 1.67738e-06, No Iterations 5
DILUPBiCGStab:  Solving for Uz, Initial residual = 0.00437766, Final residual = 1.82758e-05, No Iterations 5
linear solve U 403278
[OGL LOG] init_preconditioner : 0 ms
[OGL LOG] solve : 458 ms
BJcudaGKOBiCGStab:  Solving for p, Initial residual = 0.0457936, Final residual = 9.90366e-07, No Iterations 330
linear solve p 472797
time step continuity errors : sum local = 1.59554e-07, global = -1.13e-21, cumulative = -8.18329e-20
[OGL LOG] init_preconditioner : 0 ms
[OGL LOG] solve : 490 ms
BJcudaGKOBiCGStab:  Solving for p, Initial residual = 0.0371147, Final residual = 8.97053e-07, No Iterations 354
linear solve p 503148
time step continuity errors : sum local = 1.58186e-07, global = -8.19409e-21, cumulative = -9.00269e-20
ExecutionTime = 20.01 s  ClockTime = 20 s

Time = 0.012

Courant Number mean: 0.191524 max: 0.95863
DILUPBiCGStab:  Solving for Ux, Initial residual = 0.000135839, Final residual = 4.78061e-07, No Iterations 5
DILUPBiCGStab:  Solving for Uy, Initial residual = 0.000473892, Final residual = 1.21783e-06, No Iterations 5
DILUPBiCGStab:  Solving for Uz, Initial residual = 0.00347183, Final residual = 9.94635e-06, No Iterations 5
linear solve U 404392
[OGL LOG] init_preconditioner : 0 ms
[OGL LOG] solve : 455 ms
BJcudaGKOBiCGStab:  Solving for p, Initial residual = 0.0362475, Final residual = 4.39788e-07, No Iterations 328
linear solve p 470060
time step continuity errors : sum local = 1.83145e-07, global = -5.07169e-21, cumulative = -9.50986e-20
[OGL LOG] init_preconditioner : 0 ms
[OGL LOG] solve : 477 ms
BJcudaGKOBiCGStab:  Solving for p, Initial residual = 0.0293726, Final residual = 1.93943e-07, No Iterations 345
linear solve p 490451
time step continuity errors : sum local = 3.18798e-07, global = -4.15781e-20, cumulative = -1.36677e-19
ExecutionTime = 21.63 s  ClockTime = 22 s

Time = 0.0133333

Courant Number mean: 0.191521 max: 0.958646
DILUPBiCGStab:  Solving for Ux, Initial residual = 0.000105988, Final residual = 3.60113e-07, No Iterations 5
DILUPBiCGStab:  Solving for Uy, Initial residual = 0.000375242, Final residual = 1.03665e-06, No Iterations 5
DILUPBiCGStab:  Solving for Uz, Initial residual = 0.00242386, Final residual = 9.77213e-06, No Iterations 5
linear solve U 404624
[OGL LOG] init_preconditioner : 0 ms
[OGL LOG] solve : 221 ms
BJcudaGKOBiCGStab:  Solving for p, Initial residual = 0.0283073, Final residual = 8.20266e-07, No Iterations 158
linear solve p 234954
time step continuity errors : sum local = 1.59611e-07, global = -6.65312e-21, cumulative = -1.4333e-19
[OGL LOG] init_preconditioner : 0 ms
[OGL LOG] solve : 247 ms
BJcudaGKOBiCGStab:  Solving for p, Initial residual = 0.0229249, Final residual = 9.78346e-07, No Iterations 177
linear solve p 260919
time step continuity errors : sum local = 1.58298e-07, global = 1.29138e-20, cumulative = -1.30416e-19
ExecutionTime = 22.77 s  ClockTime = 23 s

End

