/*---------------------------------------------------------------------------*\
  =========                 |
  \\      /  F ield         | OpenFOAM: The Open Source CFD Toolbox
   \\    /   O peration     | Website:  https://openfoam.org
    \\  /    A nd           | Version:  8
     \\/     M anipulation  |
\*---------------------------------------------------------------------------*/
Build  : 8-ef60d22ea792
Exec   : icoFoam
Date   : Sep 11 2021
Time   : 13:35:43
Host   : "uc2n442.localdomain"
PID    : 3705083
I/O    : uncollated
Case   : /pfs/data5/home/kit/scc/nq7776/data/code/OBR/lidDrivenCavity3D/Variation_init/100/Variation_mesh/5/Variation_matrix_solver/CG_NoPrecond_Serial/1631360143
nProcs : 1
sigFpe : Enabling floating point exception trapping (FOAM_SIGFPE).
fileModificationChecking : Monitoring run-time modified files using timeStampMaster (fileModificationSkew 10)
allowSystemOperations : Allowing user-supplied system call operations

// * * * * * * * * * * * * * * * * * * * * * * * * * * * * * * * * * * * * * //
Create time

Create mesh for time = 0

Reading transportProperties

Reading field p

Reading field U

Reading/calculating face flux field phi


Starting time loop

Time = 0.02

Courant Number mean: 0.165966 max: 0.393736
DILUPBiCGStab:  Solving for Ux, Initial residual = 0.257055, Final residual = 2.34833e-13, No Iterations 5
DILUPBiCGStab:  Solving for Uy, Initial residual = 0.188796, Final residual = 5.98254e-14, No Iterations 5
DILUPBiCGStab:  Solving for Uz, Initial residual = 0.171115, Final residual = 6.75568e-14, No Iterations 5
linear solve U 168
nonePCG:  Solving for p, Initial residual = 0.607222, Final residual = 8.06399e-07, No Iterations 36
linear solve p 79
time step continuity errors : sum local = 6.93674e-08, global = -1.23217e-18, cumulative = -1.23217e-18
nonePCG:  Solving for p, Initial residual = 0.279374, Final residual = 8.95722e-07, No Iterations 35
linear solve p 70
time step continuity errors : sum local = 4.03971e-08, global = -1.34996e-20, cumulative = -1.24567e-18
ExecutionTime = 0.04 s  ClockTime = 0 s

Time = 0.04

Courant Number mean: 0.153195 max: 0.395566
DILUPBiCGStab:  Solving for Ux, Initial residual = 0.0697041, Final residual = 3.44951e-14, No Iterations 5
DILUPBiCGStab:  Solving for Uy, Initial residual = 0.0816975, Final residual = 4.41306e-14, No Iterations 5
DILUPBiCGStab:  Solving for Uz, Initial residual = 0.163154, Final residual = 1.83509e-13, No Iterations 5
linear solve U 95
nonePCG:  Solving for p, Initial residual = 0.204314, Final residual = 5.83536e-07, No Iterations 34
linear solve p 52
time step continuity errors : sum local = 2.8423e-08, global = 4.39266e-19, cumulative = -8.06402e-19
nonePCG:  Solving for p, Initial residual = 0.0753343, Final residual = 4.37263e-07, No Iterations 33
linear solve p 50
time step continuity errors : sum local = 2.28013e-08, global = -3.89503e-19, cumulative = -1.1959e-18
ExecutionTime = 0.04 s  ClockTime = 0 s

Time = 0.06

Courant Number mean: 0.149929 max: 0.386832
DILUPBiCGStab:  Solving for Ux, Initial residual = 0.0141012, Final residual = 1.86588e-15, No Iterations 5
DILUPBiCGStab:  Solving for Uy, Initial residual = 0.0173193, Final residual = 4.10881e-15, No Iterations 5
DILUPBiCGStab:  Solving for Uz, Initial residual = 0.106786, Final residual = 9.06104e-14, No Iterations 5
linear solve U 94
nonePCG:  Solving for p, Initial residual = 0.0134467, Final residual = 8.60096e-07, No Iterations 31
linear solve p 50
time step continuity errors : sum local = 4.54668e-08, global = -5.05308e-19, cumulative = -1.70121e-18
nonePCG:  Solving for p, Initial residual = 0.00251725, Final residual = 4.75378e-07, No Iterations 30
linear solve p 49
time step continuity errors : sum local = 2.53166e-08, global = 7.66499e-19, cumulative = -9.34714e-19
ExecutionTime = 0.04 s  ClockTime = 0 s

Time = 0.08

Courant Number mean: 0.149047 max: 0.383246
DILUPBiCGStab:  Solving for Ux, Initial residual = 0.00404269, Final residual = 6.31762e-16, No Iterations 5
DILUPBiCGStab:  Solving for Uy, Initial residual = 0.00513061, Final residual = 1.19388e-15, No Iterations 5
DILUPBiCGStab:  Solving for Uz, Initial residual = 0.0354897, Final residual = 3.13091e-14, No Iterations 5
linear solve U 95
nonePCG:  Solving for p, Initial residual = 0.00345205, Final residual = 7.58745e-07, No Iterations 30
linear solve p 48
time step continuity errors : sum local = 3.99742e-08, global = -2.82896e-19, cumulative = -1.21761e-18
nonePCG:  Solving for p, Initial residual = 0.00137508, Final residual = 5.03056e-07, No Iterations 28
linear solve p 45
time step continuity errors : sum local = 2.64561e-08, global = 9.01495e-19, cumulative = -3.16115e-19
ExecutionTime = 0.04 s  ClockTime = 0 s

Time = 0.1

Courant Number mean: 0.148704 max: 0.381708
DILUPBiCGStab:  Solving for Ux, Initial residual = 0.00124527, Final residual = 2.7349e-16, No Iterations 5
DILUPBiCGStab:  Solving for Uy, Initial residual = 0.00166855, Final residual = 2.55562e-16, No Iterations 5
DILUPBiCGStab:  Solving for Uz, Initial residual = 0.0148821, Final residual = 8.3529e-15, No Iterations 5
linear solve U 93
nonePCG:  Solving for p, Initial residual = 0.00100374, Final residual = 5.14022e-07, No Iterations 29
linear solve p 46
time step continuity errors : sum local = 2.75827e-08, global = -4.70302e-19, cumulative = -7.86417e-19
nonePCG:  Solving for p, Initial residual = 0.000355989, Final residual = 5.85989e-07, No Iterations 26
linear solve p 43
time step continuity errors : sum local = 3.12963e-08, global = -7.23684e-19, cumulative = -1.5101e-18
ExecutionTime = 0.04 s  ClockTime = 0 s

Time = 0.12

Courant Number mean: 0.148579 max: 0.381103
DILUPBiCGStab:  Solving for Ux, Initial residual = 0.000408171, Final residual = 1.1391e-16, No Iterations 5
DILUPBiCGStab:  Solving for Uy, Initial residual = 0.000559349, Final residual = 6.88405e-17, No Iterations 5
DILUPBiCGStab:  Solving for Uz, Initial residual = 0.00595626, Final residual = 2.37713e-15, No Iterations 5
linear solve U 94
nonePCG:  Solving for p, Initial residual = 0.000390438, Final residual = 5.42222e-07, No Iterations 27
linear solve p 43
time step continuity errors : sum local = 2.90888e-08, global = 4.66662e-19, cumulative = -1.04344e-18
nonePCG:  Solving for p, Initial residual = 0.000145749, Final residual = 4.80078e-07, No Iterations 25
linear solve p 41
time step continuity errors : sum local = 2.55257e-08, global = -2.6847e-19, cumulative = -1.31191e-18
ExecutionTime = 0.04 s  ClockTime = 0 s

Time = 0.14

Courant Number mean: 0.148534 max: 0.380874
DILUPBiCGStab:  Solving for Ux, Initial residual = 0.000140729, Final residual = 4.59392e-17, No Iterations 5
DILUPBiCGStab:  Solving for Uy, Initial residual = 0.000195049, Final residual = 2.60156e-17, No Iterations 5
DILUPBiCGStab:  Solving for Uz, Initial residual = 0.00241998, Final residual = 6.7328e-16, No Iterations 5
linear solve U 94
nonePCG:  Solving for p, Initial residual = 0.000151844, Final residual = 4.10007e-07, No Iterations 26
linear solve p 43
time step continuity errors : sum local = 2.19445e-08, global = -1.45167e-18, cumulative = -2.76358e-18
nonePCG:  Solving for p, Initial residual = 5.45478e-05, Final residual = 8.78167e-07, No Iterations 23
linear solve p 40
time step continuity errors : sum local = 4.67925e-08, global = 3.44107e-19, cumulative = -2.41947e-18
ExecutionTime = 0.04 s  ClockTime = 0 s

Time = 0.16

Courant Number mean: 0.148518 max: 0.38079
DILUPBiCGStab:  Solving for Ux, Initial residual = 5.06185e-05, Final residual = 1.78271e-17, No Iterations 5
DILUPBiCGStab:  Solving for Uy, Initial residual = 7.02405e-05, Final residual = 1.40829e-17, No Iterations 5
DILUPBiCGStab:  Solving for Uz, Initial residual = 0.000982085, Final residual = 2.21857e-16, No Iterations 5
linear solve U 94
nonePCG:  Solving for p, Initial residual = 5.84021e-05, Final residual = 9.7861e-07, No Iterations 12
linear solve p 29
time step continuity errors : sum local = 8.40934e-08, global = -2.97123e-19, cumulative = -2.71659e-18
nonePCG:  Solving for p, Initial residual = 2.10388e-05, Final residual = 5.92512e-07, No Iterations 10
linear solve p 26
time step continuity errors : sum local = 4.62285e-08, global = -8.26521e-19, cumulative = -3.54311e-18
ExecutionTime = 0.04 s  ClockTime = 0 s

Time = 0.18

Courant Number mean: 0.148512 max: 0.38076
DILUPBiCGStab:  Solving for Ux, Initial residual = 1.89793e-05, Final residual = 7.56486e-18, No Iterations 5
DILUPBiCGStab:  Solving for Uy, Initial residual = 2.60164e-05, Final residual = 9.35587e-18, No Iterations 5
DILUPBiCGStab:  Solving for Uz, Initial residual = 0.000396548, Final residual = 7.07082e-17, No Iterations 5
linear solve U 93
nonePCG:  Solving for p, Initial residual = 2.22415e-05, Final residual = 9.76705e-07, No Iterations 10
linear solve p 27
time step continuity errors : sum local = 7.84632e-08, global = -1.17221e-18, cumulative = -4.71533e-18
nonePCG:  Solving for p, Initial residual = 8.19232e-06, Final residual = 9.34715e-07, No Iterations 7
linear solve p 23
time step continuity errors : sum local = 6.93496e-08, global = 1.31753e-18, cumulative = -3.3978e-18
ExecutionTime = 0.04 s  ClockTime = 0 s

Time = 0.2

Courant Number mean: 0.148511 max: 0.380749
DILUPBiCGStab:  Solving for Ux, Initial residual = 7.2924e-06, Final residual = 3.54047e-18, No Iterations 5
DILUPBiCGStab:  Solving for Uy, Initial residual = 9.84687e-06, Final residual = 5.68238e-18, No Iterations 5
DILUPBiCGStab:  Solving for Uz, Initial residual = 0.000162759, Final residual = 3.45721e-17, No Iterations 5
linear solve U 93
nonePCG:  Solving for p, Initial residual = 8.78967e-06, Final residual = 8.61708e-07, No Iterations 8
linear solve p 24
time step continuity errors : sum local = 6.97489e-08, global = 4.41979e-19, cumulative = -2.95582e-18
nonePCG:  Solving for p, Initial residual = 3.14196e-06, Final residual = 9.38179e-07, No Iterations 6
linear solve p 22
time step continuity errors : sum local = 7.0743e-08, global = 1.57363e-19, cumulative = -2.79845e-18
ExecutionTime = 0.04 s  ClockTime = 0 s

End

