/*---------------------------------------------------------------------------*\
  =========                 |
  \\      /  F ield         | OpenFOAM: The Open Source CFD Toolbox
   \\    /   O peration     | Website:  https://openfoam.org
    \\  /    A nd           | Version:  8
     \\/     M anipulation  |
\*---------------------------------------------------------------------------*/
Build  : 8-ef60d22ea792
Exec   : icoFoam
Date   : Sep 11 2021
Time   : 13:54:23
Host   : "uc2n513.localdomain"
PID    : 222549
I/O    : uncollated
Case   : /pfs/data5/home/kit/scc/nq7776/data/code/OBR/lidDrivenCavity3D/Variation_init/100/Variation_mesh/65/Variation_matrix_solver/CG_ILU_CUDA/1631361250
nProcs : 1
sigFpe : Enabling floating point exception trapping (FOAM_SIGFPE).
fileModificationChecking : Monitoring run-time modified files using timeStampMaster (fileModificationSkew 10)
allowSystemOperations : Allowing user-supplied system call operations

// * * * * * * * * * * * * * * * * * * * * * * * * * * * * * * * * * * * * * //
Create time

Create mesh for time = 0

Reading transportProperties

Reading field p

Reading field U

Reading/calculating face flux field phi


Starting time loop

Time = 0.00153846

Courant Number mean: 0.191448 max: 0.959317
DILUPBiCGStab:  Solving for Ux, Initial residual = 0.112017, Final residual = 1.40856e-05, No Iterations 5
DILUPBiCGStab:  Solving for Uy, Initial residual = 0.209721, Final residual = 3.34999e-05, No Iterations 5
DILUPBiCGStab:  Solving for Uz, Initial residual = 0.253067, Final residual = 9.19753e-05, No Iterations 5
linear solve U 274149
[OGL LOG] init_host_sparsity_pattern : 78 ms
[OGL LOG] matrix not stored update host matrix
[OGL LOG] update_host_mtx : 40 ms
[OGL LOG] matrix is not yet sorted, compute sorting idxs
[OGL LOG] compute_sort : 2365 ms
[OGL LOG] matrix is not yet sorted, sorting host matrix
[OGL LOG] sort_host_mtx_sparsity_pattern : 51 ms
[OGL LOG] sort_host_mtx : 28 ms
[OGL LOG] init_preconditioner : 81 ms
[OGL LOG] solve : 432 ms
ILUcudaGKOCG:  Solving for p, Initial residual = 0.548046, Final residual = 9.67187e-07, No Iterations 169
linear solve p 3827639
time step continuity errors : sum local = 1.26949e-09, global = 3.13144e-20, cumulative = 3.13144e-20
[OGL LOG] init_preconditioner : 0 ms
[OGL LOG] solve : 432 ms
ILUcudaGKOCG:  Solving for p, Initial residual = 0.305311, Final residual = 9.10114e-07, No Iterations 170
linear solve p 441068
time step continuity errors : sum local = 7.17156e-10, global = 1.99636e-21, cumulative = 3.33108e-20
ExecutionTime = 5.97 s  ClockTime = 6 s

Time = 0.00307692

Courant Number mean: 0.191613 max: 0.952625
DILUPBiCGStab:  Solving for Ux, Initial residual = 0.0053039, Final residual = 1.96329e-05, No Iterations 5
DILUPBiCGStab:  Solving for Uy, Initial residual = 0.01073, Final residual = 3.73437e-05, No Iterations 5
DILUPBiCGStab:  Solving for Uz, Initial residual = 0.0235184, Final residual = 8.30614e-05, No Iterations 5
linear solve U 253858
[OGL LOG] init_preconditioner : 0 ms
[OGL LOG] solve : 430 ms
ILUcudaGKOCG:  Solving for p, Initial residual = 0.241046, Final residual = 9.98036e-07, No Iterations 169
linear solve p 438583
time step continuity errors : sum local = 2.58651e-07, global = -3.82511e-20, cumulative = -4.94035e-21
[OGL LOG] init_preconditioner : 0 ms
[OGL LOG] solve : 430 ms
ILUcudaGKOCG:  Solving for p, Initial residual = 0.201177, Final residual = 8.01106e-07, No Iterations 169
linear solve p 438430
time step continuity errors : sum local = 2.47639e-07, global = 6.16417e-21, cumulative = 1.22381e-21
ExecutionTime = 7.26 s  ClockTime = 7 s

Time = 0.00461538

Courant Number mean: 0.191576 max: 0.952768
DILUPBiCGStab:  Solving for Ux, Initial residual = 0.00149173, Final residual = 7.50693e-06, No Iterations 5
DILUPBiCGStab:  Solving for Uy, Initial residual = 0.00378369, Final residual = 1.56078e-05, No Iterations 5
DILUPBiCGStab:  Solving for Uz, Initial residual = 0.0123653, Final residual = 4.51173e-05, No Iterations 5
linear solve U 258019
[OGL LOG] init_preconditioner : 0 ms
[OGL LOG] solve : 427 ms
ILUcudaGKOCG:  Solving for p, Initial residual = 0.153274, Final residual = 7.11799e-07, No Iterations 168
linear solve p 436070
time step continuity errors : sum local = 2.46418e-07, global = 2.59576e-20, cumulative = 2.71814e-20
[OGL LOG] init_preconditioner : 0 ms
[OGL LOG] solve : 425 ms
ILUcudaGKOCG:  Solving for p, Initial residual = 0.127108, Final residual = 9.05294e-07, No Iterations 167
linear solve p 434102
time step continuity errors : sum local = 2.46482e-07, global = 5.83547e-20, cumulative = 8.55361e-20
ExecutionTime = 8.56 s  ClockTime = 8 s

Time = 0.00615385

Courant Number mean: 0.191478 max: 0.952387
DILUPBiCGStab:  Solving for Ux, Initial residual = 0.000808013, Final residual = 2.32832e-06, No Iterations 5
DILUPBiCGStab:  Solving for Uy, Initial residual = 0.00210972, Final residual = 5.15548e-06, No Iterations 5
DILUPBiCGStab:  Solving for Uz, Initial residual = 0.00658357, Final residual = 2.2205e-05, No Iterations 5
linear solve U 251910
[OGL LOG] init_preconditioner : 0 ms
[OGL LOG] solve : 420 ms
ILUcudaGKOCG:  Solving for p, Initial residual = 0.105577, Final residual = 9.81118e-07, No Iterations 165
linear solve p 428989
time step continuity errors : sum local = 2.47295e-07, global = 4.41716e-20, cumulative = 1.29708e-19
[OGL LOG] init_preconditioner : 0 ms
[OGL LOG] solve : 420 ms
ILUcudaGKOCG:  Solving for p, Initial residual = 0.0876473, Final residual = 8.6745e-07, No Iterations 165
linear solve p 428874
time step continuity errors : sum local = 2.46739e-07, global = 1.86859e-21, cumulative = 1.31576e-19
ExecutionTime = 9.82 s  ClockTime = 10 s

Time = 0.00769231

Courant Number mean: 0.191453 max: 0.952328
DILUPBiCGStab:  Solving for Ux, Initial residual = 0.000487481, Final residual = 1.86503e-06, No Iterations 5
DILUPBiCGStab:  Solving for Uy, Initial residual = 0.00134199, Final residual = 3.68773e-06, No Iterations 5
DILUPBiCGStab:  Solving for Uz, Initial residual = 0.00447402, Final residual = 1.41933e-05, No Iterations 5
linear solve U 249816
[OGL LOG] init_preconditioner : 0 ms
[OGL LOG] solve : 413 ms
ILUcudaGKOCG:  Solving for p, Initial residual = 0.0741734, Final residual = 9.64406e-07, No Iterations 162
linear solve p 422146
time step continuity errors : sum local = 2.467e-07, global = 1.6854e-20, cumulative = 1.4843e-19
[OGL LOG] init_preconditioner : 0 ms
[OGL LOG] solve : 412 ms
ILUcudaGKOCG:  Solving for p, Initial residual = 0.061032, Final residual = 8.48243e-07, No Iterations 162
linear solve p 421073
time step continuity errors : sum local = 2.46618e-07, global = -4.35102e-20, cumulative = 1.0492e-19
ExecutionTime = 11.08 s  ClockTime = 11 s

Time = 0.00923077

Courant Number mean: 0.191423 max: 0.952341
DILUPBiCGStab:  Solving for Ux, Initial residual = 0.000315142, Final residual = 8.37523e-07, No Iterations 5
DILUPBiCGStab:  Solving for Uy, Initial residual = 0.000910687, Final residual = 1.52855e-06, No Iterations 5
DILUPBiCGStab:  Solving for Uz, Initial residual = 0.00284667, Final residual = 7.08235e-06, No Iterations 5
linear solve U 251590
[OGL LOG] init_preconditioner : 0 ms
[OGL LOG] solve : 405 ms
ILUcudaGKOCG:  Solving for p, Initial residual = 0.053758, Final residual = 9.81213e-07, No Iterations 159
linear solve p 413848
time step continuity errors : sum local = 2.46873e-07, global = 5.14529e-20, cumulative = 1.56373e-19
[OGL LOG] init_preconditioner : 0 ms
[OGL LOG] solve : 405 ms
ILUcudaGKOCG:  Solving for p, Initial residual = 0.0442798, Final residual = 9.02427e-07, No Iterations 159
linear solve p 413505
time step continuity errors : sum local = 2.46676e-07, global = 5.06423e-20, cumulative = 2.07015e-19
ExecutionTime = 12.32 s  ClockTime = 12 s

Time = 0.0107692

Courant Number mean: 0.191411 max: 0.952275
DILUPBiCGStab:  Solving for Ux, Initial residual = 0.000217867, Final residual = 6.99927e-07, No Iterations 5
DILUPBiCGStab:  Solving for Uy, Initial residual = 0.000649834, Final residual = 1.09441e-06, No Iterations 5
DILUPBiCGStab:  Solving for Uz, Initial residual = 0.00207227, Final residual = 5.59759e-06, No Iterations 5
linear solve U 250828
[OGL LOG] init_preconditioner : 0 ms
[OGL LOG] solve : 393 ms
ILUcudaGKOCG:  Solving for p, Initial residual = 0.0392463, Final residual = 9.98929e-07, No Iterations 154
linear solve p 401575
time step continuity errors : sum local = 2.46662e-07, global = 4.71509e-20, cumulative = 2.54166e-19
[OGL LOG] init_preconditioner : 0 ms
[OGL LOG] solve : 392 ms
ILUcudaGKOCG:  Solving for p, Initial residual = 0.0321865, Final residual = 9.48125e-07, No Iterations 154
linear solve p 400521
time step continuity errors : sum local = 2.46672e-07, global = -1.2381e-20, cumulative = 2.41785e-19
ExecutionTime = 13.55 s  ClockTime = 13 s

Time = 0.0123077

Courant Number mean: 0.1914 max: 0.9523
DILUPBiCGStab:  Solving for Ux, Initial residual = 0.000149847, Final residual = 4.20477e-07, No Iterations 5
DILUPBiCGStab:  Solving for Uy, Initial residual = 0.000472392, Final residual = 7.00737e-07, No Iterations 5
DILUPBiCGStab:  Solving for Uz, Initial residual = 0.00139533, Final residual = 2.77544e-06, No Iterations 5
linear solve U 250886
[OGL LOG] init_preconditioner : 0 ms
[OGL LOG] solve : 384 ms
ILUcudaGKOCG:  Solving for p, Initial residual = 0.0290836, Final residual = 9.74808e-07, No Iterations 151
linear solve p 392962
time step continuity errors : sum local = 2.4677e-07, global = 3.48151e-20, cumulative = 2.766e-19
[OGL LOG] init_preconditioner : 0 ms
[OGL LOG] solve : 382 ms
ILUcudaGKOCG:  Solving for p, Initial residual = 0.0238248, Final residual = 9.8615e-07, No Iterations 150
linear solve p 390851
time step continuity errors : sum local = 2.46699e-07, global = 2.04383e-20, cumulative = 2.97039e-19
ExecutionTime = 14.74 s  ClockTime = 14 s

Time = 0.0138462

Courant Number mean: 0.191394 max: 0.952267
DILUPBiCGStab:  Solving for Ux, Initial residual = 0.000108338, Final residual = 3.18338e-07, No Iterations 5
DILUPBiCGStab:  Solving for Uy, Initial residual = 0.00035325, Final residual = 4.53308e-07, No Iterations 5
DILUPBiCGStab:  Solving for Uz, Initial residual = 0.00103127, Final residual = 2.52981e-06, No Iterations 5
linear solve U 250090
[OGL LOG] init_preconditioner : 0 ms
[OGL LOG] solve : 380 ms
ILUcudaGKOCG:  Solving for p, Initial residual = 0.0216373, Final residual = 7.94788e-07, No Iterations 149
linear solve p 388435
time step continuity errors : sum local = 2.46584e-07, global = 3.09539e-20, cumulative = 3.27993e-19
[OGL LOG] init_preconditioner : 0 ms
[OGL LOG] solve : 377 ms
ILUcudaGKOCG:  Solving for p, Initial residual = 0.0176868, Final residual = 9.14087e-07, No Iterations 148
linear solve p 385610
time step continuity errors : sum local = 2.46663e-07, global = -2.65398e-21, cumulative = 3.25339e-19
ExecutionTime = 15.92 s  ClockTime = 16 s

Time = 0.0153846

Courant Number mean: 0.191389 max: 0.952281
DILUPBiCGStab:  Solving for Ux, Initial residual = 7.69001e-05, Final residual = 2.1308e-07, No Iterations 5
DILUPBiCGStab:  Solving for Uy, Initial residual = 0.000261877, Final residual = 3.53351e-07, No Iterations 5
DILUPBiCGStab:  Solving for Uz, Initial residual = 0.000722896, Final residual = 1.58322e-06, No Iterations 5
linear solve U 250769
[OGL LOG] init_preconditioner : 0 ms
[OGL LOG] solve : 186 ms
ILUcudaGKOCG:  Solving for p, Initial residual = 0.0162353, Final residual = 9.93054e-07, No Iterations 72
linear solve p 195848
time step continuity errors : sum local = 2.46899e-07, global = -1.5346e-20, cumulative = 3.09993e-19
[OGL LOG] init_preconditioner : 0 ms
[OGL LOG] solve : 176 ms
ILUcudaGKOCG:  Solving for p, Initial residual = 0.0132554, Final residual = 9.95937e-07, No Iterations 68
linear solve p 184382
time step continuity errors : sum local = 2.46752e-07, global = -1.12144e-20, cumulative = 2.98778e-19
ExecutionTime = 16.72 s  ClockTime = 16 s

End

