/*---------------------------------------------------------------------------*\
  =========                 |
  \\      /  F ield         | OpenFOAM: The Open Source CFD Toolbox
   \\    /   O peration     | Website:  https://openfoam.org
    \\  /    A nd           | Version:  8
     \\/     M anipulation  |
\*---------------------------------------------------------------------------*/
Build  : 8-ef60d22ea792
Exec   : icoFoam
Date   : Sep 11 2021
Time   : 14:40:35
Host   : "uc2n513.localdomain"
PID    : 231645
I/O    : uncollated
Case   : /pfs/data5/home/kit/scc/nq7776/data/code/OBR/lidDrivenCavity3D/Variation_init/100/Variation_mesh/35/Variation_matrix_solver/CG_NoPrecond_CUDA/1631364031
nProcs : 1
sigFpe : Enabling floating point exception trapping (FOAM_SIGFPE).
fileModificationChecking : Monitoring run-time modified files using timeStampMaster (fileModificationSkew 10)
allowSystemOperations : Allowing user-supplied system call operations

// * * * * * * * * * * * * * * * * * * * * * * * * * * * * * * * * * * * * * //
Create time

Create mesh for time = 0

Reading transportProperties

Reading field p

Reading field U

Reading/calculating face flux field phi


Starting time loop

Time = 0.00285714

Courant Number mean: 0.190911 max: 0.908567
DILUPBiCGStab:  Solving for Ux, Initial residual = 0.0505974, Final residual = 1.07894e-06, No Iterations 5
DILUPBiCGStab:  Solving for Uy, Initial residual = 0.0886223, Final residual = 3.41025e-06, No Iterations 5
DILUPBiCGStab:  Solving for Uz, Initial residual = 0.109411, Final residual = 1.20546e-05, No Iterations 5
linear solve U 32408
[OGL LOG] init_host_sparsity_pattern : 11 ms
[OGL LOG] matrix not stored update host matrix
[OGL LOG] update_host_mtx : 5 ms
[OGL LOG] matrix is not yet sorted, compute sorting idxs
[OGL LOG] compute_sort : 318 ms
[OGL LOG] matrix is not yet sorted, sorting host matrix
[OGL LOG] sort_host_mtx_sparsity_pattern : 7 ms
[OGL LOG] sort_host_mtx : 4 ms
[OGL LOG] init_preconditioner : 0 ms
[OGL LOG] solve : 41 ms
nonecudaGKOCG:  Solving for p, Initial residual = 0.486126, Final residual = 9.98716e-07, No Iterations 286
linear solve p 1127060
time step continuity errors : sum local = 3.12119e-09, global = 2.78215e-21, cumulative = 2.78215e-21
[OGL LOG] init_preconditioner : 0 ms
[OGL LOG] solve : 40 ms
nonecudaGKOCG:  Solving for p, Initial residual = 0.248642, Final residual = 9.38774e-07, No Iterations 284
linear solve p 41792
time step continuity errors : sum local = 2.30403e-09, global = 3.70537e-20, cumulative = 3.98359e-20
ExecutionTime = 1.43 s  ClockTime = 1 s

Time = 0.00571429

Courant Number mean: 0.190314 max: 0.910887
DILUPBiCGStab:  Solving for Ux, Initial residual = 0.00661151, Final residual = 3.58823e-06, No Iterations 5
DILUPBiCGStab:  Solving for Uy, Initial residual = 0.0135431, Final residual = 4.87532e-06, No Iterations 5
DILUPBiCGStab:  Solving for Uz, Initial residual = 0.0308807, Final residual = 1.20679e-05, No Iterations 5
linear solve U 29515
[OGL LOG] init_preconditioner : 0 ms
[OGL LOG] solve : 40 ms
nonecudaGKOCG:  Solving for p, Initial residual = 0.200798, Final residual = 9.03207e-07, No Iterations 283
linear solve p 41856
time step continuity errors : sum local = 4.93894e-07, global = -2.37661e-20, cumulative = 1.60698e-20
[OGL LOG] init_preconditioner : 0 ms
[OGL LOG] solve : 40 ms
nonecudaGKOCG:  Solving for p, Initial residual = 0.141545, Final residual = 9.92554e-07, No Iterations 280
linear solve p 41437
time step continuity errors : sum local = 4.2546e-07, global = 5.74376e-20, cumulative = 7.35075e-20
ExecutionTime = 1.56 s  ClockTime = 1 s

Time = 0.00857143

Courant Number mean: 0.190208 max: 0.910339
DILUPBiCGStab:  Solving for Ux, Initial residual = 0.00191683, Final residual = 9.7868e-07, No Iterations 5
DILUPBiCGStab:  Solving for Uy, Initial residual = 0.00463122, Final residual = 1.82872e-06, No Iterations 5
DILUPBiCGStab:  Solving for Uz, Initial residual = 0.0123625, Final residual = 2.98013e-06, No Iterations 5
linear solve U 28885
[OGL LOG] init_preconditioner : 0 ms
[OGL LOG] solve : 40 ms
nonecudaGKOCG:  Solving for p, Initial residual = 0.091621, Final residual = 9.52056e-07, No Iterations 277
linear solve p 41134
time step continuity errors : sum local = 4.07955e-07, global = 2.5369e-20, cumulative = 9.88765e-20
[OGL LOG] init_preconditioner : 0 ms
[OGL LOG] solve : 41 ms
nonecudaGKOCG:  Solving for p, Initial residual = 0.0658169, Final residual = 9.79272e-07, No Iterations 275
linear solve p 43102
time step continuity errors : sum local = 4.22622e-07, global = 2.51309e-20, cumulative = 1.24007e-19
ExecutionTime = 1.7 s  ClockTime = 1 s

Time = 0.0114286

Courant Number mean: 0.190301 max: 0.911286
DILUPBiCGStab:  Solving for Ux, Initial residual = 0.000755341, Final residual = 2.04911e-07, No Iterations 5
DILUPBiCGStab:  Solving for Uy, Initial residual = 0.00183493, Final residual = 3.96979e-07, No Iterations 5
DILUPBiCGStab:  Solving for Uz, Initial residual = 0.0048783, Final residual = 1.19595e-06, No Iterations 5
linear solve U 29258
[OGL LOG] init_preconditioner : 0 ms
[OGL LOG] solve : 38 ms
nonecudaGKOCG:  Solving for p, Initial residual = 0.0479569, Final residual = 8.90958e-07, No Iterations 269
linear solve p 40036
time step continuity errors : sum local = 4.27014e-07, global = 6.1043e-21, cumulative = 1.30112e-19
[OGL LOG] init_preconditioner : 0 ms
[OGL LOG] solve : 38 ms
nonecudaGKOCG:  Solving for p, Initial residual = 0.0341454, Final residual = 8.50775e-07, No Iterations 268
linear solve p 39872
time step continuity errors : sum local = 4.22847e-07, global = 1.00479e-19, cumulative = 2.30591e-19
ExecutionTime = 1.84 s  ClockTime = 2 s

Time = 0.0142857

Courant Number mean: 0.19029 max: 0.911194
DILUPBiCGStab:  Solving for Ux, Initial residual = 0.000356107, Final residual = 7.45514e-08, No Iterations 5
DILUPBiCGStab:  Solving for Uy, Initial residual = 0.000881868, Final residual = 1.60515e-07, No Iterations 5
DILUPBiCGStab:  Solving for Uz, Initial residual = 0.00222547, Final residual = 4.2638e-07, No Iterations 5
linear solve U 28979
[OGL LOG] init_preconditioner : 0 ms
[OGL LOG] solve : 38 ms
nonecudaGKOCG:  Solving for p, Initial residual = 0.0253804, Final residual = 9.58023e-07, No Iterations 263
linear solve p 39108
time step continuity errors : sum local = 4.21764e-07, global = -3.34423e-20, cumulative = 1.97149e-19
[OGL LOG] init_preconditioner : 0 ms
[OGL LOG] solve : 37 ms
nonecudaGKOCG:  Solving for p, Initial residual = 0.0177883, Final residual = 9.4935e-07, No Iterations 261
linear solve p 38820
time step continuity errors : sum local = 4.2287e-07, global = 3.07782e-20, cumulative = 2.27927e-19
ExecutionTime = 1.96 s  ClockTime = 2 s

Time = 0.0171429

Courant Number mean: 0.190299 max: 0.91131
DILUPBiCGStab:  Solving for Ux, Initial residual = 0.000190231, Final residual = 4.56956e-08, No Iterations 5
DILUPBiCGStab:  Solving for Uy, Initial residual = 0.000453126, Final residual = 2.8807e-08, No Iterations 5
DILUPBiCGStab:  Solving for Uz, Initial residual = 0.0012116, Final residual = 2.26095e-07, No Iterations 5
linear solve U 29610
[OGL LOG] init_preconditioner : 0 ms
[OGL LOG] solve : 18 ms
nonecudaGKOCG:  Solving for p, Initial residual = 0.0139424, Final residual = 9.99683e-07, No Iterations 124
linear solve p 19666
time step continuity errors : sum local = 4.23838e-07, global = 7.15866e-21, cumulative = 2.35086e-19
[OGL LOG] init_preconditioner : 0 ms
[OGL LOG] solve : 18 ms
nonecudaGKOCG:  Solving for p, Initial residual = 0.00975694, Final residual = 8.40261e-07, No Iterations 123
linear solve p 19614
time step continuity errors : sum local = 4.22944e-07, global = 1.0967e-19, cumulative = 3.44756e-19
ExecutionTime = 2.05 s  ClockTime = 2 s

Time = 0.02

Courant Number mean: 0.190298 max: 0.911278
DILUPBiCGStab:  Solving for Ux, Initial residual = 0.000106068, Final residual = 1.57995e-08, No Iterations 5
DILUPBiCGStab:  Solving for Uy, Initial residual = 0.00024275, Final residual = 2.88103e-08, No Iterations 5
DILUPBiCGStab:  Solving for Uz, Initial residual = 0.000691939, Final residual = 1.33683e-07, No Iterations 5
linear solve U 28915
[OGL LOG] init_preconditioner : 0 ms
[OGL LOG] solve : 17 ms
nonecudaGKOCG:  Solving for p, Initial residual = 0.00780558, Final residual = 9.97797e-07, No Iterations 117
linear solve p 18619
time step continuity errors : sum local = 4.23146e-07, global = 1.22795e-19, cumulative = 4.67551e-19
[OGL LOG] init_preconditioner : 0 ms
[OGL LOG] solve : 17 ms
nonecudaGKOCG:  Solving for p, Initial residual = 0.00544961, Final residual = 9.92708e-07, No Iterations 114
linear solve p 18125
time step continuity errors : sum local = 4.2302e-07, global = -6.08291e-20, cumulative = 4.06722e-19
ExecutionTime = 2.14 s  ClockTime = 2 s

Time = 0.0228571

Courant Number mean: 0.190301 max: 0.911306
DILUPBiCGStab:  Solving for Ux, Initial residual = 6.17993e-05, Final residual = 1.01791e-08, No Iterations 5
DILUPBiCGStab:  Solving for Uy, Initial residual = 0.000135648, Final residual = 2.26452e-08, No Iterations 5
DILUPBiCGStab:  Solving for Uz, Initial residual = 0.000417468, Final residual = 8.91468e-08, No Iterations 5
linear solve U 29254
[OGL LOG] init_preconditioner : 0 ms
[OGL LOG] solve : 16 ms
nonecudaGKOCG:  Solving for p, Initial residual = 0.00444584, Final residual = 9.83993e-07, No Iterations 111
linear solve p 17723
time step continuity errors : sum local = 4.23405e-07, global = -4.70435e-20, cumulative = 3.59678e-19
[OGL LOG] init_preconditioner : 0 ms
[OGL LOG] solve : 15 ms
nonecudaGKOCG:  Solving for p, Initial residual = 0.00311895, Final residual = 9.536e-07, No Iterations 106
linear solve p 16939
time step continuity errors : sum local = 4.23076e-07, global = 4.41898e-20, cumulative = 4.03868e-19
ExecutionTime = 2.23 s  ClockTime = 2 s

Time = 0.0257143

Courant Number mean: 0.190303 max: 0.911295
DILUPBiCGStab:  Solving for Ux, Initial residual = 3.68662e-05, Final residual = 6.10395e-09, No Iterations 5
DILUPBiCGStab:  Solving for Uy, Initial residual = 7.70418e-05, Final residual = 1.56294e-08, No Iterations 5
DILUPBiCGStab:  Solving for Uz, Initial residual = 0.00027798, Final residual = 6.70523e-08, No Iterations 5
linear solve U 28735
[OGL LOG] init_preconditioner : 0 ms
[OGL LOG] solve : 13 ms
nonecudaGKOCG:  Solving for p, Initial residual = 0.00255826, Final residual = 9.88808e-07, No Iterations 91
linear solve p 14917
time step continuity errors : sum local = 4.23195e-07, global = -6.53549e-20, cumulative = 3.38513e-19
[OGL LOG] init_preconditioner : 0 ms
[OGL LOG] solve : 13 ms
nonecudaGKOCG:  Solving for p, Initial residual = 0.00180338, Final residual = 9.57863e-07, No Iterations 90
linear solve p 14840
time step continuity errors : sum local = 4.22916e-07, global = -8.42472e-20, cumulative = 2.54266e-19
ExecutionTime = 2.3 s  ClockTime = 2 s

Time = 0.0285714

Courant Number mean: 0.190305 max: 0.911303
DILUPBiCGStab:  Solving for Ux, Initial residual = 2.31063e-05, Final residual = 4.18834e-09, No Iterations 5
DILUPBiCGStab:  Solving for Uy, Initial residual = 4.58712e-05, Final residual = 8.72474e-09, No Iterations 5
DILUPBiCGStab:  Solving for Uz, Initial residual = 0.00017875, Final residual = 4.35336e-08, No Iterations 5
linear solve U 29101
[OGL LOG] init_preconditioner : 0 ms
[OGL LOG] solve : 14 ms
nonecudaGKOCG:  Solving for p, Initial residual = 0.00148128, Final residual = 9.27973e-07, No Iterations 99
linear solve p 16059
time step continuity errors : sum local = 4.2323e-07, global = 3.94388e-20, cumulative = 2.93704e-19
[OGL LOG] init_preconditioner : 0 ms
[OGL LOG] solve : 14 ms
nonecudaGKOCG:  Solving for p, Initial residual = 0.00104988, Final residual = 9.59178e-07, No Iterations 93
linear solve p 15170
time step continuity errors : sum local = 4.23039e-07, global = 2.96512e-20, cumulative = 3.23356e-19
ExecutionTime = 2.38 s  ClockTime = 2 s

End

