/*---------------------------------------------------------------------------*\
  =========                 |
  \\      /  F ield         | OpenFOAM: The Open Source CFD Toolbox
   \\    /   O peration     | Website:  https://openfoam.org
    \\  /    A nd           | Version:  8
     \\/     M anipulation  |
\*---------------------------------------------------------------------------*/
Build  : 8-ef60d22ea792
Exec   : icoFoam
Date   : Sep 11 2021
Time   : 14:39:14
Host   : "uc2n513.localdomain"
PID    : 230899
I/O    : uncollated
Case   : /pfs/data5/home/kit/scc/nq7776/data/code/OBR/lidDrivenCavity3D/Variation_init/100/Variation_mesh/55/Variation_matrix_solver/CG_NoPrecond_CUDA/1631363947
nProcs : 1
sigFpe : Enabling floating point exception trapping (FOAM_SIGFPE).
fileModificationChecking : Monitoring run-time modified files using timeStampMaster (fileModificationSkew 10)
allowSystemOperations : Allowing user-supplied system call operations

// * * * * * * * * * * * * * * * * * * * * * * * * * * * * * * * * * * * * * //
Create time

Create mesh for time = 0

Reading transportProperties

Reading field p

Reading field U

Reading/calculating face flux field phi


Starting time loop

Time = 0.00181818

Courant Number mean: 0.191368 max: 0.957571
DILUPBiCGStab:  Solving for Ux, Initial residual = 0.060281, Final residual = 1.19981e-05, No Iterations 5
DILUPBiCGStab:  Solving for Uy, Initial residual = 0.121009, Final residual = 2.40294e-05, No Iterations 5
DILUPBiCGStab:  Solving for Uz, Initial residual = 0.150024, Final residual = 8.14301e-05, No Iterations 5
linear solve U 160613
[OGL LOG] init_host_sparsity_pattern : 46 ms
[OGL LOG] matrix not stored update host matrix
[OGL LOG] update_host_mtx : 24 ms
[OGL LOG] matrix is not yet sorted, compute sorting idxs
[OGL LOG] compute_sort : 1354 ms
[OGL LOG] matrix is not yet sorted, sorting host matrix
[OGL LOG] sort_host_mtx_sparsity_pattern : 31 ms
[OGL LOG] sort_host_mtx : 17 ms
[OGL LOG] init_preconditioner : 0 ms
[OGL LOG] solve : 142 ms
nonecudaGKOCG:  Solving for p, Initial residual = 0.606676, Final residual = 9.62953e-07, No Iterations 453
linear solve p 2356657
time step continuity errors : sum local = 1.57253e-09, global = -3.69513e-20, cumulative = -3.69513e-20
[OGL LOG] init_preconditioner : 0 ms
[OGL LOG] solve : 141 ms
nonecudaGKOCG:  Solving for p, Initial residual = 0.416236, Final residual = 9.28973e-07, No Iterations 453
linear solve p 146057
time step continuity errors : sum local = 1.0626e-09, global = -2.81785e-20, cumulative = -6.51299e-20
ExecutionTime = 3.51 s  ClockTime = 4 s

Time = 0.00363636

Courant Number mean: 0.191352 max: 0.944825
DILUPBiCGStab:  Solving for Ux, Initial residual = 0.00670433, Final residual = 6.36332e-06, No Iterations 5
DILUPBiCGStab:  Solving for Uy, Initial residual = 0.0143954, Final residual = 1.51312e-05, No Iterations 5
DILUPBiCGStab:  Solving for Uz, Initial residual = 0.0279076, Final residual = 4.82295e-05, No Iterations 5
linear solve U 146686
[OGL LOG] init_preconditioner : 0 ms
[OGL LOG] solve : 141 ms
nonecudaGKOCG:  Solving for p, Initial residual = 0.305548, Final residual = 9.15622e-07, No Iterations 450
linear solve p 146182
time step continuity errors : sum local = 3.7952e-07, global = 2.57095e-20, cumulative = -3.94204e-20
[OGL LOG] init_preconditioner : 0 ms
[OGL LOG] solve : 142 ms
nonecudaGKOCG:  Solving for p, Initial residual = 0.191027, Final residual = 9.4969e-07, No Iterations 447
linear solve p 147325
time step continuity errors : sum local = 3.65426e-07, global = 5.17449e-20, cumulative = 1.23246e-20
ExecutionTime = 4.04 s  ClockTime = 4 s

Time = 0.00545455

Courant Number mean: 0.191295 max: 0.943843
DILUPBiCGStab:  Solving for Ux, Initial residual = 0.00199583, Final residual = 3.95902e-06, No Iterations 5
DILUPBiCGStab:  Solving for Uy, Initial residual = 0.00440226, Final residual = 8.35741e-06, No Iterations 5
DILUPBiCGStab:  Solving for Uz, Initial residual = 0.0116551, Final residual = 2.18277e-05, No Iterations 5
linear solve U 145805
[OGL LOG] init_preconditioner : 0 ms
[OGL LOG] solve : 138 ms
nonecudaGKOCG:  Solving for p, Initial residual = 0.167146, Final residual = 9.97302e-07, No Iterations 443
linear solve p 143108
time step continuity errors : sum local = 3.6662e-07, global = -1.07768e-20, cumulative = 1.54783e-21
[OGL LOG] init_preconditioner : 0 ms
[OGL LOG] solve : 138 ms
nonecudaGKOCG:  Solving for p, Initial residual = 0.111651, Final residual = 9.92399e-07, No Iterations 441
linear solve p 143144
time step continuity errors : sum local = 3.63995e-07, global = -4.33489e-20, cumulative = -4.1801e-20
ExecutionTime = 4.56 s  ClockTime = 5 s

Time = 0.00727273

Courant Number mean: 0.191239 max: 0.94364
DILUPBiCGStab:  Solving for Ux, Initial residual = 0.00100384, Final residual = 1.25519e-06, No Iterations 5
DILUPBiCGStab:  Solving for Uy, Initial residual = 0.00220494, Final residual = 2.49966e-06, No Iterations 5
DILUPBiCGStab:  Solving for Uz, Initial residual = 0.00548629, Final residual = 7.55774e-06, No Iterations 5
linear solve U 146460
[OGL LOG] init_preconditioner : 0 ms
[OGL LOG] solve : 137 ms
nonecudaGKOCG:  Solving for p, Initial residual = 0.0998334, Final residual = 9.95077e-07, No Iterations 436
linear solve p 142226
time step continuity errors : sum local = 3.62548e-07, global = -3.93918e-20, cumulative = -8.11929e-20
[OGL LOG] init_preconditioner : 0 ms
[OGL LOG] solve : 138 ms
nonecudaGKOCG:  Solving for p, Initial residual = 0.0687791, Final residual = 9.11951e-07, No Iterations 435
linear solve p 143506
time step continuity errors : sum local = 3.63932e-07, global = 5.05428e-20, cumulative = -3.06501e-20
ExecutionTime = 5.08 s  ClockTime = 6 s

Time = 0.00909091

Courant Number mean: 0.191228 max: 0.943571
DILUPBiCGStab:  Solving for Ux, Initial residual = 0.000569942, Final residual = 8.00343e-07, No Iterations 5
DILUPBiCGStab:  Solving for Uy, Initial residual = 0.00122724, Final residual = 1.49969e-06, No Iterations 5
DILUPBiCGStab:  Solving for Uz, Initial residual = 0.00316096, Final residual = 6.0144e-06, No Iterations 5
linear solve U 145901
[OGL LOG] init_preconditioner : 0 ms
[OGL LOG] solve : 134 ms
nonecudaGKOCG:  Solving for p, Initial residual = 0.0620366, Final residual = 9.70404e-07, No Iterations 427
linear solve p 139540
time step continuity errors : sum local = 3.65135e-07, global = 2.19922e-20, cumulative = -8.65789e-21
[OGL LOG] init_preconditioner : 0 ms
[OGL LOG] solve : 132 ms
nonecudaGKOCG:  Solving for p, Initial residual = 0.0442009, Final residual = 9.41796e-07, No Iterations 425
linear solve p 137442
time step continuity errors : sum local = 3.64048e-07, global = -1.95252e-21, cumulative = -1.06104e-20
ExecutionTime = 5.6 s  ClockTime = 6 s

Time = 0.0109091

Courant Number mean: 0.191215 max: 0.943612
DILUPBiCGStab:  Solving for Ux, Initial residual = 0.000342117, Final residual = 4.38316e-07, No Iterations 5
DILUPBiCGStab:  Solving for Uy, Initial residual = 0.000740697, Final residual = 8.11541e-07, No Iterations 5
DILUPBiCGStab:  Solving for Uz, Initial residual = 0.00178928, Final residual = 2.73767e-06, No Iterations 5
linear solve U 145974
[OGL LOG] init_preconditioner : 0 ms
[OGL LOG] solve : 131 ms
nonecudaGKOCG:  Solving for p, Initial residual = 0.040211, Final residual = 9.52136e-07, No Iterations 418
linear solve p 136624
time step continuity errors : sum local = 3.63451e-07, global = -3.37151e-21, cumulative = -1.39819e-20
[OGL LOG] init_preconditioner : 0 ms
[OGL LOG] solve : 129 ms
nonecudaGKOCG:  Solving for p, Initial residual = 0.0294472, Final residual = 9.44442e-07, No Iterations 413
linear solve p 134083
time step continuity errors : sum local = 3.63942e-07, global = 3.60623e-21, cumulative = -1.03757e-20
ExecutionTime = 6.1 s  ClockTime = 7 s

Time = 0.0127273

Courant Number mean: 0.191209 max: 0.943562
DILUPBiCGStab:  Solving for Ux, Initial residual = 0.000215408, Final residual = 2.86322e-07, No Iterations 5
DILUPBiCGStab:  Solving for Uy, Initial residual = 0.000460248, Final residual = 5.88241e-07, No Iterations 5
DILUPBiCGStab:  Solving for Uz, Initial residual = 0.0011505, Final residual = 2.14045e-06, No Iterations 5
linear solve U 146603
[OGL LOG] init_preconditioner : 0 ms
[OGL LOG] solve : 127 ms
nonecudaGKOCG:  Solving for p, Initial residual = 0.0268394, Final residual = 9.90545e-07, No Iterations 403
linear solve p 133032
time step continuity errors : sum local = 3.64337e-07, global = -2.06743e-20, cumulative = -3.105e-20
[OGL LOG] init_preconditioner : 0 ms
[OGL LOG] solve : 125 ms
nonecudaGKOCG:  Solving for p, Initial residual = 0.020043, Final residual = 9.5387e-07, No Iterations 400
linear solve p 130165
time step continuity errors : sum local = 3.63996e-07, global = -4.1852e-20, cumulative = -7.29021e-20
ExecutionTime = 6.61 s  ClockTime = 7 s

Time = 0.0145455

Courant Number mean: 0.191205 max: 0.943588
DILUPBiCGStab:  Solving for Ux, Initial residual = 0.000142095, Final residual = 1.81632e-07, No Iterations 5
DILUPBiCGStab:  Solving for Uy, Initial residual = 0.000303032, Final residual = 4.18313e-07, No Iterations 5
DILUPBiCGStab:  Solving for Uz, Initial residual = 0.000727933, Final residual = 1.18929e-06, No Iterations 5
linear solve U 146905
[OGL LOG] init_preconditioner : 0 ms
[OGL LOG] solve : 64 ms
nonecudaGKOCG:  Solving for p, Initial residual = 0.0183036, Final residual = 9.67654e-07, No Iterations 202
linear solve p 69223
time step continuity errors : sum local = 3.64085e-07, global = -4.60176e-21, cumulative = -7.75038e-20
[OGL LOG] init_preconditioner : 0 ms
[OGL LOG] solve : 61 ms
nonecudaGKOCG:  Solving for p, Initial residual = 0.0138864, Final residual = 9.39488e-07, No Iterations 194
linear solve p 66762
time step continuity errors : sum local = 3.64056e-07, global = -1.10645e-20, cumulative = -8.85683e-20
ExecutionTime = 6.99 s  ClockTime = 7 s

Time = 0.0163636

Courant Number mean: 0.191203 max: 0.943562
DILUPBiCGStab:  Solving for Ux, Initial residual = 9.5942e-05, Final residual = 1.11539e-07, No Iterations 5
DILUPBiCGStab:  Solving for Uy, Initial residual = 0.00020202, Final residual = 2.78445e-07, No Iterations 5
DILUPBiCGStab:  Solving for Uz, Initial residual = 0.000507507, Final residual = 8.53374e-07, No Iterations 5
linear solve U 146134
[OGL LOG] init_preconditioner : 0 ms
[OGL LOG] solve : 115 ms
nonecudaGKOCG:  Solving for p, Initial residual = 0.0127006, Final residual = 9.99137e-07, No Iterations 364
linear solve p 119982
time step continuity errors : sum local = 3.64099e-07, global = 1.74849e-20, cumulative = -7.10834e-20
[OGL LOG] init_preconditioner : 0 ms
[OGL LOG] solve : 113 ms
nonecudaGKOCG:  Solving for p, Initial residual = 0.00973705, Final residual = 9.22701e-07, No Iterations 363
linear solve p 118679
time step continuity errors : sum local = 3.63958e-07, global = 3.60895e-20, cumulative = -3.49939e-20
ExecutionTime = 7.46 s  ClockTime = 8 s

Time = 0.0181818

Courant Number mean: 0.191202 max: 0.943575
DILUPBiCGStab:  Solving for Ux, Initial residual = 6.72145e-05, Final residual = 7.63195e-08, No Iterations 5
DILUPBiCGStab:  Solving for Uy, Initial residual = 0.000140352, Final residual = 1.65266e-07, No Iterations 5
DILUPBiCGStab:  Solving for Uz, Initial residual = 0.000341664, Final residual = 5.33687e-07, No Iterations 5
linear solve U 146250
[OGL LOG] init_preconditioner : 0 ms
[OGL LOG] solve : 59 ms
nonecudaGKOCG:  Solving for p, Initial residual = 0.00892909, Final residual = 9.45013e-07, No Iterations 184
linear solve p 64720
time step continuity errors : sum local = 3.64068e-07, global = -1.05392e-20, cumulative = -4.55331e-20
[OGL LOG] init_preconditioner : 0 ms
[OGL LOG] solve : 57 ms
nonecudaGKOCG:  Solving for p, Initial residual = 0.00689845, Final residual = 9.87444e-07, No Iterations 180
linear solve p 62346
time step continuity errors : sum local = 3.6404e-07, global = 4.24026e-20, cumulative = -3.13054e-21
ExecutionTime = 7.82 s  ClockTime = 8 s

End

