/*---------------------------------------------------------------------------*\
  =========                 |
  \\      /  F ield         | OpenFOAM: The Open Source CFD Toolbox
   \\    /   O peration     | Website:  https://openfoam.org
    \\  /    A nd           | Version:  8
     \\/     M anipulation  |
\*---------------------------------------------------------------------------*/
Build  : 8-ef60d22ea792
Exec   : icoFoam
Date   : Sep 11 2021
Time   : 14:17:56
Host   : "uc2n442.localdomain"
PID    : 3720993
I/O    : uncollated
Case   : /pfs/data5/home/kit/scc/nq7776/data/code/OBR/lidDrivenCavity3D/Variation_init/100/Variation_mesh/70/Variation_matrix_solver/CG_NoPrecond_Serial/1631362662
nProcs : 1
sigFpe : Enabling floating point exception trapping (FOAM_SIGFPE).
fileModificationChecking : Monitoring run-time modified files using timeStampMaster (fileModificationSkew 10)
allowSystemOperations : Allowing user-supplied system call operations

// * * * * * * * * * * * * * * * * * * * * * * * * * * * * * * * * * * * * * //
Create time

Create mesh for time = 0

Reading transportProperties

Reading field p

Reading field U

Reading/calculating face flux field phi


Starting time loop

Time = 0.00142857

Courant Number mean: 0.191369 max: 0.960255
DILUPBiCGStab:  Solving for Ux, Initial residual = 0.123219, Final residual = 1.08625e-05, No Iterations 5
DILUPBiCGStab:  Solving for Uy, Initial residual = 0.236374, Final residual = 2.69981e-05, No Iterations 5
DILUPBiCGStab:  Solving for Uz, Initial residual = 0.30937, Final residual = 0.000142646, No Iterations 5
linear solve U 338694
nonePCG:  Solving for p, Initial residual = 0.562471, Final residual = 9.63511e-07, No Iterations 573
linear solve p 2351403
time step continuity errors : sum local = 1.13915e-09, global = -4.02466e-20, cumulative = -4.02466e-20
nonePCG:  Solving for p, Initial residual = 0.247873, Final residual = 9.57167e-07, No Iterations 575
linear solve p 2317421
time step continuity errors : sum local = 6.63016e-10, global = -4.60018e-21, cumulative = -4.48468e-20
ExecutionTime = 6.82 s  ClockTime = 7 s

Time = 0.00285714

Courant Number mean: 0.191442 max: 0.955464
DILUPBiCGStab:  Solving for Ux, Initial residual = 0.00494474, Final residual = 1.88391e-05, No Iterations 5
DILUPBiCGStab:  Solving for Uy, Initial residual = 0.010261, Final residual = 3.24076e-05, No Iterations 5
DILUPBiCGStab:  Solving for Uz, Initial residual = 0.0333877, Final residual = 0.00012408, No Iterations 5
linear solve U 322053
nonePCG:  Solving for p, Initial residual = 0.235851, Final residual = 9.52033e-07, No Iterations 575
linear solve p 2316783
time step continuity errors : sum local = 6.5458e-10, global = 2.29471e-21, cumulative = -4.25521e-20
nonePCG:  Solving for p, Initial residual = 0.161707, Final residual = 9.6692e-07, No Iterations 572
linear solve p 2294513
time step continuity errors : sum local = 6.46853e-10, global = 2.94311e-20, cumulative = -1.3121e-20
ExecutionTime = 11.93 s  ClockTime = 12 s

Time = 0.00428571

Courant Number mean: 0.19146 max: 0.955931
DILUPBiCGStab:  Solving for Ux, Initial residual = 0.00112522, Final residual = 4.30605e-06, No Iterations 5
DILUPBiCGStab:  Solving for Uy, Initial residual = 0.00292404, Final residual = 9.89163e-06, No Iterations 5
DILUPBiCGStab:  Solving for Uz, Initial residual = 0.0148883, Final residual = 6.64286e-05, No Iterations 5
linear solve U 314332
nonePCG:  Solving for p, Initial residual = 0.144119, Final residual = 9.81187e-07, No Iterations 563
linear solve p 2268411
time step continuity errors : sum local = 6.30839e-10, global = -2.53963e-20, cumulative = -3.85173e-20
nonePCG:  Solving for p, Initial residual = 0.103387, Final residual = 9.45769e-07, No Iterations 561
linear solve p 2315105
time step continuity errors : sum local = 6.07788e-10, global = 3.37696e-20, cumulative = -4.74775e-21
ExecutionTime = 16.99 s  ClockTime = 17 s

Time = 0.00571429

Courant Number mean: 0.191438 max: 0.955696
DILUPBiCGStab:  Solving for Ux, Initial residual = 0.000668719, Final residual = 1.4599e-06, No Iterations 5
DILUPBiCGStab:  Solving for Uy, Initial residual = 0.00178008, Final residual = 4.57916e-06, No Iterations 5
DILUPBiCGStab:  Solving for Uz, Initial residual = 0.00718085, Final residual = 3.08457e-05, No Iterations 5
linear solve U 314080
nonePCG:  Solving for p, Initial residual = 0.0999967, Final residual = 9.93009e-07, No Iterations 555
linear solve p 2224804
time step continuity errors : sum local = 6.05873e-10, global = -1.33214e-20, cumulative = -1.80691e-20
nonePCG:  Solving for p, Initial residual = 0.0728496, Final residual = 9.28618e-07, No Iterations 554
linear solve p 2233239
time step continuity errors : sum local = 5.62581e-10, global = 3.71521e-20, cumulative = 1.9083e-20
ExecutionTime = 21.93 s  ClockTime = 22 s

Time = 0.00714286

Courant Number mean: 0.191433 max: 0.95573
DILUPBiCGStab:  Solving for Ux, Initial residual = 0.000437044, Final residual = 1.29951e-06, No Iterations 5
DILUPBiCGStab:  Solving for Uy, Initial residual = 0.00117768, Final residual = 2.93963e-06, No Iterations 5
DILUPBiCGStab:  Solving for Uz, Initial residual = 0.00449463, Final residual = 1.63353e-05, No Iterations 5
linear solve U 312609
nonePCG:  Solving for p, Initial residual = 0.0697455, Final residual = 9.7364e-07, No Iterations 546
linear solve p 2212426
time step continuity errors : sum local = 5.85912e-10, global = -9.59645e-21, cumulative = 9.48652e-21
nonePCG:  Solving for p, Initial residual = 0.050625, Final residual = 9.81356e-07, No Iterations 543
linear solve p 2174723
time step continuity errors : sum local = 5.90813e-10, global = 2.60984e-20, cumulative = 3.55849e-20
ExecutionTime = 26.8 s  ClockTime = 27 s

Time = 0.00857143

Courant Number mean: 0.191428 max: 0.9557
DILUPBiCGStab:  Solving for Ux, Initial residual = 0.000300134, Final residual = 8.36727e-07, No Iterations 5
DILUPBiCGStab:  Solving for Uy, Initial residual = 0.000803512, Final residual = 1.80427e-06, No Iterations 5
DILUPBiCGStab:  Solving for Uz, Initial residual = 0.00284443, Final residual = 8.70197e-06, No Iterations 5
linear solve U 313139
nonePCG:  Solving for p, Initial residual = 0.0502856, Final residual = 9.83408e-07, No Iterations 530
linear solve p 2170217
time step continuity errors : sum local = 5.788e-10, global = -1.14232e-20, cumulative = 2.41617e-20
nonePCG:  Solving for p, Initial residual = 0.0367553, Final residual = 9.6779e-07, No Iterations 523
linear solve p 2113962
time step continuity errors : sum local = 5.68225e-10, global = -4.63401e-20, cumulative = -2.21783e-20
ExecutionTime = 31.56 s  ClockTime = 31 s

Time = 0.01

Courant Number mean: 0.191426 max: 0.955692
DILUPBiCGStab:  Solving for Ux, Initial residual = 0.00020986, Final residual = 6.57407e-07, No Iterations 5
DILUPBiCGStab:  Solving for Uy, Initial residual = 0.000562457, Final residual = 1.23153e-06, No Iterations 5
DILUPBiCGStab:  Solving for Uz, Initial residual = 0.00194824, Final residual = 5.97886e-06, No Iterations 5
linear solve U 311957
nonePCG:  Solving for p, Initial residual = 0.036262, Final residual = 9.62623e-07, No Iterations 519
linear solve p 2129005
time step continuity errors : sum local = 5.63797e-10, global = 1.10909e-20, cumulative = -1.10874e-20
nonePCG:  Solving for p, Initial residual = 0.0265624, Final residual = 9.53421e-07, No Iterations 517
linear solve p 2072012
time step continuity errors : sum local = 5.58445e-10, global = 3.78416e-20, cumulative = 2.67542e-20
ExecutionTime = 36.24 s  ClockTime = 36 s

Time = 0.0114286

Courant Number mean: 0.191426 max: 0.955687
DILUPBiCGStab:  Solving for Ux, Initial residual = 0.000148408, Final residual = 4.39265e-07, No Iterations 5
DILUPBiCGStab:  Solving for Uy, Initial residual = 0.00040094, Final residual = 7.45377e-07, No Iterations 5
DILUPBiCGStab:  Solving for Uz, Initial residual = 0.00133526, Final residual = 3.4846e-06, No Iterations 5
linear solve U 313887
nonePCG:  Solving for p, Initial residual = 0.0266499, Final residual = 9.97527e-07, No Iterations 511
linear solve p 2092963
time step continuity errors : sum local = 5.78313e-10, global = -8.57067e-21, cumulative = 1.81835e-20
nonePCG:  Solving for p, Initial residual = 0.0196436, Final residual = 9.90451e-07, No Iterations 482
linear solve p 1946445
time step continuity errors : sum local = 5.73692e-10, global = -3.34967e-20, cumulative = -1.53132e-20
ExecutionTime = 40.77 s  ClockTime = 41 s

Time = 0.0128571

Courant Number mean: 0.191427 max: 0.955681
DILUPBiCGStab:  Solving for Ux, Initial residual = 0.000106799, Final residual = 2.65658e-07, No Iterations 5
DILUPBiCGStab:  Solving for Uy, Initial residual = 0.000291528, Final residual = 4.89253e-07, No Iterations 5
DILUPBiCGStab:  Solving for Uz, Initial residual = 0.000961112, Final residual = 2.92672e-06, No Iterations 5
linear solve U 312096
nonePCG:  Solving for p, Initial residual = 0.0196481, Final residual = 9.78823e-07, No Iterations 464
linear solve p 1904030
time step continuity errors : sum local = 5.66282e-10, global = 7.73987e-21, cumulative = -7.57329e-21
nonePCG:  Solving for p, Initial residual = 0.0145491, Final residual = 9.8997e-07, No Iterations 463
linear solve p 1856479
time step continuity errors : sum local = 5.72753e-10, global = 2.21719e-20, cumulative = 1.45986e-20
ExecutionTime = 45.01 s  ClockTime = 45 s

Time = 0.0142857

Courant Number mean: 0.191429 max: 0.955681
DILUPBiCGStab:  Solving for Ux, Initial residual = 7.7216e-05, Final residual = 1.49751e-07, No Iterations 5
DILUPBiCGStab:  Solving for Uy, Initial residual = 0.00021407, Final residual = 3.29206e-07, No Iterations 5
DILUPBiCGStab:  Solving for Uz, Initial residual = 0.000687373, Final residual = 1.84325e-06, No Iterations 5
linear solve U 313554
nonePCG:  Solving for p, Initial residual = 0.0146579, Final residual = 9.00606e-07, No Iterations 503
linear solve p 2063044
time step continuity errors : sum local = 5.18557e-10, global = -1.36748e-20, cumulative = 9.23801e-22
nonePCG:  Solving for p, Initial residual = 0.0109096, Final residual = 9.80786e-07, No Iterations 501
linear solve p 2021758
time step continuity errors : sum local = 5.64583e-10, global = -3.94265e-21, cumulative = -3.01885e-21
ExecutionTime = 49.58 s  ClockTime = 49 s

End

