/*---------------------------------------------------------------------------*\
  =========                 |
  \\      /  F ield         | OpenFOAM: The Open Source CFD Toolbox
   \\    /   O peration     | Website:  https://openfoam.org
    \\  /    A nd           | Version:  8
     \\/     M anipulation  |
\*---------------------------------------------------------------------------*/
Build  : 8-ef60d22ea792
Exec   : icoFoam
Date   : Sep 11 2021
Time   : 13:51:59
Host   : "uc2n513.localdomain"
PID    : 221933
I/O    : uncollated
Case   : /pfs/data5/home/kit/scc/nq7776/data/code/OBR/lidDrivenCavity3D/Variation_init/100/Variation_mesh/65/Variation_matrix_solver/CG_BJ_CUDA/1631361107
nProcs : 1
sigFpe : Enabling floating point exception trapping (FOAM_SIGFPE).
fileModificationChecking : Monitoring run-time modified files using timeStampMaster (fileModificationSkew 10)
allowSystemOperations : Allowing user-supplied system call operations

// * * * * * * * * * * * * * * * * * * * * * * * * * * * * * * * * * * * * * //
Create time

Create mesh for time = 0

Reading transportProperties

Reading field p

Reading field U

Reading/calculating face flux field phi


Starting time loop

Time = 0.00153846

Courant Number mean: 0.191448 max: 0.959317
DILUPBiCGStab:  Solving for Ux, Initial residual = 0.112017, Final residual = 1.40856e-05, No Iterations 5
DILUPBiCGStab:  Solving for Uy, Initial residual = 0.209721, Final residual = 3.34999e-05, No Iterations 5
DILUPBiCGStab:  Solving for Uz, Initial residual = 0.253067, Final residual = 9.19753e-05, No Iterations 5
linear solve U 275015
[OGL LOG] init_host_sparsity_pattern : 74 ms
[OGL LOG] matrix not stored update host matrix
[OGL LOG] update_host_mtx : 40 ms
[OGL LOG] matrix is not yet sorted, compute sorting idxs
[OGL LOG] compute_sort : 2369 ms
[OGL LOG] matrix is not yet sorted, sorting host matrix
[OGL LOG] sort_host_mtx_sparsity_pattern : 51 ms
[OGL LOG] sort_host_mtx : 28 ms
[OGL LOG] init_preconditioner : 30 ms
[OGL LOG] solve : 259 ms
BJcudaGKOCG:  Solving for p, Initial residual = 0.548046, Final residual = 9.99853e-07, No Iterations 465
linear solve p 3606959
time step continuity errors : sum local = 1.31243e-09, global = -1.91462e-20, cumulative = -1.91462e-20
[OGL LOG] init_preconditioner : 0 ms
[OGL LOG] solve : 256 ms
BJcudaGKOCG:  Solving for p, Initial residual = 0.305311, Final residual = 9.95167e-07, No Iterations 472
linear solve p 265038
time step continuity errors : sum local = 7.84183e-10, global = 2.22087e-20, cumulative = 3.06246e-21
ExecutionTime = 5.57 s  ClockTime = 6 s

Time = 0.00307692

Courant Number mean: 0.191613 max: 0.952625
DILUPBiCGStab:  Solving for Ux, Initial residual = 0.00530389, Final residual = 1.96326e-05, No Iterations 5
DILUPBiCGStab:  Solving for Uy, Initial residual = 0.01073, Final residual = 3.73461e-05, No Iterations 5
DILUPBiCGStab:  Solving for Uz, Initial residual = 0.0235182, Final residual = 8.31388e-05, No Iterations 5
linear solve U 254782
[OGL LOG] init_preconditioner : 0 ms
[OGL LOG] solve : 263 ms
BJcudaGKOCG:  Solving for p, Initial residual = 0.241045, Final residual = 9.75881e-07, No Iterations 486
linear solve p 271685
time step continuity errors : sum local = 2.58655e-07, global = 4.15054e-21, cumulative = 7.213e-21
[OGL LOG] init_preconditioner : 0 ms
[OGL LOG] solve : 262 ms
BJcudaGKOCG:  Solving for p, Initial residual = 0.201176, Final residual = 9.88984e-07, No Iterations 483
linear solve p 270587
time step continuity errors : sum local = 2.47752e-07, global = 1.03556e-20, cumulative = 1.75686e-20
ExecutionTime = 6.52 s  ClockTime = 7 s

Time = 0.00461538

Courant Number mean: 0.191576 max: 0.952768
DILUPBiCGStab:  Solving for Ux, Initial residual = 0.0014917, Final residual = 7.50671e-06, No Iterations 5
DILUPBiCGStab:  Solving for Uy, Initial residual = 0.0037837, Final residual = 1.56089e-05, No Iterations 5
DILUPBiCGStab:  Solving for Uz, Initial residual = 0.0123647, Final residual = 4.51492e-05, No Iterations 5
linear solve U 252564
[OGL LOG] init_preconditioner : 0 ms
[OGL LOG] solve : 245 ms
BJcudaGKOCG:  Solving for p, Initial residual = 0.153274, Final residual = 9.92971e-07, No Iterations 453
linear solve p 254210
time step continuity errors : sum local = 2.46564e-07, global = -1.4018e-20, cumulative = 3.55054e-21
[OGL LOG] init_preconditioner : 0 ms
[OGL LOG] solve : 245 ms
BJcudaGKOCG:  Solving for p, Initial residual = 0.127108, Final residual = 9.83325e-07, No Iterations 451
linear solve p 253686
time step continuity errors : sum local = 2.46535e-07, global = -2.6974e-20, cumulative = -2.34234e-20
ExecutionTime = 7.44 s  ClockTime = 7 s

Time = 0.00615385

Courant Number mean: 0.191478 max: 0.952387
DILUPBiCGStab:  Solving for Ux, Initial residual = 0.000807991, Final residual = 2.32776e-06, No Iterations 5
DILUPBiCGStab:  Solving for Uy, Initial residual = 0.00210971, Final residual = 5.15819e-06, No Iterations 5
DILUPBiCGStab:  Solving for Uz, Initial residual = 0.00658391, Final residual = 2.22827e-05, No Iterations 5
linear solve U 252624
[OGL LOG] init_preconditioner : 0 ms
[OGL LOG] solve : 231 ms
BJcudaGKOCG:  Solving for p, Initial residual = 0.105576, Final residual = 9.71054e-07, No Iterations 425
linear solve p 239705
time step continuity errors : sum local = 2.47313e-07, global = -1.98512e-20, cumulative = -4.32746e-20
[OGL LOG] init_preconditioner : 0 ms
[OGL LOG] solve : 230 ms
BJcudaGKOCG:  Solving for p, Initial residual = 0.0876459, Final residual = 9.49967e-07, No Iterations 424
linear solve p 238816
time step continuity errors : sum local = 2.46789e-07, global = 6.45324e-20, cumulative = 2.12578e-20
ExecutionTime = 8.34 s  ClockTime = 8 s

Time = 0.00769231

Courant Number mean: 0.191453 max: 0.952328
DILUPBiCGStab:  Solving for Ux, Initial residual = 0.000487462, Final residual = 1.86495e-06, No Iterations 5
DILUPBiCGStab:  Solving for Uy, Initial residual = 0.00134198, Final residual = 3.68966e-06, No Iterations 5
DILUPBiCGStab:  Solving for Uz, Initial residual = 0.00447422, Final residual = 1.41908e-05, No Iterations 5
linear solve U 252506
[OGL LOG] init_preconditioner : 0 ms
[OGL LOG] solve : 230 ms
BJcudaGKOCG:  Solving for p, Initial residual = 0.0741723, Final residual = 9.79357e-07, No Iterations 420
linear solve p 238285
time step continuity errors : sum local = 2.46727e-07, global = -2.84444e-20, cumulative = -7.18663e-21
[OGL LOG] init_preconditioner : 0 ms
[OGL LOG] solve : 227 ms
BJcudaGKOCG:  Solving for p, Initial residual = 0.0610311, Final residual = 9.65692e-07, No Iterations 419
linear solve p 235726
time step continuity errors : sum local = 2.46692e-07, global = -1.0895e-20, cumulative = -1.80816e-20
ExecutionTime = 9.22 s  ClockTime = 9 s

Time = 0.00923077

Courant Number mean: 0.191423 max: 0.952341
DILUPBiCGStab:  Solving for Ux, Initial residual = 0.000315138, Final residual = 8.37607e-07, No Iterations 5
DILUPBiCGStab:  Solving for Uy, Initial residual = 0.000910683, Final residual = 1.52766e-06, No Iterations 5
DILUPBiCGStab:  Solving for Uz, Initial residual = 0.00284699, Final residual = 7.11905e-06, No Iterations 5
linear solve U 251093
[OGL LOG] init_preconditioner : 0 ms
[OGL LOG] solve : 223 ms
BJcudaGKOCG:  Solving for p, Initial residual = 0.0537577, Final residual = 9.64429e-07, No Iterations 411
linear solve p 231761
time step continuity errors : sum local = 2.46882e-07, global = 1.00285e-20, cumulative = -8.0531e-21
[OGL LOG] init_preconditioner : 0 ms
[OGL LOG] solve : 223 ms
BJcudaGKOCG:  Solving for p, Initial residual = 0.0442796, Final residual = 9.40339e-07, No Iterations 410
linear solve p 231402
time step continuity errors : sum local = 2.46714e-07, global = -2.92422e-20, cumulative = -3.72953e-20
ExecutionTime = 10.1 s  ClockTime = 10 s

Time = 0.0107692

Courant Number mean: 0.191411 max: 0.952275
DILUPBiCGStab:  Solving for Ux, Initial residual = 0.000217874, Final residual = 6.99923e-07, No Iterations 5
DILUPBiCGStab:  Solving for Uy, Initial residual = 0.000649813, Final residual = 1.09435e-06, No Iterations 5
DILUPBiCGStab:  Solving for Uz, Initial residual = 0.00207251, Final residual = 5.60258e-06, No Iterations 5
linear solve U 256649
[OGL LOG] init_preconditioner : 0 ms
[OGL LOG] solve : 220 ms
BJcudaGKOCG:  Solving for p, Initial residual = 0.0392461, Final residual = 9.59306e-07, No Iterations 405
linear solve p 229243
time step continuity errors : sum local = 2.46658e-07, global = 8.54808e-21, cumulative = -2.87472e-20
[OGL LOG] init_preconditioner : 0 ms
[OGL LOG] solve : 218 ms
BJcudaGKOCG:  Solving for p, Initial residual = 0.0321863, Final residual = 9.72771e-07, No Iterations 403
linear solve p 227101
time step continuity errors : sum local = 2.46703e-07, global = 1.70524e-20, cumulative = -1.16948e-20
ExecutionTime = 10.98 s  ClockTime = 11 s

Time = 0.0123077

Courant Number mean: 0.1914 max: 0.9523
DILUPBiCGStab:  Solving for Ux, Initial residual = 0.00014985, Final residual = 4.20454e-07, No Iterations 5
DILUPBiCGStab:  Solving for Uy, Initial residual = 0.00047237, Final residual = 7.00749e-07, No Iterations 5
DILUPBiCGStab:  Solving for Uz, Initial residual = 0.00139512, Final residual = 2.75617e-06, No Iterations 5
linear solve U 252641
[OGL LOG] init_preconditioner : 0 ms
[OGL LOG] solve : 213 ms
BJcudaGKOCG:  Solving for p, Initial residual = 0.029084, Final residual = 9.28158e-07, No Iterations 391
linear solve p 221461
time step continuity errors : sum local = 2.46769e-07, global = -3.06326e-20, cumulative = -4.23274e-20
[OGL LOG] init_preconditioner : 0 ms
[OGL LOG] solve : 211 ms
BJcudaGKOCG:  Solving for p, Initial residual = 0.0238251, Final residual = 9.98336e-07, No Iterations 389
linear solve p 219889
time step continuity errors : sum local = 2.46724e-07, global = 2.12992e-20, cumulative = -2.10282e-20
ExecutionTime = 11.82 s  ClockTime = 12 s

Time = 0.0138462

Courant Number mean: 0.191394 max: 0.952267
DILUPBiCGStab:  Solving for Ux, Initial residual = 0.000108343, Final residual = 3.18361e-07, No Iterations 5
DILUPBiCGStab:  Solving for Uy, Initial residual = 0.000353252, Final residual = 4.53135e-07, No Iterations 5
DILUPBiCGStab:  Solving for Uz, Initial residual = 0.00103171, Final residual = 2.5397e-06, No Iterations 5
linear solve U 251152
[OGL LOG] init_preconditioner : 0 ms
[OGL LOG] solve : 208 ms
BJcudaGKOCG:  Solving for p, Initial residual = 0.0216377, Final residual = 9.81196e-07, No Iterations 384
linear solve p 217145
time step continuity errors : sum local = 2.46675e-07, global = 3.98862e-20, cumulative = 1.8858e-20
[OGL LOG] init_preconditioner : 0 ms
[OGL LOG] solve : 208 ms
BJcudaGKOCG:  Solving for p, Initial residual = 0.0176871, Final residual = 9.7516e-07, No Iterations 383
linear solve p 216706
time step continuity errors : sum local = 2.467e-07, global = -1.93151e-20, cumulative = -4.57154e-22
ExecutionTime = 12.68 s  ClockTime = 13 s

Time = 0.0153846

Courant Number mean: 0.191389 max: 0.952281
DILUPBiCGStab:  Solving for Ux, Initial residual = 7.69006e-05, Final residual = 2.13052e-07, No Iterations 5
DILUPBiCGStab:  Solving for Uy, Initial residual = 0.000261877, Final residual = 3.52971e-07, No Iterations 5
DILUPBiCGStab:  Solving for Uz, Initial residual = 0.000722815, Final residual = 1.56919e-06, No Iterations 5
linear solve U 250436
[OGL LOG] init_preconditioner : 0 ms
[OGL LOG] solve : 195 ms
BJcudaGKOCG:  Solving for p, Initial residual = 0.0162349, Final residual = 9.99203e-07, No Iterations 355
linear solve p 204328
time step continuity errors : sum local = 2.46749e-07, global = -1.53254e-20, cumulative = -1.57826e-20
[OGL LOG] init_preconditioner : 0 ms
[OGL LOG] solve : 191 ms
BJcudaGKOCG:  Solving for p, Initial residual = 0.0132549, Final residual = 9.87475e-07, No Iterations 351
linear solve p 200655
time step continuity errors : sum local = 2.46711e-07, global = 3.50361e-20, cumulative = 1.92535e-20
ExecutionTime = 13.5 s  ClockTime = 14 s

End

