/*---------------------------------------------------------------------------*\
  =========                 |
  \\      /  F ield         | OpenFOAM: The Open Source CFD Toolbox
   \\    /   O peration     | Website:  https://openfoam.org
    \\  /    A nd           | Version:  8
     \\/     M anipulation  |
\*---------------------------------------------------------------------------*/
Build  : 8-ef60d22ea792
Exec   : icoFoam
Date   : Sep 11 2021
Time   : 13:49:14
Host   : "uc2n513.localdomain"
PID    : 220222
I/O    : uncollated
Case   : /pfs/data5/home/kit/scc/nq7776/data/code/OBR/lidDrivenCavity3D/Variation_init/100/Variation_mesh/75/Variation_matrix_solver/CG_ILU_CUDA/1631360936
nProcs : 1
sigFpe : Enabling floating point exception trapping (FOAM_SIGFPE).
fileModificationChecking : Monitoring run-time modified files using timeStampMaster (fileModificationSkew 10)
allowSystemOperations : Allowing user-supplied system call operations

// * * * * * * * * * * * * * * * * * * * * * * * * * * * * * * * * * * * * * //
Create time

Create mesh for time = 0

Reading transportProperties

Reading field p

Reading field U

Reading/calculating face flux field phi


Starting time loop

Time = 0.00133333

Courant Number mean: 0.191396 max: 0.960629
DILUPBiCGStab:  Solving for Ux, Initial residual = 0.15118, Final residual = 1.71065e-05, No Iterations 5
DILUPBiCGStab:  Solving for Uy, Initial residual = 0.286633, Final residual = 4.01866e-05, No Iterations 5
DILUPBiCGStab:  Solving for Uz, Initial residual = 0.411091, Final residual = 0.000172886, No Iterations 5
linear solve U 434864
[OGL LOG] init_host_sparsity_pattern : 119 ms
[OGL LOG] matrix not stored update host matrix
[OGL LOG] update_host_mtx : 62 ms
[OGL LOG] matrix is not yet sorted, compute sorting idxs
[OGL LOG] compute_sort : 3619 ms
[OGL LOG] matrix is not yet sorted, sorting host matrix
[OGL LOG] sort_host_mtx_sparsity_pattern : 79 ms
[OGL LOG] sort_host_mtx : 49 ms
[OGL LOG] init_preconditioner : 126 ms
[OGL LOG] solve : 710 ms
ILUcudaGKOCG:  Solving for p, Initial residual = 0.61762, Final residual = 8.80586e-07, No Iterations 196
linear solve p 5525960
time step continuity errors : sum local = 1.06163e-09, global = -1.83301e-20, cumulative = -1.83301e-20
[OGL LOG] init_preconditioner : 0 ms
[OGL LOG] solve : 715 ms
ILUcudaGKOCG:  Solving for p, Initial residual = 0.268994, Final residual = 9.76329e-07, No Iterations 197
linear solve p 729703
time step continuity errors : sum local = 6.69258e-10, global = 1.0773e-20, cumulative = -7.55703e-21
ExecutionTime = 8.81 s  ClockTime = 9 s

Time = 0.00266667

Courant Number mean: 0.191562 max: 0.958264
DILUPBiCGStab:  Solving for Ux, Initial residual = 0.00536981, Final residual = 2.79411e-05, No Iterations 5
DILUPBiCGStab:  Solving for Uy, Initial residual = 0.0116942, Final residual = 5.45215e-05, No Iterations 5
DILUPBiCGStab:  Solving for Uz, Initial residual = 0.0561706, Final residual = 0.000161331, No Iterations 5
linear solve U 399878
[OGL LOG] init_preconditioner : 0 ms
[OGL LOG] solve : 715 ms
ILUcudaGKOCG:  Solving for p, Initial residual = 0.291197, Final residual = 8.30177e-07, No Iterations 197
linear solve p 728498
time step continuity errors : sum local = 1.65957e-07, global = -1.53729e-20, cumulative = -2.293e-20
[OGL LOG] init_preconditioner : 0 ms
[OGL LOG] solve : 710 ms
ILUcudaGKOCG:  Solving for p, Initial residual = 0.210423, Final residual = 9.91781e-07, No Iterations 196
linear solve p 722857
time step continuity errors : sum local = 1.58707e-07, global = -3.46987e-20, cumulative = -5.76287e-20
ExecutionTime = 10.92 s  ClockTime = 11 s

Time = 0.004

Courant Number mean: 0.191591 max: 0.95876
DILUPBiCGStab:  Solving for Ux, Initial residual = 0.00111729, Final residual = 6.77418e-06, No Iterations 5
DILUPBiCGStab:  Solving for Uy, Initial residual = 0.00329103, Final residual = 1.48457e-05, No Iterations 5
DILUPBiCGStab:  Solving for Uz, Initial residual = 0.0228466, Final residual = 0.000101581, No Iterations 5
linear solve U 401001
[OGL LOG] init_preconditioner : 0 ms
[OGL LOG] solve : 699 ms
ILUcudaGKOCG:  Solving for p, Initial residual = 0.173957, Final residual = 9.71259e-07, No Iterations 193
linear solve p 711784
time step continuity errors : sum local = 1.58794e-07, global = 4.22622e-20, cumulative = -1.53664e-20
[OGL LOG] init_preconditioner : 0 ms
[OGL LOG] solve : 696 ms
ILUcudaGKOCG:  Solving for p, Initial residual = 0.133645, Final residual = 9.86334e-07, No Iterations 192
linear solve p 710219
time step continuity errors : sum local = 1.58202e-07, global = 8.56818e-21, cumulative = -6.79827e-21
ExecutionTime = 12.99 s  ClockTime = 13 s

Time = 0.00533333

Courant Number mean: 0.19157 max: 0.958639
DILUPBiCGStab:  Solving for Ux, Initial residual = 0.000641062, Final residual = 2.64395e-06, No Iterations 5
DILUPBiCGStab:  Solving for Uy, Initial residual = 0.00199417, Final residual = 7.44959e-06, No Iterations 5
DILUPBiCGStab:  Solving for Uz, Initial residual = 0.0110215, Final residual = 5.53099e-05, No Iterations 5
linear solve U 393014
[OGL LOG] init_preconditioner : 0 ms
[OGL LOG] solve : 678 ms
ILUcudaGKOCG:  Solving for p, Initial residual = 0.124261, Final residual = 9.46572e-07, No Iterations 187
linear solve p 692769
time step continuity errors : sum local = 1.58733e-07, global = 4.41601e-21, cumulative = -2.38226e-21
[OGL LOG] init_preconditioner : 0 ms
[OGL LOG] solve : 673 ms
ILUcudaGKOCG:  Solving for p, Initial residual = 0.0986906, Final residual = 9.71023e-07, No Iterations 186
linear solve p 686561
time step continuity errors : sum local = 1.58211e-07, global = -5.26156e-22, cumulative = -2.90842e-21
ExecutionTime = 15.01 s  ClockTime = 15 s

Time = 0.00666667

Courant Number mean: 0.191555 max: 0.958628
DILUPBiCGStab:  Solving for Ux, Initial residual = 0.000431817, Final residual = 1.70262e-06, No Iterations 5
DILUPBiCGStab:  Solving for Uy, Initial residual = 0.00139006, Final residual = 3.98431e-06, No Iterations 5
DILUPBiCGStab:  Solving for Uz, Initial residual = 0.00712431, Final residual = 2.91139e-05, No Iterations 5
linear solve U 399927
[OGL LOG] init_preconditioner : 0 ms
[OGL LOG] solve : 672 ms
ILUcudaGKOCG:  Solving for p, Initial residual = 0.0914485, Final residual = 9.18122e-07, No Iterations 185
linear solve p 685629
time step continuity errors : sum local = 1.58537e-07, global = 7.26771e-21, cumulative = 4.3593e-21
[OGL LOG] init_preconditioner : 0 ms
[OGL LOG] solve : 666 ms
ILUcudaGKOCG:  Solving for p, Initial residual = 0.0726962, Final residual = 9.80249e-07, No Iterations 183
linear solve p 680137
time step continuity errors : sum local = 1.58265e-07, global = 1.13041e-20, cumulative = 1.56634e-20
ExecutionTime = 17.01 s  ClockTime = 17 s

Time = 0.008

Courant Number mean: 0.191545 max: 0.958667
DILUPBiCGStab:  Solving for Ux, Initial residual = 0.000309346, Final residual = 1.16639e-06, No Iterations 5
DILUPBiCGStab:  Solving for Uy, Initial residual = 0.00102742, Final residual = 2.92598e-06, No Iterations 5
DILUPBiCGStab:  Solving for Uz, Initial residual = 0.00471817, Final residual = 2.03009e-05, No Iterations 5
linear solve U 400963
[OGL LOG] init_preconditioner : 0 ms
[OGL LOG] solve : 728 ms
ILUcudaGKOCG:  Solving for p, Initial residual = 0.0703155, Final residual = 9.33777e-07, No Iterations 182
linear solve p 741636
time step continuity errors : sum local = 1.58213e-07, global = -1.08915e-20, cumulative = 4.77192e-21
[OGL LOG] init_preconditioner : 0 ms
[OGL LOG] solve : 729 ms
ILUcudaGKOCG:  Solving for p, Initial residual = 0.056461, Final residual = 9.89444e-07, No Iterations 181
linear solve p 743545
time step continuity errors : sum local = 1.58188e-07, global = 1.00317e-20, cumulative = 1.48036e-20
ExecutionTime = 19.15 s  ClockTime = 19 s

Time = 0.00933333

Courant Number mean: 0.191534 max: 0.958628
DILUPBiCGStab:  Solving for Ux, Initial residual = 0.000230432, Final residual = 8.65699e-07, No Iterations 5
DILUPBiCGStab:  Solving for Uy, Initial residual = 0.000779226, Final residual = 1.95154e-06, No Iterations 5
DILUPBiCGStab:  Solving for Uz, Initial residual = 0.00332497, Final residual = 1.32067e-05, No Iterations 5
linear solve U 394167
[OGL LOG] init_preconditioner : 0 ms
[OGL LOG] solve : 721 ms
ILUcudaGKOCG:  Solving for p, Initial residual = 0.0544282, Final residual = 9.51097e-07, No Iterations 180
linear solve p 734646
time step continuity errors : sum local = 1.58423e-07, global = 2.63727e-20, cumulative = 4.11763e-20
[OGL LOG] init_preconditioner : 0 ms
[OGL LOG] solve : 719 ms
ILUcudaGKOCG:  Solving for p, Initial residual = 0.0437511, Final residual = 8.48183e-07, No Iterations 180
linear solve p 734626
time step continuity errors : sum local = 1.58222e-07, global = -1.7262e-20, cumulative = 2.39143e-20
ExecutionTime = 21.26 s  ClockTime = 21 s

Time = 0.0106667

Courant Number mean: 0.191529 max: 0.958654
DILUPBiCGStab:  Solving for Ux, Initial residual = 0.000175087, Final residual = 6.50027e-07, No Iterations 5
DILUPBiCGStab:  Solving for Uy, Initial residual = 0.000604434, Final residual = 1.65659e-06, No Iterations 5
DILUPBiCGStab:  Solving for Uz, Initial residual = 0.00236736, Final residual = 9.55506e-06, No Iterations 5
linear solve U 401840
[OGL LOG] init_preconditioner : 0 ms
[OGL LOG] solve : 680 ms
ILUcudaGKOCG:  Solving for p, Initial residual = 0.0429321, Final residual = 9.84356e-07, No Iterations 169
linear solve p 693143
time step continuity errors : sum local = 1.58141e-07, global = 5.24398e-21, cumulative = 2.91583e-20
[OGL LOG] init_preconditioner : 0 ms
[OGL LOG] solve : 675 ms
ILUcudaGKOCG:  Solving for p, Initial residual = 0.0346712, Final residual = 9.29141e-07, No Iterations 168
linear solve p 689183
time step continuity errors : sum local = 1.58188e-07, global = 1.16302e-20, cumulative = 4.07885e-20
ExecutionTime = 23.29 s  ClockTime = 23 s

Time = 0.012

Courant Number mean: 0.191524 max: 0.958631
DILUPBiCGStab:  Solving for Ux, Initial residual = 0.000135644, Final residual = 4.72181e-07, No Iterations 5
DILUPBiCGStab:  Solving for Uy, Initial residual = 0.00047184, Final residual = 1.20487e-06, No Iterations 5
DILUPBiCGStab:  Solving for Uz, Initial residual = 0.0017359, Final residual = 7.007e-06, No Iterations 5
linear solve U 396104
[OGL LOG] init_preconditioner : 0 ms
[OGL LOG] solve : 709 ms
ILUcudaGKOCG:  Solving for p, Initial residual = 0.0339611, Final residual = 9.29385e-07, No Iterations 177
linear solve p 722225
time step continuity errors : sum local = 1.58351e-07, global = -1.02561e-20, cumulative = 3.05324e-20
[OGL LOG] init_preconditioner : 0 ms
[OGL LOG] solve : 713 ms
ILUcudaGKOCG:  Solving for p, Initial residual = 0.0274639, Final residual = 8.33944e-07, No Iterations 177
linear solve p 726933
time step continuity errors : sum local = 1.58205e-07, global = 3.35479e-20, cumulative = 6.40803e-20
ExecutionTime = 25.37 s  ClockTime = 25 s

Time = 0.0133333

Courant Number mean: 0.191521 max: 0.958646
DILUPBiCGStab:  Solving for Ux, Initial residual = 0.000105864, Final residual = 3.60004e-07, No Iterations 5
DILUPBiCGStab:  Solving for Uy, Initial residual = 0.000373733, Final residual = 1.02407e-06, No Iterations 5
DILUPBiCGStab:  Solving for Uz, Initial residual = 0.0012784, Final residual = 4.95992e-06, No Iterations 5
linear solve U 394997
[OGL LOG] init_preconditioner : 0 ms
[OGL LOG] solve : 647 ms
ILUcudaGKOCG:  Solving for p, Initial residual = 0.0271163, Final residual = 8.8302e-07, No Iterations 162
linear solve p 660490
time step continuity errors : sum local = 1.58124e-07, global = 2.05966e-20, cumulative = 8.46768e-20
[OGL LOG] init_preconditioner : 0 ms
[OGL LOG] solve : 645 ms
ILUcudaGKOCG:  Solving for p, Initial residual = 0.0219852, Final residual = 8.88093e-07, No Iterations 161
linear solve p 659081
time step continuity errors : sum local = 1.58186e-07, global = -1.74102e-20, cumulative = 6.72666e-20
ExecutionTime = 27.33 s  ClockTime = 27 s

End

