/*---------------------------------------------------------------------------*\
  =========                 |
  \\      /  F ield         | OpenFOAM: The Open Source CFD Toolbox
   \\    /   O peration     | Website:  https://openfoam.org
    \\  /    A nd           | Version:  8
     \\/     M anipulation  |
\*---------------------------------------------------------------------------*/
Build  : 8-ef60d22ea792
Exec   : icoFoam
Date   : Sep 11 2021
Time   : 14:53:50
Host   : "uc2n442.localdomain"
PID    : 3723865
I/O    : uncollated
Case   : /pfs/data5/home/kit/scc/nq7776/data/code/OBR/lidDrivenCavity3D/Variation_init/100/Variation_mesh/50/Variation_matrix_solver/CG_DIC_Serial/1631364827
nProcs : 1
sigFpe : Enabling floating point exception trapping (FOAM_SIGFPE).
fileModificationChecking : Monitoring run-time modified files using timeStampMaster (fileModificationSkew 10)
allowSystemOperations : Allowing user-supplied system call operations

// * * * * * * * * * * * * * * * * * * * * * * * * * * * * * * * * * * * * * //
Create time

Create mesh for time = 0

Reading transportProperties

Reading field p

Reading field U

Reading/calculating face flux field phi


Starting time loop

Time = 0.002

Courant Number mean: 0.192148 max: 0.956831
DILUPBiCGStab:  Solving for Ux, Initial residual = 0.172561, Final residual = 2.46398e-05, No Iterations 5
DILUPBiCGStab:  Solving for Uy, Initial residual = 0.345881, Final residual = 4.22593e-05, No Iterations 5
DILUPBiCGStab:  Solving for Uz, Initial residual = 0.516458, Final residual = 7.14476e-05, No Iterations 5
linear solve U 110573
DICPCG:  Solving for p, Initial residual = 0.676582, Final residual = 8.21315e-07, No Iterations 131
linear solve p 313655
time step continuity errors : sum local = 2.45881e-09, global = -3.22999e-20, cumulative = -3.22999e-20
DICPCG:  Solving for p, Initial residual = 0.411256, Final residual = 9.54564e-07, No Iterations 132
linear solve p 315056
time step continuity errors : sum local = 1.46708e-09, global = -4.68326e-20, cumulative = -7.91325e-20
ExecutionTime = 1.35 s  ClockTime = 1 s

Time = 0.004

Courant Number mean: 0.192597 max: 0.939084
DILUPBiCGStab:  Solving for Ux, Initial residual = 0.0107652, Final residual = 2.47591e-05, No Iterations 5
DILUPBiCGStab:  Solving for Uy, Initial residual = 0.0214039, Final residual = 3.55403e-05, No Iterations 5
DILUPBiCGStab:  Solving for Uz, Initial residual = 0.0908851, Final residual = 0.000102251, No Iterations 5
linear solve U 99660
DICPCG:  Solving for p, Initial residual = 0.329325, Final residual = 9.70083e-07, No Iterations 133
linear solve p 320660
time step continuity errors : sum local = 1.40482e-09, global = 2.37446e-20, cumulative = -5.53878e-20
DICPCG:  Solving for p, Initial residual = 0.245943, Final residual = 8.70373e-07, No Iterations 133
linear solve p 319182
time step continuity errors : sum local = 1.19998e-09, global = 2.59916e-20, cumulative = -2.93963e-20
ExecutionTime = 2.14 s  ClockTime = 2 s

Time = 0.006

Courant Number mean: 0.192342 max: 0.940635
DILUPBiCGStab:  Solving for Ux, Initial residual = 0.0035214, Final residual = 6.70908e-06, No Iterations 5
DILUPBiCGStab:  Solving for Uy, Initial residual = 0.00758771, Final residual = 1.70046e-05, No Iterations 5
DILUPBiCGStab:  Solving for Uz, Initial residual = 0.0401305, Final residual = 6.16714e-05, No Iterations 5
linear solve U 99009
DICPCG:  Solving for p, Initial residual = 0.174839, Final residual = 7.99657e-07, No Iterations 130
linear solve p 313509
time step continuity errors : sum local = 9.89794e-10, global = 8.28053e-21, cumulative = -2.11157e-20
DICPCG:  Solving for p, Initial residual = 0.135107, Final residual = 9.23882e-07, No Iterations 129
linear solve p 310518
time step continuity errors : sum local = 1.13986e-09, global = 2.10773e-20, cumulative = -3.84574e-23
ExecutionTime = 2.93 s  ClockTime = 3 s

Time = 0.008

Courant Number mean: 0.191845 max: 0.938398
DILUPBiCGStab:  Solving for Ux, Initial residual = 0.00145273, Final residual = 1.85295e-06, No Iterations 5
DILUPBiCGStab:  Solving for Uy, Initial residual = 0.002796, Final residual = 4.22005e-06, No Iterations 5
DILUPBiCGStab:  Solving for Uz, Initial residual = 0.0155959, Final residual = 2.27761e-05, No Iterations 5
linear solve U 99922
DICPCG:  Solving for p, Initial residual = 0.104352, Final residual = 9.85611e-07, No Iterations 127
linear solve p 304148
time step continuity errors : sum local = 1.14471e-09, global = 3.87441e-20, cumulative = 3.87056e-20
DICPCG:  Solving for p, Initial residual = 0.0812753, Final residual = 8.45101e-07, No Iterations 127
linear solve p 302076
time step continuity errors : sum local = 9.76185e-10, global = 9.32296e-21, cumulative = 4.80286e-20
ExecutionTime = 3.69 s  ClockTime = 4 s

Time = 0.01

Courant Number mean: 0.191684 max: 0.938455
DILUPBiCGStab:  Solving for Ux, Initial residual = 0.000754576, Final residual = 1.39928e-06, No Iterations 5
DILUPBiCGStab:  Solving for Uy, Initial residual = 0.00149115, Final residual = 3.19786e-06, No Iterations 5
DILUPBiCGStab:  Solving for Uz, Initial residual = 0.00883769, Final residual = 1.12743e-05, No Iterations 5
linear solve U 99255
DICPCG:  Solving for p, Initial residual = 0.0660554, Final residual = 9.69242e-07, No Iterations 88
linear solve p 211968
time step continuity errors : sum local = 1.38697e-09, global = 5.19849e-20, cumulative = 1.00013e-19
DICPCG:  Solving for p, Initial residual = 0.0511257, Final residual = 9.66826e-07, No Iterations 82
linear solve p 196927
time step continuity errors : sum local = 1.15487e-09, global = 9.43452e-21, cumulative = 1.09448e-19
ExecutionTime = 4.27 s  ClockTime = 4 s

Time = 0.012

Courant Number mean: 0.191526 max: 0.938315
DILUPBiCGStab:  Solving for Ux, Initial residual = 0.000475249, Final residual = 6.52297e-07, No Iterations 5
DILUPBiCGStab:  Solving for Uy, Initial residual = 0.000801314, Final residual = 1.23845e-06, No Iterations 5
DILUPBiCGStab:  Solving for Uz, Initial residual = 0.00455965, Final residual = 4.84689e-06, No Iterations 5
linear solve U 98506
DICPCG:  Solving for p, Initial residual = 0.0433159, Final residual = 9.73968e-07, No Iterations 66
linear solve p 159348
time step continuity errors : sum local = 1.17677e-09, global = -3.65611e-21, cumulative = 1.05792e-19
DICPCG:  Solving for p, Initial residual = 0.0334615, Final residual = 9.78748e-07, No Iterations 65
linear solve p 157039
time step continuity errors : sum local = 1.19131e-09, global = -1.38329e-20, cumulative = 9.1959e-20
ExecutionTime = 4.74 s  ClockTime = 5 s

Time = 0.014

Courant Number mean: 0.191434 max: 0.93818
DILUPBiCGStab:  Solving for Ux, Initial residual = 0.000304736, Final residual = 5.39134e-07, No Iterations 5
DILUPBiCGStab:  Solving for Uy, Initial residual = 0.000506327, Final residual = 8.00732e-07, No Iterations 5
DILUPBiCGStab:  Solving for Uz, Initial residual = 0.00278571, Final residual = 2.91035e-06, No Iterations 5
linear solve U 98768
DICPCG:  Solving for p, Initial residual = 0.0289441, Final residual = 9.48998e-07, No Iterations 64
linear solve p 155811
time step continuity errors : sum local = 1.19376e-09, global = 4.51829e-20, cumulative = 1.37142e-19
DICPCG:  Solving for p, Initial residual = 0.0222961, Final residual = 9.24162e-07, No Iterations 63
linear solve p 153010
time step continuity errors : sum local = 1.06119e-09, global = 2.07557e-20, cumulative = 1.57898e-19
ExecutionTime = 5.21 s  ClockTime = 5 s

Time = 0.016

Courant Number mean: 0.191359 max: 0.938152
DILUPBiCGStab:  Solving for Ux, Initial residual = 0.000210303, Final residual = 2.6093e-07, No Iterations 5
DILUPBiCGStab:  Solving for Uy, Initial residual = 0.000325561, Final residual = 3.73859e-07, No Iterations 5
DILUPBiCGStab:  Solving for Uz, Initial residual = 0.00161259, Final residual = 1.61822e-06, No Iterations 5
linear solve U 99059
DICPCG:  Solving for p, Initial residual = 0.019592, Final residual = 8.92157e-07, No Iterations 59
linear solve p 142496
time step continuity errors : sum local = 1.15983e-09, global = -9.72849e-21, cumulative = 1.48169e-19
DICPCG:  Solving for p, Initial residual = 0.0150597, Final residual = 9.75644e-07, No Iterations 58
linear solve p 140043
time step continuity errors : sum local = 1.19284e-09, global = 5.69666e-21, cumulative = 1.53866e-19
ExecutionTime = 5.65 s  ClockTime = 5 s

Time = 0.018

Courant Number mean: 0.191306 max: 0.938082
DILUPBiCGStab:  Solving for Ux, Initial residual = 0.000146002, Final residual = 1.4984e-07, No Iterations 5
DILUPBiCGStab:  Solving for Uy, Initial residual = 0.00022235, Final residual = 1.93111e-07, No Iterations 5
DILUPBiCGStab:  Solving for Uz, Initial residual = 0.00106682, Final residual = 9.92083e-07, No Iterations 5
linear solve U 99349
DICPCG:  Solving for p, Initial residual = 0.0133854, Final residual = 9.94078e-07, No Iterations 57
linear solve p 138081
time step continuity errors : sum local = 1.28e-09, global = -4.73009e-20, cumulative = 1.06565e-19
DICPCG:  Solving for p, Initial residual = 0.0102872, Final residual = 9.01383e-07, No Iterations 54
linear solve p 130953
time step continuity errors : sum local = 1.00062e-09, global = -9.28342e-21, cumulative = 9.72814e-20
ExecutionTime = 6.08 s  ClockTime = 6 s

Time = 0.02

Courant Number mean: 0.191264 max: 0.938065
DILUPBiCGStab:  Solving for Ux, Initial residual = 0.000105365, Final residual = 9.99378e-08, No Iterations 5
DILUPBiCGStab:  Solving for Uy, Initial residual = 0.000156172, Final residual = 1.07495e-07, No Iterations 5
DILUPBiCGStab:  Solving for Uz, Initial residual = 0.000685493, Final residual = 6.74526e-07, No Iterations 5
linear solve U 100123
DICPCG:  Solving for p, Initial residual = 0.00920076, Final residual = 9.61844e-07, No Iterations 57
linear solve p 138616
time step continuity errors : sum local = 1.35255e-09, global = 2.98475e-20, cumulative = 1.27129e-19
DICPCG:  Solving for p, Initial residual = 0.0070674, Final residual = 9.2663e-07, No Iterations 54
linear solve p 130404
time step continuity errors : sum local = 1.16104e-09, global = -1.45025e-20, cumulative = 1.12626e-19
ExecutionTime = 6.51 s  ClockTime = 6 s

End

