/*---------------------------------------------------------------------------*\
  =========                 |
  \\      /  F ield         | OpenFOAM: The Open Source CFD Toolbox
   \\    /   O peration     | Website:  https://openfoam.org
    \\  /    A nd           | Version:  8
     \\/     M anipulation  |
\*---------------------------------------------------------------------------*/
Build  : 8-ef60d22ea792
Exec   : icoFoam
Date   : Sep 11 2021
Time   : 14:28:17
Host   : "uc2n513.localdomain"
PID    : 227883
I/O    : uncollated
Case   : /pfs/data5/home/kit/scc/nq7776/data/code/OBR/lidDrivenCavity3D/Variation_init/100/Variation_mesh/80/Variation_matrix_solver/BiCGStab_BJ_CUDA/1631363276
nProcs : 1
sigFpe : Enabling floating point exception trapping (FOAM_SIGFPE).
fileModificationChecking : Monitoring run-time modified files using timeStampMaster (fileModificationSkew 10)
allowSystemOperations : Allowing user-supplied system call operations

// * * * * * * * * * * * * * * * * * * * * * * * * * * * * * * * * * * * * * //
Create time

Create mesh for time = 0

Reading transportProperties

Reading field p

Reading field U

Reading/calculating face flux field phi


Starting time loop

Time = 0.00125

Courant Number mean: 0.191396 max: 0.961531
DILUPBiCGStab:  Solving for Ux, Initial residual = 0.0903312, Final residual = 1.56905e-05, No Iterations 5
DILUPBiCGStab:  Solving for Uy, Initial residual = 0.170741, Final residual = 4.42871e-05, No Iterations 5
DILUPBiCGStab:  Solving for Uz, Initial residual = 0.209354, Final residual = 0.0001275, No Iterations 5
linear solve U 528849
[OGL LOG] init_host_sparsity_pattern : 145 ms
[OGL LOG] matrix not stored update host matrix
[OGL LOG] update_host_mtx : 75 ms
[OGL LOG] matrix is not yet sorted, compute sorting idxs
[OGL LOG] compute_sort : 4407 ms
[OGL LOG] matrix is not yet sorted, sorting host matrix
[OGL LOG] sort_host_mtx_sparsity_pattern : 97 ms
[OGL LOG] sort_host_mtx : 59 ms
[OGL LOG] init_preconditioner : 55 ms
[OGL LOG] solve : 675 ms
BJcudaGKOBiCGStab:  Solving for p, Initial residual = 0.614031, Final residual = 9.38217e-07, No Iterations 410
linear solve p 6289378
time step continuity errors : sum local = 1.44148e-06, global = -1.19661e-22, cumulative = -1.19661e-22
[OGL LOG] init_preconditioner : 0 ms
[OGL LOG] solve : 645 ms
BJcudaGKOBiCGStab:  Solving for p, Initial residual = 0.279653, Final residual = 3.03288e-07, No Iterations 394
linear solve p 660759
time step continuity errors : sum local = 1.41382e-05, global = -5.41437e-20, cumulative = -5.42633e-20
ExecutionTime = 9.98 s  ClockTime = 11 s

Time = 0.0025

Courant Number mean: 0.19147 max: 0.961377
DILUPBiCGStab:  Solving for Ux, Initial residual = 0.00522726, Final residual = 1.34703e-05, No Iterations 5
DILUPBiCGStab:  Solving for Uy, Initial residual = 0.01186, Final residual = 4.15244e-05, No Iterations 5
DILUPBiCGStab:  Solving for Uz, Initial residual = 0.0509896, Final residual = 0.00101264, No Iterations 5
linear solve U 488551
[OGL LOG] init_preconditioner : 0 ms
[OGL LOG] solve : 649 ms
BJcudaGKOBiCGStab:  Solving for p, Initial residual = 0.379594, Final residual = 9.45843e-07, No Iterations 398
linear solve p 665991
time step continuity errors : sum local = 4.78514e-07, global = 1.98133e-20, cumulative = -3.445e-20
[OGL LOG] init_preconditioner : 0 ms
[OGL LOG] solve : 693 ms
BJcudaGKOBiCGStab:  Solving for p, Initial residual = 0.262841, Final residual = 8.47125e-07, No Iterations 426
linear solve p 709009
time step continuity errors : sum local = 2.97657e-07, global = 3.36299e-21, cumulative = -3.1087e-20
ExecutionTime = 12.14 s  ClockTime = 13 s

Time = 0.00375

Courant Number mean: 0.191475 max: 0.961263
DILUPBiCGStab:  Solving for Ux, Initial residual = 0.00114615, Final residual = 7.44642e-06, No Iterations 5
DILUPBiCGStab:  Solving for Uy, Initial residual = 0.00344103, Final residual = 2.38917e-05, No Iterations 5
DILUPBiCGStab:  Solving for Uz, Initial residual = 0.0582171, Final residual = 0.000640855, No Iterations 5
linear solve U 491283
[OGL LOG] init_preconditioner : 0 ms
[OGL LOG] solve : 790 ms
BJcudaGKOBiCGStab:  Solving for p, Initial residual = 0.240866, Final residual = 5.08893e-07, No Iterations 485
linear solve p 806123
time step continuity errors : sum local = 4.10334e-07, global = 1.32418e-20, cumulative = -1.78452e-20
[OGL LOG] init_preconditioner : 0 ms
[OGL LOG] solve : 663 ms
BJcudaGKOBiCGStab:  Solving for p, Initial residual = 0.186917, Final residual = 5.00153e-07, No Iterations 405
linear solve p 680783
time step continuity errors : sum local = 1.60351e-05, global = -1.20535e-20, cumulative = -2.98987e-20
ExecutionTime = 14.43 s  ClockTime = 15 s

Time = 0.005

Courant Number mean: 0.191474 max: 0.961368
DILUPBiCGStab:  Solving for Ux, Initial residual = 0.000535733, Final residual = 3.56634e-06, No Iterations 5
DILUPBiCGStab:  Solving for Uy, Initial residual = 0.00183316, Final residual = 1.44173e-05, No Iterations 5
DILUPBiCGStab:  Solving for Uz, Initial residual = 0.0781804, Final residual = 0.00125337, No Iterations 5
linear solve U 488489
[OGL LOG] init_preconditioner : 0 ms
[OGL LOG] solve : 637 ms
BJcudaGKOBiCGStab:  Solving for p, Initial residual = 0.314711, Final residual = 9.70066e-07, No Iterations 390
linear solve p 653208
time step continuity errors : sum local = 3.83096e-07, global = -1.15957e-21, cumulative = -3.10583e-20
[OGL LOG] init_preconditioner : 0 ms
[OGL LOG] solve : 621 ms
BJcudaGKOBiCGStab:  Solving for p, Initial residual = 0.257828, Final residual = 9.96409e-07, No Iterations 381
linear solve p 637059
time step continuity errors : sum local = 2.58429e-05, global = -4.28656e-20, cumulative = -7.39239e-20
ExecutionTime = 16.51 s  ClockTime = 17 s

Time = 0.00625

Courant Number mean: 0.191488 max: 0.961979
DILUPBiCGStab:  Solving for Ux, Initial residual = 0.000433045, Final residual = 4.30157e-06, No Iterations 5
DILUPBiCGStab:  Solving for Uy, Initial residual = 0.00156943, Final residual = 1.59745e-05, No Iterations 5
DILUPBiCGStab:  Solving for Uz, Initial residual = 0.134682, Final residual = 0.00215751, No Iterations 5
linear solve U 487875
[OGL LOG] init_preconditioner : 0 ms
[OGL LOG] solve : 611 ms
BJcudaGKOBiCGStab:  Solving for p, Initial residual = 0.414467, Final residual = 5.4682e-07, No Iterations 374
linear solve p 631383
time step continuity errors : sum local = 1.69227e-05, global = 2.98299e-20, cumulative = -4.4094e-20
[OGL LOG] init_preconditioner : 0 ms
[OGL LOG] solve : 591 ms
BJcudaGKOBiCGStab:  Solving for p, Initial residual = 0.374165, Final residual = 9.12983e-07, No Iterations 362
linear solve p 607312
time step continuity errors : sum local = 2.10796e-05, global = 1.23233e-20, cumulative = -3.17707e-20
ExecutionTime = 18.52 s  ClockTime = 19 s

Time = 0.0075

Courant Number mean: 0.191503 max: 0.963399
DILUPBiCGStab:  Solving for Ux, Initial residual = 0.000499021, Final residual = 4.97979e-06, No Iterations 5
DILUPBiCGStab:  Solving for Uy, Initial residual = 0.00176717, Final residual = 1.80536e-05, No Iterations 5
DILUPBiCGStab:  Solving for Uz, Initial residual = 0.156091, Final residual = 0.00156619, No Iterations 5
linear solve U 491473
[OGL LOG] init_preconditioner : 0 ms
[OGL LOG] solve : 634 ms
BJcudaGKOBiCGStab:  Solving for p, Initial residual = 0.397248, Final residual = 4.50403e-07, No Iterations 389
linear solve p 650836
time step continuity errors : sum local = 4.92736e-06, global = 6.49479e-21, cumulative = -2.52759e-20
[OGL LOG] init_preconditioner : 0 ms
[OGL LOG] solve : 613 ms
BJcudaGKOBiCGStab:  Solving for p, Initial residual = 0.323288, Final residual = 9.96277e-07, No Iterations 377
linear solve p 628933
time step continuity errors : sum local = 7.7437e-08, global = -3.44562e-20, cumulative = -5.97321e-20
ExecutionTime = 20.59 s  ClockTime = 21 s

Time = 0.00875

Courant Number mean: 0.191495 max: 0.961926
DILUPBiCGStab:  Solving for Ux, Initial residual = 0.00039132, Final residual = 3.97092e-06, No Iterations 5
DILUPBiCGStab:  Solving for Uy, Initial residual = 0.00141029, Final residual = 1.33621e-05, No Iterations 5
DILUPBiCGStab:  Solving for Uz, Initial residual = 0.146831, Final residual = 0.00121483, No Iterations 5
linear solve U 492245
[OGL LOG] init_preconditioner : 0 ms
[OGL LOG] solve : 630 ms
BJcudaGKOBiCGStab:  Solving for p, Initial residual = 0.356389, Final residual = 1.75874e-07, No Iterations 386
linear solve p 645881
time step continuity errors : sum local = 2.8698e-05, global = -7.63783e-20, cumulative = -1.3611e-19
[OGL LOG] init_preconditioner : 0 ms
[OGL LOG] solve : 634 ms
BJcudaGKOBiCGStab:  Solving for p, Initial residual = 0.28966, Final residual = 9.28992e-07, No Iterations 389
linear solve p 649882
time step continuity errors : sum local = 1.83385e-06, global = 1.47085e-21, cumulative = -1.3464e-19
ExecutionTime = 22.69 s  ClockTime = 23 s

Time = 0.01

Courant Number mean: 0.1915 max: 0.962068
DILUPBiCGStab:  Solving for Ux, Initial residual = 0.000300637, Final residual = 2.95164e-06, No Iterations 5
DILUPBiCGStab:  Solving for Uy, Initial residual = 0.00114035, Final residual = 1.16826e-05, No Iterations 5
DILUPBiCGStab:  Solving for Uz, Initial residual = 0.172753, Final residual = 0.00223478, No Iterations 5
linear solve U 487921
[OGL LOG] init_preconditioner : 0 ms
[OGL LOG] solve : 630 ms
BJcudaGKOBiCGStab:  Solving for p, Initial residual = 0.423912, Final residual = 9.4668e-07, No Iterations 386
linear solve p 645470
time step continuity errors : sum local = 1.25807e-06, global = 4.86095e-21, cumulative = -1.29779e-19
[OGL LOG] init_preconditioner : 0 ms
[OGL LOG] solve : 636 ms
BJcudaGKOBiCGStab:  Solving for p, Initial residual = 0.364432, Final residual = 6.01606e-07, No Iterations 389
linear solve p 652192
time step continuity errors : sum local = 5.4333e-06, global = -2.48779e-21, cumulative = -1.32266e-19
ExecutionTime = 24.77 s  ClockTime = 25 s

Time = 0.01125

Courant Number mean: 0.191516 max: 0.962898
DILUPBiCGStab:  Solving for Ux, Initial residual = 0.00043047, Final residual = 4.50393e-06, No Iterations 5
DILUPBiCGStab:  Solving for Uy, Initial residual = 0.00152848, Final residual = 1.55827e-05, No Iterations 5
DILUPBiCGStab:  Solving for Uz, Initial residual = 0.181712, Final residual = 0.00159883, No Iterations 5
linear solve U 488744
[OGL LOG] init_preconditioner : 0 ms
[OGL LOG] solve : 597 ms
BJcudaGKOBiCGStab:  Solving for p, Initial residual = 0.406865, Final residual = 9.34868e-07, No Iterations 366
linear solve p 612679
time step continuity errors : sum local = 7.8848e-08, global = 2.40263e-20, cumulative = -1.0824e-19
[OGL LOG] init_preconditioner : 0 ms
[OGL LOG] solve : 614 ms
BJcudaGKOBiCGStab:  Solving for p, Initial residual = 0.350487, Final residual = 8.85726e-07, No Iterations 375
linear solve p 630575
time step continuity errors : sum local = 3.08279e-06, global = -7.4206e-21, cumulative = -1.15661e-19
ExecutionTime = 26.8 s  ClockTime = 27 s

Time = 0.0125

Courant Number mean: 0.191513 max: 0.962514
DILUPBiCGStab:  Solving for Ux, Initial residual = 0.000359276, Final residual = 3.80929e-06, No Iterations 5
DILUPBiCGStab:  Solving for Uy, Initial residual = 0.0012842, Final residual = 1.25282e-05, No Iterations 5
DILUPBiCGStab:  Solving for Uz, Initial residual = 0.162921, Final residual = 0.00105706, No Iterations 5
linear solve U 488615
[OGL LOG] init_preconditioner : 0 ms
[OGL LOG] solve : 639 ms
BJcudaGKOBiCGStab:  Solving for p, Initial residual = 0.379482, Final residual = 6.31207e-07, No Iterations 392
linear solve p 654763
time step continuity errors : sum local = 9.03486e-06, global = -8.89817e-22, cumulative = -1.16551e-19
[OGL LOG] init_preconditioner : 0 ms
[OGL LOG] solve : 646 ms
BJcudaGKOBiCGStab:  Solving for p, Initial residual = 0.307218, Final residual = 9.61912e-07, No Iterations 396
linear solve p 663721
time step continuity errors : sum local = 2.65642e-06, global = 1.50566e-20, cumulative = -1.01494e-19
ExecutionTime = 28.91 s  ClockTime = 29 s

End

