/*---------------------------------------------------------------------------*\
  =========                 |
  \\      /  F ield         | OpenFOAM: The Open Source CFD Toolbox
   \\    /   O peration     | Website:  https://openfoam.org
    \\  /    A nd           | Version:  8
     \\/     M anipulation  |
\*---------------------------------------------------------------------------*/
Build  : 8-ef60d22ea792
Exec   : icoFoam
Date   : Sep 11 2021
Time   : 14:44:37
Host   : "uc2n513.localdomain"
PID    : 234012
I/O    : uncollated
Case   : /pfs/data5/home/kit/scc/nq7776/data/code/OBR/lidDrivenCavity3D/Variation_init/100/Variation_mesh/45/Variation_matrix_solver/IR_NoPrecond_CUDA/1631364272
nProcs : 1
sigFpe : Enabling floating point exception trapping (FOAM_SIGFPE).
fileModificationChecking : Monitoring run-time modified files using timeStampMaster (fileModificationSkew 10)
allowSystemOperations : Allowing user-supplied system call operations

// * * * * * * * * * * * * * * * * * * * * * * * * * * * * * * * * * * * * * //
Create time

Create mesh for time = 0

Reading transportProperties

Reading field p

Reading field U

Reading/calculating face flux field phi


Starting time loop

Time = 0.00222222

Courant Number mean: 0.190928 max: 0.914047
DILUPBiCGStab:  Solving for Ux, Initial residual = 0.0595792, Final residual = 4.86933e-06, No Iterations 5
DILUPBiCGStab:  Solving for Uy, Initial residual = 0.0975024, Final residual = 1.18416e-05, No Iterations 5
DILUPBiCGStab:  Solving for Uz, Initial residual = 0.125234, Final residual = 3.53848e-05, No Iterations 5
linear solve U 79870
[OGL LOG] init_host_sparsity_pattern : 24 ms
[OGL LOG] matrix not stored update host matrix
[OGL LOG] update_host_mtx : 13 ms
[OGL LOG] matrix is not yet sorted, compute sorting idxs
[OGL LOG] compute_sort : 709 ms
[OGL LOG] matrix is not yet sorted, sorting host matrix
[OGL LOG] sort_host_mtx_sparsity_pattern : 17 ms
[OGL LOG] sort_host_mtx : 9 ms
[OGL LOG] init_preconditioner : 0 ms
[OGL LOG] solve : 59 ms
nonecudaGKOIR:  Solving for p, Initial residual = 0.429284, Final residual = 9.86014e-07, No Iterations 3
linear solve p 1581391
time step continuity errors : sum local = 1.90988e-09, global = -7.02378e-20, cumulative = -7.02378e-20
[OGL LOG] init_preconditioner : 0 ms
[OGL LOG] solve : 58 ms
nonecudaGKOIR:  Solving for p, Initial residual = 0.201177, Final residual = 4.46022e-07, No Iterations 3
linear solve p 61593
time step continuity errors : sum local = 8.11994e-10, global = -1.66396e-20, cumulative = -8.68775e-20
ExecutionTime = 2.19 s  ClockTime = 2 s

Time = 0.00444444

Courant Number mean: 0.190905 max: 0.929693
DILUPBiCGStab:  Solving for Ux, Initial residual = 0.00558483, Final residual = 5.75135e-06, No Iterations 5
DILUPBiCGStab:  Solving for Uy, Initial residual = 0.0107013, Final residual = 1.18912e-05, No Iterations 5
DILUPBiCGStab:  Solving for Uz, Initial residual = 0.026826, Final residual = 2.92607e-05, No Iterations 5
linear solve U 71539
[OGL LOG] init_preconditioner : 0 ms
[OGL LOG] solve : 58 ms
nonecudaGKOIR:  Solving for p, Initial residual = 0.22631, Final residual = 4.11424e-07, No Iterations 3
linear solve p 61312
time step continuity errors : sum local = 4.84886e-07, global = 1.42872e-20, cumulative = -7.25902e-20
[OGL LOG] init_preconditioner : 0 ms
[OGL LOG] solve : 58 ms
nonecudaGKOIR:  Solving for p, Initial residual = 0.154085, Final residual = 2.95534e-07, No Iterations 3
linear solve p 61451
time step continuity errors : sum local = 4.50087e-07, global = -3.46382e-20, cumulative = -1.07228e-19
ExecutionTime = 2.44 s  ClockTime = 2 s

Time = 0.00666667

Courant Number mean: 0.190867 max: 0.930873
DILUPBiCGStab:  Solving for Ux, Initial residual = 0.00160087, Final residual = 1.96983e-06, No Iterations 5
DILUPBiCGStab:  Solving for Uy, Initial residual = 0.00403774, Final residual = 4.80805e-06, No Iterations 5
DILUPBiCGStab:  Solving for Uz, Initial residual = 0.0116515, Final residual = 1.17048e-05, No Iterations 5
linear solve U 71028
[OGL LOG] init_preconditioner : 0 ms
[OGL LOG] solve : 59 ms
nonecudaGKOIR:  Solving for p, Initial residual = 0.101694, Final residual = 1.76555e-07, No Iterations 3
linear solve p 61905
time step continuity errors : sum local = 4.36677e-07, global = 7.06137e-21, cumulative = -1.00167e-19
[OGL LOG] init_preconditioner : 0 ms
[OGL LOG] solve : 58 ms
nonecudaGKOIR:  Solving for p, Initial residual = 0.0701943, Final residual = 1.27748e-07, No Iterations 3
linear solve p 61248
time step continuity errors : sum local = 4.48677e-07, global = 1.86745e-20, cumulative = -8.14925e-20
ExecutionTime = 2.68 s  ClockTime = 3 s

Time = 0.00888889

Courant Number mean: 0.190895 max: 0.931103
DILUPBiCGStab:  Solving for Ux, Initial residual = 0.000646265, Final residual = 9.83056e-07, No Iterations 5
DILUPBiCGStab:  Solving for Uy, Initial residual = 0.00163883, Final residual = 1.63721e-06, No Iterations 5
DILUPBiCGStab:  Solving for Uz, Initial residual = 0.00471946, Final residual = 4.58462e-06, No Iterations 5
linear solve U 71344
[OGL LOG] init_preconditioner : 0 ms
[OGL LOG] solve : 61 ms
nonecudaGKOIR:  Solving for p, Initial residual = 0.0528979, Final residual = 9.07943e-08, No Iterations 3
linear solve p 64709
time step continuity errors : sum local = 4.53673e-07, global = -4.96308e-20, cumulative = -1.31123e-19
[OGL LOG] init_preconditioner : 0 ms
[OGL LOG] solve : 59 ms
nonecudaGKOIR:  Solving for p, Initial residual = 0.0383972, Final residual = 6.99205e-08, No Iterations 3
linear solve p 62369
time step continuity errors : sum local = 4.49093e-07, global = 2.61442e-20, cumulative = -1.04979e-19
ExecutionTime = 2.94 s  ClockTime = 3 s

Time = 0.0111111

Courant Number mean: 0.190873 max: 0.931033
DILUPBiCGStab:  Solving for Ux, Initial residual = 0.000313652, Final residual = 3.36283e-07, No Iterations 5
DILUPBiCGStab:  Solving for Uy, Initial residual = 0.000835137, Final residual = 8.23093e-07, No Iterations 5
DILUPBiCGStab:  Solving for Uz, Initial residual = 0.00234887, Final residual = 2.20573e-06, No Iterations 5
linear solve U 71262
[OGL LOG] init_preconditioner : 0 ms
[OGL LOG] solve : 60 ms
nonecudaGKOIR:  Solving for p, Initial residual = 0.0293677, Final residual = 4.66397e-08, No Iterations 3
linear solve p 63039
time step continuity errors : sum local = 4.47338e-07, global = -2.63818e-20, cumulative = -1.31361e-19
[OGL LOG] init_preconditioner : 0 ms
[OGL LOG] solve : 61 ms
nonecudaGKOIR:  Solving for p, Initial residual = 0.0215249, Final residual = 3.98623e-08, No Iterations 3
linear solve p 64837
time step continuity errors : sum local = 4.48935e-07, global = -9.8085e-20, cumulative = -2.29446e-19
ExecutionTime = 3.18 s  ClockTime = 3 s

Time = 0.0133333

Courant Number mean: 0.190876 max: 0.931058
DILUPBiCGStab:  Solving for Ux, Initial residual = 0.000178961, Final residual = 2.32341e-07, No Iterations 5
DILUPBiCGStab:  Solving for Uy, Initial residual = 0.000452398, Final residual = 4.23115e-07, No Iterations 5
DILUPBiCGStab:  Solving for Uz, Initial residual = 0.00129014, Final residual = 1.18746e-06, No Iterations 5
linear solve U 71386
[OGL LOG] init_preconditioner : 0 ms
[OGL LOG] solve : 55 ms
nonecudaGKOIR:  Solving for p, Initial residual = 0.0175502, Final residual = 2.20441e-08, No Iterations 3
linear solve p 58571
time step continuity errors : sum local = 4.49659e-07, global = -6.29301e-21, cumulative = -2.35739e-19
[OGL LOG] init_preconditioner : 0 ms
[OGL LOG] solve : 61 ms
nonecudaGKOIR:  Solving for p, Initial residual = 0.013041, Final residual = 1.82817e-08, No Iterations 3
linear solve p 64392
time step continuity errors : sum local = 4.48989e-07, global = -2.1921e-20, cumulative = -2.5766e-19
ExecutionTime = 3.42 s  ClockTime = 3 s

Time = 0.0155556

Courant Number mean: 0.190871 max: 0.931023
DILUPBiCGStab:  Solving for Ux, Initial residual = 0.000105808, Final residual = 1.10651e-07, No Iterations 5
DILUPBiCGStab:  Solving for Uy, Initial residual = 0.000276296, Final residual = 2.78155e-07, No Iterations 5
DILUPBiCGStab:  Solving for Uz, Initial residual = 0.000764768, Final residual = 5.55454e-07, No Iterations 5
linear solve U 71636
[OGL LOG] init_preconditioner : 0 ms
[OGL LOG] solve : 53 ms
nonecudaGKOIR:  Solving for p, Initial residual = 0.0108837, Final residual = 1.58722e-08, No Iterations 3
linear solve p 56644
time step continuity errors : sum local = 4.48749e-07, global = -3.4055e-20, cumulative = -2.91715e-19
[OGL LOG] init_preconditioner : 0 ms
[OGL LOG] solve : 54 ms
nonecudaGKOIR:  Solving for p, Initial residual = 0.00813642, Final residual = 1.14571e-08, No Iterations 3
linear solve p 57547
time step continuity errors : sum local = 4.4897e-07, global = 1.85045e-20, cumulative = -2.7321e-19
ExecutionTime = 3.66 s  ClockTime = 4 s

Time = 0.0177778

Courant Number mean: 0.190873 max: 0.931034
DILUPBiCGStab:  Solving for Ux, Initial residual = 6.80857e-05, Final residual = 6.21456e-08, No Iterations 5
DILUPBiCGStab:  Solving for Uy, Initial residual = 0.00017516, Final residual = 1.38719e-07, No Iterations 5
DILUPBiCGStab:  Solving for Uz, Initial residual = 0.000486055, Final residual = 4.37222e-07, No Iterations 5
linear solve U 72304
[OGL LOG] init_preconditioner : 0 ms
[OGL LOG] solve : 53 ms
nonecudaGKOIR:  Solving for p, Initial residual = 0.00693479, Final residual = 1.01714e-08, No Iterations 3
linear solve p 56955
time step continuity errors : sum local = 4.49082e-07, global = -4.76778e-22, cumulative = -2.73687e-19
[OGL LOG] init_preconditioner : 0 ms
[OGL LOG] solve : 25 ms
nonecudaGKOIR:  Solving for p, Initial residual = 0.00521316, Final residual = 6.74609e-07, No Iterations 2
linear solve p 28291
time step continuity errors : sum local = 4.4935e-07, global = 4.23684e-20, cumulative = -2.31319e-19
ExecutionTime = 3.86 s  ClockTime = 4 s

Time = 0.02

Courant Number mean: 0.190873 max: 0.931017
DILUPBiCGStab:  Solving for Ux, Initial residual = 4.46767e-05, Final residual = 3.32287e-08, No Iterations 5
DILUPBiCGStab:  Solving for Uy, Initial residual = 0.000118443, Final residual = 8.64323e-08, No Iterations 5
DILUPBiCGStab:  Solving for Uz, Initial residual = 0.00032739, Final residual = 2.58324e-07, No Iterations 5
linear solve U 70699
[OGL LOG] init_preconditioner : 0 ms
[OGL LOG] solve : 39 ms
nonecudaGKOIR:  Solving for p, Initial residual = 0.00449971, Final residual = 6.58492e-07, No Iterations 2
linear solve p 42581
time step continuity errors : sum local = 4.49182e-07, global = 1.47675e-19, cumulative = -8.36439e-20
[OGL LOG] init_preconditioner : 0 ms
[OGL LOG] solve : 40 ms
nonecudaGKOIR:  Solving for p, Initial residual = 0.00339313, Final residual = 4.86711e-07, No Iterations 2
linear solve p 43030
time step continuity errors : sum local = 4.49117e-07, global = -4.38176e-20, cumulative = -1.27461e-19
ExecutionTime = 4.07 s  ClockTime = 4 s

Time = 0.0222222

Courant Number mean: 0.190876 max: 0.931022
DILUPBiCGStab:  Solving for Ux, Initial residual = 3.08221e-05, Final residual = 1.90682e-08, No Iterations 5
DILUPBiCGStab:  Solving for Uy, Initial residual = 8.08061e-05, Final residual = 4.36161e-08, No Iterations 5
DILUPBiCGStab:  Solving for Uz, Initial residual = 0.000231664, Final residual = 2.21459e-07, No Iterations 5
linear solve U 70949
[OGL LOG] init_preconditioner : 0 ms
[OGL LOG] solve : 43 ms
nonecudaGKOIR:  Solving for p, Initial residual = 0.00294697, Final residual = 3.91098e-07, No Iterations 2
linear solve p 46864
time step continuity errors : sum local = 4.491e-07, global = 1.76325e-20, cumulative = -1.09829e-19
[OGL LOG] init_preconditioner : 0 ms
[OGL LOG] solve : 45 ms
nonecudaGKOIR:  Solving for p, Initial residual = 0.00222521, Final residual = 2.94792e-07, No Iterations 2
linear solve p 48807
time step continuity errors : sum local = 4.49041e-07, global = 3.17019e-20, cumulative = -7.8127e-20
ExecutionTime = 4.29 s  ClockTime = 4 s

End

