/*---------------------------------------------------------------------------*\
  =========                 |
  \\      /  F ield         | OpenFOAM: The Open Source CFD Toolbox
   \\    /   O peration     | Website:  https://openfoam.org
    \\  /    A nd           | Version:  8
     \\/     M anipulation  |
\*---------------------------------------------------------------------------*/
Build  : 8-ef60d22ea792
Exec   : icoFoam
Date   : Sep 11 2021
Time   : 14:36:42
Host   : "uc2n513.localdomain"
PID    : 229597
I/O    : uncollated
Case   : /pfs/data5/home/kit/scc/nq7776/data/code/OBR/lidDrivenCavity3D/Variation_init/100/Variation_mesh/10/Variation_matrix_solver/CG_ILU_CUDA/1631363800
nProcs : 1
sigFpe : Enabling floating point exception trapping (FOAM_SIGFPE).
fileModificationChecking : Monitoring run-time modified files using timeStampMaster (fileModificationSkew 10)
allowSystemOperations : Allowing user-supplied system call operations

// * * * * * * * * * * * * * * * * * * * * * * * * * * * * * * * * * * * * * //
Create time

Create mesh for time = 0

Reading transportProperties

Reading field p

Reading field U

Reading/calculating face flux field phi


Starting time loop

Time = 0.01

Courant Number mean: 0.184879 max: 0.722295
DILUPBiCGStab:  Solving for Ux, Initial residual = 0.138471, Final residual = 2.65068e-09, No Iterations 5
DILUPBiCGStab:  Solving for Uy, Initial residual = 0.150118, Final residual = 5.88061e-10, No Iterations 5
DILUPBiCGStab:  Solving for Uz, Initial residual = 0.278898, Final residual = 3.06847e-09, No Iterations 5
linear solve U 793
[OGL LOG] init_host_sparsity_pattern : 0 ms
[OGL LOG] matrix not stored update host matrix
[OGL LOG] update_host_mtx : 0 ms
[OGL LOG] matrix is not yet sorted, compute sorting idxs
[OGL LOG] compute_sort : 5 ms
[OGL LOG] matrix is not yet sorted, sorting host matrix
[OGL LOG] sort_host_mtx_sparsity_pattern : 0 ms
[OGL LOG] sort_host_mtx : 0 ms
[OGL LOG] init_preconditioner : 3 ms
[OGL LOG] solve : 7 ms
ILUcudaGKOCG:  Solving for p, Initial residual = 0.615468, Final residual = 6.86562e-07, No Iterations 26
linear solve p 730138
time step continuity errors : sum local = 2.12025e-08, global = -7.42101e-19, cumulative = -7.42101e-19
[OGL LOG] init_preconditioner : 0 ms
[OGL LOG] solve : 6 ms
ILUcudaGKOCG:  Solving for p, Initial residual = 0.309181, Final residual = 5.19961e-07, No Iterations 26
linear solve p 6916
time step continuity errors : sum local = 9.08566e-09, global = 5.06549e-19, cumulative = -2.35552e-19
ExecutionTime = 0.78 s  ClockTime = 1 s

Time = 0.02

Courant Number mean: 0.181259 max: 0.69519
DILUPBiCGStab:  Solving for Ux, Initial residual = 0.0298072, Final residual = 1.18556e-09, No Iterations 5
DILUPBiCGStab:  Solving for Uy, Initial residual = 0.0402524, Final residual = 4.76423e-09, No Iterations 5
DILUPBiCGStab:  Solving for Uz, Initial residual = 0.0940018, Final residual = 1.1187e-09, No Iterations 5
linear solve U 558
[OGL LOG] init_preconditioner : 0 ms
[OGL LOG] solve : 6 ms
ILUcudaGKOCG:  Solving for p, Initial residual = 0.144567, Final residual = 7.6412e-07, No Iterations 25
linear solve p 6605
time step continuity errors : sum local = 2.73959e-05, global = -3.02483e-19, cumulative = -5.38035e-19
[OGL LOG] init_preconditioner : 0 ms
[OGL LOG] solve : 6 ms
ILUcudaGKOCG:  Solving for p, Initial residual = 0.0646376, Final residual = 2.8635e-07, No Iterations 25
linear solve p 6612
time step continuity errors : sum local = 2.45281e-05, global = -5.18245e-19, cumulative = -1.05628e-18
ExecutionTime = 0.79 s  ClockTime = 1 s

Time = 0.03

Courant Number mean: 0.179525 max: 0.686072
DILUPBiCGStab:  Solving for Ux, Initial residual = 0.00445948, Final residual = 1.13205e-10, No Iterations 5
DILUPBiCGStab:  Solving for Uy, Initial residual = 0.00704942, Final residual = 8.1757e-10, No Iterations 5
DILUPBiCGStab:  Solving for Uz, Initial residual = 0.0284291, Final residual = 1.456e-09, No Iterations 5
linear solve U 545
[OGL LOG] init_preconditioner : 0 ms
[OGL LOG] solve : 6 ms
ILUcudaGKOCG:  Solving for p, Initial residual = 0.0147296, Final residual = 4.48244e-07, No Iterations 23
linear solve p 6171
time step continuity errors : sum local = 2.44094e-05, global = -4.21002e-19, cumulative = -1.47728e-18
[OGL LOG] init_preconditioner : 0 ms
[OGL LOG] solve : 5 ms
ILUcudaGKOCG:  Solving for p, Initial residual = 0.00672024, Final residual = 7.37458e-07, No Iterations 22
linear solve p 5894
time step continuity errors : sum local = 2.44009e-05, global = 8.84091e-20, cumulative = -1.38887e-18
ExecutionTime = 0.8 s  ClockTime = 1 s

Time = 0.04

Courant Number mean: 0.178874 max: 0.683124
DILUPBiCGStab:  Solving for Ux, Initial residual = 0.00128753, Final residual = 3.61083e-11, No Iterations 5
DILUPBiCGStab:  Solving for Uy, Initial residual = 0.00194444, Final residual = 2.42842e-09, No Iterations 5
DILUPBiCGStab:  Solving for Uz, Initial residual = 0.00913876, Final residual = 3.83558e-10, No Iterations 5
linear solve U 547
[OGL LOG] init_preconditioner : 0 ms
[OGL LOG] solve : 5 ms
ILUcudaGKOCG:  Solving for p, Initial residual = 0.00287191, Final residual = 6.30815e-07, No Iterations 21
linear solve p 5683
time step continuity errors : sum local = 2.44714e-05, global = -2.83624e-19, cumulative = -1.6725e-18
[OGL LOG] init_preconditioner : 0 ms
[OGL LOG] solve : 5 ms
ILUcudaGKOCG:  Solving for p, Initial residual = 0.00179615, Final residual = 3.43595e-07, No Iterations 21
linear solve p 5736
time step continuity errors : sum local = 2.442e-05, global = -1.48297e-19, cumulative = -1.82079e-18
ExecutionTime = 0.82 s  ClockTime = 1 s

Time = 0.05

Courant Number mean: 0.178608 max: 0.682133
DILUPBiCGStab:  Solving for Ux, Initial residual = 0.000452242, Final residual = 9.8076e-12, No Iterations 5
DILUPBiCGStab:  Solving for Uy, Initial residual = 0.000695745, Final residual = 2.27835e-09, No Iterations 5
DILUPBiCGStab:  Solving for Uz, Initial residual = 0.00435413, Final residual = 1.51908e-10, No Iterations 5
linear solve U 556
[OGL LOG] init_preconditioner : 0 ms
[OGL LOG] solve : 5 ms
ILUcudaGKOCG:  Solving for p, Initial residual = 0.00105404, Final residual = 5.92419e-07, No Iterations 20
linear solve p 5473
time step continuity errors : sum local = 2.44351e-05, global = -3.91356e-19, cumulative = -2.21215e-18
[OGL LOG] init_preconditioner : 0 ms
[OGL LOG] solve : 5 ms
ILUcudaGKOCG:  Solving for p, Initial residual = 0.00062604, Final residual = 9.34304e-07, No Iterations 19
linear solve p 5233
time step continuity errors : sum local = 2.44232e-05, global = -5.15631e-19, cumulative = -2.72778e-18
ExecutionTime = 0.83 s  ClockTime = 1 s

Time = 0.06

Courant Number mean: 0.178489 max: 0.681727
DILUPBiCGStab:  Solving for Ux, Initial residual = 0.000193812, Final residual = 3.42744e-12, No Iterations 5
DILUPBiCGStab:  Solving for Uy, Initial residual = 0.000279369, Final residual = 8.66359e-11, No Iterations 5
DILUPBiCGStab:  Solving for Uz, Initial residual = 0.00217805, Final residual = 5.7866e-11, No Iterations 5
linear solve U 591
[OGL LOG] init_preconditioner : 0 ms
[OGL LOG] solve : 5 ms
ILUcudaGKOCG:  Solving for p, Initial residual = 0.000423307, Final residual = 6.68755e-07, No Iterations 19
linear solve p 5258
time step continuity errors : sum local = 2.44288e-05, global = -6.96817e-20, cumulative = -2.79746e-18
[OGL LOG] init_preconditioner : 0 ms
[OGL LOG] solve : 4 ms
ILUcudaGKOCG:  Solving for p, Initial residual = 0.000263223, Final residual = 9.54524e-07, No Iterations 18
linear solve p 5016
time step continuity errors : sum local = 2.44253e-05, global = -5.61159e-19, cumulative = -3.35862e-18
ExecutionTime = 0.85 s  ClockTime = 1 s

Time = 0.07

Courant Number mean: 0.178435 max: 0.68156
DILUPBiCGStab:  Solving for Ux, Initial residual = 9.15585e-05, Final residual = 1.03835e-12, No Iterations 5
DILUPBiCGStab:  Solving for Uy, Initial residual = 0.000124864, Final residual = 1.93358e-10, No Iterations 5
DILUPBiCGStab:  Solving for Uz, Initial residual = 0.00112203, Final residual = 2.52279e-11, No Iterations 5
linear solve U 565
[OGL LOG] init_preconditioner : 0 ms
[OGL LOG] solve : 4 ms
ILUcudaGKOCG:  Solving for p, Initial residual = 0.000192388, Final residual = 6.16331e-07, No Iterations 18
linear solve p 5021
time step continuity errors : sum local = 2.44273e-05, global = -5.03588e-19, cumulative = -3.86221e-18
[OGL LOG] init_preconditioner : 0 ms
[OGL LOG] solve : 4 ms
ILUcudaGKOCG:  Solving for p, Initial residual = 0.000117562, Final residual = 6.16759e-07, No Iterations 17
linear solve p 4749
time step continuity errors : sum local = 2.4425e-05, global = -5.70755e-19, cumulative = -4.43296e-18
ExecutionTime = 0.85 s  ClockTime = 1 s

Time = 0.08

Courant Number mean: 0.178409 max: 0.681485
DILUPBiCGStab:  Solving for Ux, Initial residual = 4.53272e-05, Final residual = 3.53861e-13, No Iterations 5
DILUPBiCGStab:  Solving for Uy, Initial residual = 5.92222e-05, Final residual = 6.90311e-12, No Iterations 5
DILUPBiCGStab:  Solving for Uz, Initial residual = 0.000587967, Final residual = 1.21285e-11, No Iterations 5
linear solve U 594
[OGL LOG] init_preconditioner : 0 ms
[OGL LOG] solve : 2 ms
ILUcudaGKOCG:  Solving for p, Initial residual = 9.34498e-05, Final residual = 8.99384e-07, No Iterations 8
linear solve p 2621
time step continuity errors : sum local = 2.44367e-05, global = -6.13371e-19, cumulative = -5.04634e-18
[OGL LOG] init_preconditioner : 0 ms
[OGL LOG] solve : 2 ms
ILUcudaGKOCG:  Solving for p, Initial residual = 5.79089e-05, Final residual = 4.54212e-07, No Iterations 8
linear solve p 2611
time step continuity errors : sum local = 2.44285e-05, global = 3.86723e-19, cumulative = -4.65961e-18
ExecutionTime = 0.86 s  ClockTime = 1 s

Time = 0.09

Courant Number mean: 0.178396 max: 0.681452
DILUPBiCGStab:  Solving for Ux, Initial residual = 2.2945e-05, Final residual = 1.2871e-13, No Iterations 5
DILUPBiCGStab:  Solving for Uy, Initial residual = 2.8967e-05, Final residual = 1.97943e-12, No Iterations 5
DILUPBiCGStab:  Solving for Uz, Initial residual = 0.000307341, Final residual = 5.68784e-12, No Iterations 5
linear solve U 594
[OGL LOG] init_preconditioner : 0 ms
[OGL LOG] solve : 2 ms
ILUcudaGKOCG:  Solving for p, Initial residual = 4.63674e-05, Final residual = 5.36998e-07, No Iterations 8
linear solve p 2646
time step continuity errors : sum local = 2.44328e-05, global = 4.38075e-20, cumulative = -4.6158e-18
[OGL LOG] init_preconditioner : 0 ms
[OGL LOG] solve : 2 ms
ILUcudaGKOCG:  Solving for p, Initial residual = 2.84569e-05, Final residual = 6.13596e-07, No Iterations 7
linear solve p 2382
time step continuity errors : sum local = 2.44293e-05, global = -4.76853e-19, cumulative = -5.09266e-18
ExecutionTime = 0.87 s  ClockTime = 1 s

Time = 0.1

Courant Number mean: 0.17839 max: 0.681436
DILUPBiCGStab:  Solving for Ux, Initial residual = 1.16434e-05, Final residual = 5.15177e-14, No Iterations 5
DILUPBiCGStab:  Solving for Uy, Initial residual = 1.45878e-05, Final residual = 8.85629e-13, No Iterations 5
DILUPBiCGStab:  Solving for Uz, Initial residual = 0.000161931, Final residual = 3.02982e-12, No Iterations 5
linear solve U 588
[OGL LOG] init_preconditioner : 0 ms
[OGL LOG] solve : 2 ms
ILUcudaGKOCG:  Solving for p, Initial residual = 2.32675e-05, Final residual = 7.42837e-07, No Iterations 7
linear solve p 2412
time step continuity errors : sum local = 2.44331e-05, global = 1.01379e-19, cumulative = -4.99128e-18
[OGL LOG] init_preconditioner : 0 ms
[OGL LOG] solve : 1 ms
ILUcudaGKOCG:  Solving for p, Initial residual = 1.44631e-05, Final residual = 7.74865e-07, No Iterations 6
linear solve p 2145
time step continuity errors : sum local = 2.44315e-05, global = 5.73071e-20, cumulative = -4.93397e-18
ExecutionTime = 0.87 s  ClockTime = 1 s

End

