/*---------------------------------------------------------------------------*\
  =========                 |
  \\      /  F ield         | OpenFOAM: The Open Source CFD Toolbox
   \\    /   O peration     | Website:  https://openfoam.org
    \\  /    A nd           | Version:  8
     \\/     M anipulation  |
\*---------------------------------------------------------------------------*/
Build  : 8-ef60d22ea792
Exec   : icoFoam
Date   : Sep 11 2021
Time   : 14:36:39
Host   : "uc2n442.localdomain"
PID    : 3722238
I/O    : uncollated
Case   : /pfs/data5/home/kit/scc/nq7776/data/code/OBR/lidDrivenCavity3D/Variation_init/100/Variation_mesh/80/Variation_matrix_solver/CG_DIC_Serial/1631363782
nProcs : 1
sigFpe : Enabling floating point exception trapping (FOAM_SIGFPE).
fileModificationChecking : Monitoring run-time modified files using timeStampMaster (fileModificationSkew 10)
allowSystemOperations : Allowing user-supplied system call operations

// * * * * * * * * * * * * * * * * * * * * * * * * * * * * * * * * * * * * * //
Create time

Create mesh for time = 0

Reading transportProperties

Reading field p

Reading field U

Reading/calculating face flux field phi


Starting time loop

Time = 0.00125

Courant Number mean: 0.191396 max: 0.961531
DILUPBiCGStab:  Solving for Ux, Initial residual = 0.0903312, Final residual = 1.56905e-05, No Iterations 5
DILUPBiCGStab:  Solving for Uy, Initial residual = 0.170741, Final residual = 4.42871e-05, No Iterations 5
DILUPBiCGStab:  Solving for Uz, Initial residual = 0.209354, Final residual = 0.0001275, No Iterations 5
linear solve U 505778
DICPCG:  Solving for p, Initial residual = 0.614031, Final residual = 9.47671e-07, No Iterations 207
linear solve p 2544568
time step continuity errors : sum local = 7.69372e-10, global = -1.46613e-20, cumulative = -1.46613e-20
DICPCG:  Solving for p, Initial residual = 0.278622, Final residual = 9.99636e-07, No Iterations 207
linear solve p 2514593
time step continuity errors : sum local = 6.46825e-10, global = 2.22314e-20, cumulative = 7.57014e-21
ExecutionTime = 8.02 s  ClockTime = 8 s

Time = 0.0025

Courant Number mean: 0.19147 max: 0.961377
DILUPBiCGStab:  Solving for Ux, Initial residual = 0.00522743, Final residual = 1.34963e-05, No Iterations 5
DILUPBiCGStab:  Solving for Uy, Initial residual = 0.011848, Final residual = 4.13061e-05, No Iterations 5
DILUPBiCGStab:  Solving for Uz, Initial residual = 0.0160839, Final residual = 8.98501e-05, No Iterations 5
linear solve U 467099
DICPCG:  Solving for p, Initial residual = 0.280795, Final residual = 9.50867e-07, No Iterations 207
linear solve p 2552364
time step continuity errors : sum local = 5.06203e-10, global = -1.306e-20, cumulative = -5.48982e-21
DICPCG:  Solving for p, Initial residual = 0.149926, Final residual = 8.56865e-07, No Iterations 207
linear solve p 2501878
time step continuity errors : sum local = 4.25811e-10, global = 7.7937e-21, cumulative = 2.30388e-21
ExecutionTime = 13.8 s  ClockTime = 14 s

Time = 0.00375

Courant Number mean: 0.19147 max: 0.961236
DILUPBiCGStab:  Solving for Ux, Initial residual = 0.00110797, Final residual = 5.95411e-06, No Iterations 5
DILUPBiCGStab:  Solving for Uy, Initial residual = 0.00325808, Final residual = 1.7143e-05, No Iterations 5
DILUPBiCGStab:  Solving for Uz, Initial residual = 0.00573312, Final residual = 4.75797e-05, No Iterations 5
linear solve U 469323
DICPCG:  Solving for p, Initial residual = 0.13994, Final residual = 9.23916e-07, No Iterations 206
linear solve p 2541267
time step continuity errors : sum local = 4.43649e-10, global = -8.13969e-21, cumulative = -5.83582e-21
DICPCG:  Solving for p, Initial residual = 0.0905432, Final residual = 7.88774e-07, No Iterations 206
linear solve p 2527249
time step continuity errors : sum local = 3.74096e-10, global = -4.1234e-21, cumulative = -9.95922e-21
ExecutionTime = 19.59 s  ClockTime = 20 s

Time = 0.005

Courant Number mean: 0.191473 max: 0.961205
DILUPBiCGStab:  Solving for Ux, Initial residual = 0.000493709, Final residual = 2.42564e-06, No Iterations 5
DILUPBiCGStab:  Solving for Uy, Initial residual = 0.00163683, Final residual = 9.14941e-06, No Iterations 5
DILUPBiCGStab:  Solving for Uz, Initial residual = 0.00336392, Final residual = 2.52849e-05, No Iterations 5
linear solve U 468108
DICPCG:  Solving for p, Initial residual = 0.0901014, Final residual = 8.99291e-07, No Iterations 204
linear solve p 2509947
time step continuity errors : sum local = 4.0889e-10, global = -4.30694e-21, cumulative = -1.42662e-20
DICPCG:  Solving for p, Initial residual = 0.0667961, Final residual = 9.44525e-07, No Iterations 203
linear solve p 2378627
time step continuity errors : sum local = 4.26582e-10, global = 1.88447e-20, cumulative = 4.5785e-21
ExecutionTime = 25.21 s  ClockTime = 26 s

Time = 0.00625

Courant Number mean: 0.191476 max: 0.961192
DILUPBiCGStab:  Solving for Ux, Initial residual = 0.000286405, Final residual = 1.82092e-06, No Iterations 5
DILUPBiCGStab:  Solving for Uy, Initial residual = 0.00102452, Final residual = 5.3506e-06, No Iterations 5
DILUPBiCGStab:  Solving for Uz, Initial residual = 0.00244399, Final residual = 1.96243e-05, No Iterations 5
linear solve U 468781
DICPCG:  Solving for p, Initial residual = 0.0650554, Final residual = 9.50891e-07, No Iterations 201
linear solve p 2384490
time step continuity errors : sum local = 4.31659e-10, global = -2.31566e-20, cumulative = -1.85781e-20
DICPCG:  Solving for p, Initial residual = 0.0503908, Final residual = 9.67167e-07, No Iterations 200
linear solve p 2464098
time step continuity errors : sum local = 4.40102e-10, global = -1.20608e-20, cumulative = -3.06389e-20
ExecutionTime = 30.79 s  ClockTime = 31 s

Time = 0.0075

Courant Number mean: 0.191483 max: 0.961209
DILUPBiCGStab:  Solving for Ux, Initial residual = 0.000201129, Final residual = 1.22931e-06, No Iterations 5
DILUPBiCGStab:  Solving for Uy, Initial residual = 0.000728396, Final residual = 2.99352e-06, No Iterations 5
DILUPBiCGStab:  Solving for Uz, Initial residual = 0.00170487, Final residual = 1.17603e-05, No Iterations 5
linear solve U 457348
DICPCG:  Solving for p, Initial residual = 0.0505969, Final residual = 8.76607e-07, No Iterations 198
linear solve p 2447908
time step continuity errors : sum local = 3.93364e-10, global = -1.06525e-20, cumulative = -4.12915e-20
DICPCG:  Solving for p, Initial residual = 0.0403259, Final residual = 7.75206e-07, No Iterations 198
linear solve p 2399643
time step continuity errors : sum local = 3.47149e-10, global = 9.16719e-21, cumulative = -3.21243e-20
ExecutionTime = 36.35 s  ClockTime = 37 s

Time = 0.00875

Courant Number mean: 0.191486 max: 0.961199
DILUPBiCGStab:  Solving for Ux, Initial residual = 0.000149348, Final residual = 8.31141e-07, No Iterations 5
DILUPBiCGStab:  Solving for Uy, Initial residual = 0.000560323, Final residual = 2.9151e-06, No Iterations 5
DILUPBiCGStab:  Solving for Uz, Initial residual = 0.0013185, Final residual = 1.00194e-05, No Iterations 5
linear solve U 466056
DICPCG:  Solving for p, Initial residual = 0.0400496, Final residual = 9.49104e-07, No Iterations 192
linear solve p 2230722
time step continuity errors : sum local = 4.25733e-10, global = 8.03605e-22, cumulative = -3.13207e-20
DICPCG:  Solving for p, Initial residual = 0.0321759, Final residual = 8.69005e-07, No Iterations 192
linear solve p 2386378
time step continuity errors : sum local = 3.90281e-10, global = 3.41383e-20, cumulative = 2.81763e-21
ExecutionTime = 41.7 s  ClockTime = 42 s

Time = 0.01

Courant Number mean: 0.191493 max: 0.961207
DILUPBiCGStab:  Solving for Ux, Initial residual = 0.000118767, Final residual = 8.13637e-07, No Iterations 5
DILUPBiCGStab:  Solving for Uy, Initial residual = 0.000428046, Final residual = 1.69495e-06, No Iterations 5
DILUPBiCGStab:  Solving for Uz, Initial residual = 0.000956189, Final residual = 6.08952e-06, No Iterations 5
linear solve U 468696
DICPCG:  Solving for p, Initial residual = 0.0323052, Final residual = 8.70187e-07, No Iterations 188
linear solve p 2306288
time step continuity errors : sum local = 3.88262e-10, global = -3.25771e-20, cumulative = -2.97595e-20
DICPCG:  Solving for p, Initial residual = 0.0261702, Final residual = 9.82608e-07, No Iterations 180
linear solve p 2109109
time step continuity errors : sum local = 4.38142e-10, global = 1.42165e-20, cumulative = -1.5543e-20
ExecutionTime = 46.84 s  ClockTime = 47 s

Time = 0.01125

Courant Number mean: 0.191496 max: 0.961203
DILUPBiCGStab:  Solving for Ux, Initial residual = 9.24241e-05, Final residual = 5.46567e-07, No Iterations 5
DILUPBiCGStab:  Solving for Uy, Initial residual = 0.00034755, Final residual = 1.97405e-06, No Iterations 5
DILUPBiCGStab:  Solving for Uz, Initial residual = 0.00075203, Final residual = 5.50374e-06, No Iterations 5
linear solve U 465060
DICPCG:  Solving for p, Initial residual = 0.0261773, Final residual = 8.90687e-07, No Iterations 177
linear solve p 2172195
time step continuity errors : sum local = 3.96931e-10, global = -2.29047e-20, cumulative = -3.84477e-20
DICPCG:  Solving for p, Initial residual = 0.0212475, Final residual = 9.87061e-07, No Iterations 176
linear solve p 2062589
time step continuity errors : sum local = 4.40131e-10, global = 4.54288e-20, cumulative = 6.98107e-21
ExecutionTime = 51.81 s  ClockTime = 52 s

Time = 0.0125

Courant Number mean: 0.191501 max: 0.961206
DILUPBiCGStab:  Solving for Ux, Initial residual = 7.52237e-05, Final residual = 5.26657e-07, No Iterations 5
DILUPBiCGStab:  Solving for Uy, Initial residual = 0.00027387, Final residual = 1.272e-06, No Iterations 5
DILUPBiCGStab:  Solving for Uz, Initial residual = 0.000567952, Final residual = 3.45637e-06, No Iterations 5
linear solve U 464848
DICPCG:  Solving for p, Initial residual = 0.0213473, Final residual = 9.82807e-07, No Iterations 187
linear solve p 2295952
time step continuity errors : sum local = 4.36954e-10, global = 2.11303e-20, cumulative = 2.81114e-20
DICPCG:  Solving for p, Initial residual = 0.0173898, Final residual = 8.50399e-07, No Iterations 187
linear solve p 2188809
time step continuity errors : sum local = 3.77894e-10, global = -5.77704e-21, cumulative = 2.23344e-20
ExecutionTime = 57.02 s  ClockTime = 57 s

End

