/*---------------------------------------------------------------------------*\
  =========                 |
  \\      /  F ield         | OpenFOAM: The Open Source CFD Toolbox
   \\    /   O peration     | Website:  https://openfoam.org
    \\  /    A nd           | Version:  8
     \\/     M anipulation  |
\*---------------------------------------------------------------------------*/
Build  : 8-ef60d22ea792
Exec   : icoFoam
Date   : Sep 11 2021
Time   : 13:51:19
Host   : "uc2n513.localdomain"
PID    : 221208
I/O    : uncollated
Case   : /pfs/data5/home/kit/scc/nq7776/data/code/OBR/lidDrivenCavity3D/Variation_init/100/Variation_mesh/25/Variation_matrix_solver/CG_BJ_CUDA/1631361076
nProcs : 1
sigFpe : Enabling floating point exception trapping (FOAM_SIGFPE).
fileModificationChecking : Monitoring run-time modified files using timeStampMaster (fileModificationSkew 10)
allowSystemOperations : Allowing user-supplied system call operations

// * * * * * * * * * * * * * * * * * * * * * * * * * * * * * * * * * * * * * //
Create time

Create mesh for time = 0

Reading transportProperties

Reading field p

Reading field U

Reading/calculating face flux field phi


Starting time loop

Time = 0.004

Courant Number mean: 0.190206 max: 0.902763
DILUPBiCGStab:  Solving for Ux, Initial residual = 0.141566, Final residual = 7.19632e-07, No Iterations 5
DILUPBiCGStab:  Solving for Uy, Initial residual = 0.199843, Final residual = 1.48111e-06, No Iterations 5
DILUPBiCGStab:  Solving for Uz, Initial residual = 0.419047, Final residual = 6.53558e-06, No Iterations 5
linear solve U 11219
[OGL LOG] init_host_sparsity_pattern : 4 ms
[OGL LOG] matrix not stored update host matrix
[OGL LOG] update_host_mtx : 1 ms
[OGL LOG] matrix is not yet sorted, compute sorting idxs
[OGL LOG] compute_sort : 104 ms
[OGL LOG] matrix is not yet sorted, sorting host matrix
[OGL LOG] sort_host_mtx_sparsity_pattern : 2 ms
[OGL LOG] sort_host_mtx : 1 ms
[OGL LOG] init_preconditioner : 2 ms
[OGL LOG] solve : 26 ms
BJcudaGKOCG:  Solving for p, Initial residual = 0.573274, Final residual = 8.80101e-07, No Iterations 186
linear solve p 877240
time step continuity errors : sum local = 6.26236e-09, global = -6.58827e-20, cumulative = -6.58827e-20
[OGL LOG] init_preconditioner : 0 ms
[OGL LOG] solve : 26 ms
BJcudaGKOCG:  Solving for p, Initial residual = 0.2807, Final residual = 9.59318e-07, No Iterations 186
linear solve p 26813
time step continuity errors : sum local = 4.25666e-09, global = 1.97332e-19, cumulative = 1.31449e-19
ExecutionTime = 1.02 s  ClockTime = 1 s

Time = 0.008

Courant Number mean: 0.189744 max: 0.879561
DILUPBiCGStab:  Solving for Ux, Initial residual = 0.0127396, Final residual = 6.89228e-07, No Iterations 5
DILUPBiCGStab:  Solving for Uy, Initial residual = 0.0199775, Final residual = 1.27406e-06, No Iterations 5
DILUPBiCGStab:  Solving for Uz, Initial residual = 0.0739616, Final residual = 3.66256e-06, No Iterations 5
linear solve U 9379
[OGL LOG] init_preconditioner : 0 ms
[OGL LOG] solve : 25 ms
BJcudaGKOCG:  Solving for p, Initial residual = 0.180371, Final residual = 8.01662e-07, No Iterations 183
linear solve p 26258
time step continuity errors : sum local = 3.31268e-06, global = -1.75892e-20, cumulative = 1.1386e-19
[OGL LOG] init_preconditioner : 0 ms
[OGL LOG] solve : 25 ms
BJcudaGKOCG:  Solving for p, Initial residual = 0.106368, Final residual = 9.88376e-07, No Iterations 180
linear solve p 25998
time step continuity errors : sum local = 3.06264e-06, global = 3.72066e-20, cumulative = 1.51066e-19
ExecutionTime = 1.08 s  ClockTime = 1 s

Time = 0.012

Courant Number mean: 0.189395 max: 0.876756
DILUPBiCGStab:  Solving for Ux, Initial residual = 0.0016236, Final residual = 1.27718e-07, No Iterations 5
DILUPBiCGStab:  Solving for Uy, Initial residual = 0.00313321, Final residual = 2.48413e-07, No Iterations 5
DILUPBiCGStab:  Solving for Uz, Initial residual = 0.0223448, Final residual = 1.00746e-06, No Iterations 5
linear solve U 9612
[OGL LOG] init_preconditioner : 0 ms
[OGL LOG] solve : 24 ms
BJcudaGKOCG:  Solving for p, Initial residual = 0.0483511, Final residual = 8.6171e-07, No Iterations 172
linear solve p 24799
time step continuity errors : sum local = 3.02695e-06, global = 4.19265e-20, cumulative = 1.92993e-19
[OGL LOG] init_preconditioner : 0 ms
[OGL LOG] solve : 23 ms
BJcudaGKOCG:  Solving for p, Initial residual = 0.0318374, Final residual = 9.98214e-07, No Iterations 169
linear solve p 24435
time step continuity errors : sum local = 3.04777e-06, global = -3.69766e-20, cumulative = 1.56016e-19
ExecutionTime = 1.15 s  ClockTime = 1 s

Time = 0.016

Courant Number mean: 0.189204 max: 0.876129
DILUPBiCGStab:  Solving for Ux, Initial residual = 0.000629516, Final residual = 5.06205e-08, No Iterations 5
DILUPBiCGStab:  Solving for Uy, Initial residual = 0.000837486, Final residual = 5.0548e-08, No Iterations 5
DILUPBiCGStab:  Solving for Uz, Initial residual = 0.00466373, Final residual = 2.20172e-07, No Iterations 5
linear solve U 9556
[OGL LOG] init_preconditioner : 0 ms
[OGL LOG] solve : 13 ms
BJcudaGKOCG:  Solving for p, Initial residual = 0.0180278, Final residual = 9.47399e-07, No Iterations 93
linear solve p 13879
time step continuity errors : sum local = 3.05986e-06, global = 5.64749e-20, cumulative = 2.12491e-19
[OGL LOG] init_preconditioner : 0 ms
[OGL LOG] solve : 12 ms
BJcudaGKOCG:  Solving for p, Initial residual = 0.0122891, Final residual = 9.83665e-07, No Iterations 87
linear solve p 13050
time step continuity errors : sum local = 3.05098e-06, global = -1.66975e-20, cumulative = 1.95794e-19
ExecutionTime = 1.19 s  ClockTime = 1 s

Time = 0.02

Courant Number mean: 0.189124 max: 0.875978
DILUPBiCGStab:  Solving for Ux, Initial residual = 0.000280996, Final residual = 1.95191e-08, No Iterations 5
DILUPBiCGStab:  Solving for Uy, Initial residual = 0.000377735, Final residual = 2.36441e-08, No Iterations 5
DILUPBiCGStab:  Solving for Uz, Initial residual = 0.00229915, Final residual = 1.06798e-07, No Iterations 5
linear solve U 9544
[OGL LOG] init_preconditioner : 0 ms
[OGL LOG] solve : 13 ms
BJcudaGKOCG:  Solving for p, Initial residual = 0.00784267, Final residual = 9.92845e-07, No Iterations 92
linear solve p 13785
time step continuity errors : sum local = 3.05141e-06, global = -5.47842e-20, cumulative = 1.4101e-19
[OGL LOG] init_preconditioner : 0 ms
[OGL LOG] solve : 11 ms
BJcudaGKOCG:  Solving for p, Initial residual = 0.00547983, Final residual = 9.88995e-07, No Iterations 78
linear solve p 12193
time step continuity errors : sum local = 3.05061e-06, global = -2.19219e-20, cumulative = 1.19088e-19
ExecutionTime = 1.24 s  ClockTime = 1 s

Time = 0.024

Courant Number mean: 0.189076 max: 0.875913
DILUPBiCGStab:  Solving for Ux, Initial residual = 0.000154714, Final residual = 9.96531e-09, No Iterations 5
DILUPBiCGStab:  Solving for Uy, Initial residual = 0.000191753, Final residual = 1.16164e-08, No Iterations 5
DILUPBiCGStab:  Solving for Uz, Initial residual = 0.00111442, Final residual = 6.05065e-08, No Iterations 5
linear solve U 9608
[OGL LOG] init_preconditioner : 0 ms
[OGL LOG] solve : 9 ms
BJcudaGKOCG:  Solving for p, Initial residual = 0.00361792, Final residual = 9.94289e-07, No Iterations 66
linear solve p 10168
time step continuity errors : sum local = 3.05158e-06, global = 6.26308e-20, cumulative = 1.81718e-19
[OGL LOG] init_preconditioner : 0 ms
[OGL LOG] solve : 9 ms
BJcudaGKOCG:  Solving for p, Initial residual = 0.0025542, Final residual = 9.35062e-07, No Iterations 65
linear solve p 10029
time step continuity errors : sum local = 3.05052e-06, global = -1.69728e-19, cumulative = 1.19909e-20
ExecutionTime = 1.27 s  ClockTime = 1 s

Time = 0.028

Courant Number mean: 0.189051 max: 0.875862
DILUPBiCGStab:  Solving for Ux, Initial residual = 8.74145e-05, Final residual = 5.10908e-09, No Iterations 5
DILUPBiCGStab:  Solving for Uy, Initial residual = 0.000121627, Final residual = 6.84888e-09, No Iterations 5
DILUPBiCGStab:  Solving for Uz, Initial residual = 0.000705578, Final residual = 2.8648e-08, No Iterations 5
linear solve U 9584
[OGL LOG] init_preconditioner : 0 ms
[OGL LOG] solve : 9 ms
BJcudaGKOCG:  Solving for p, Initial residual = 0.00172078, Final residual = 9.03927e-07, No Iterations 62
linear solve p 9582
time step continuity errors : sum local = 3.05104e-06, global = 9.38072e-20, cumulative = 1.05798e-19
[OGL LOG] init_preconditioner : 0 ms
[OGL LOG] solve : 9 ms
BJcudaGKOCG:  Solving for p, Initial residual = 0.00122634, Final residual = 8.46382e-07, No Iterations 61
linear solve p 9454
time step continuity errors : sum local = 3.05051e-06, global = 2.61976e-19, cumulative = 3.67774e-19
ExecutionTime = 1.31 s  ClockTime = 1 s

Time = 0.032

Courant Number mean: 0.189036 max: 0.875836
DILUPBiCGStab:  Solving for Ux, Initial residual = 5.39279e-05, Final residual = 2.37431e-09, No Iterations 5
DILUPBiCGStab:  Solving for Uy, Initial residual = 7.75039e-05, Final residual = 3.0853e-09, No Iterations 5
DILUPBiCGStab:  Solving for Uz, Initial residual = 0.000464125, Final residual = 1.9365e-08, No Iterations 5
linear solve U 9561
[OGL LOG] init_preconditioner : 0 ms
[OGL LOG] solve : 8 ms
BJcudaGKOCG:  Solving for p, Initial residual = 0.000856138, Final residual = 9.32173e-07, No Iterations 58
linear solve p 9049
time step continuity errors : sum local = 3.05071e-06, global = -1.41521e-19, cumulative = 2.26254e-19
[OGL LOG] init_preconditioner : 0 ms
[OGL LOG] solve : 8 ms
BJcudaGKOCG:  Solving for p, Initial residual = 0.000611894, Final residual = 9.42967e-07, No Iterations 56
linear solve p 8709
time step continuity errors : sum local = 3.05045e-06, global = 1.51672e-20, cumulative = 2.41421e-19
ExecutionTime = 1.34 s  ClockTime = 1 s

Time = 0.036

Courant Number mean: 0.189028 max: 0.875816
DILUPBiCGStab:  Solving for Ux, Initial residual = 3.43185e-05, Final residual = 1.32091e-09, No Iterations 5
DILUPBiCGStab:  Solving for Uy, Initial residual = 5.3275e-05, Final residual = 2.64363e-09, No Iterations 5
DILUPBiCGStab:  Solving for Uz, Initial residual = 0.000326381, Final residual = 1.18025e-08, No Iterations 5
linear solve U 9492
[OGL LOG] init_preconditioner : 0 ms
[OGL LOG] solve : 8 ms
BJcudaGKOCG:  Solving for p, Initial residual = 0.000423525, Final residual = 9.37348e-07, No Iterations 55
linear solve p 8628
time step continuity errors : sum local = 3.05066e-06, global = -4.84182e-20, cumulative = 1.93003e-19
[OGL LOG] init_preconditioner : 0 ms
[OGL LOG] solve : 7 ms
BJcudaGKOCG:  Solving for p, Initial residual = 0.000303485, Final residual = 9.63084e-07, No Iterations 53
linear solve p 8372
time step continuity errors : sum local = 3.05051e-06, global = -4.0876e-20, cumulative = 1.52127e-19
ExecutionTime = 1.38 s  ClockTime = 1 s

Time = 0.04

Courant Number mean: 0.189023 max: 0.875804
DILUPBiCGStab:  Solving for Ux, Initial residual = 2.27293e-05, Final residual = 7.7371e-10, No Iterations 5
DILUPBiCGStab:  Solving for Uy, Initial residual = 3.64987e-05, Final residual = 1.00999e-09, No Iterations 5
DILUPBiCGStab:  Solving for Uz, Initial residual = 0.000232405, Final residual = 8.23242e-09, No Iterations 5
linear solve U 9579
[OGL LOG] init_preconditioner : 0 ms
[OGL LOG] solve : 7 ms
BJcudaGKOCG:  Solving for p, Initial residual = 0.000220931, Final residual = 9.80875e-07, No Iterations 50
linear solve p 7950
time step continuity errors : sum local = 3.05066e-06, global = 9.71805e-20, cumulative = 2.49307e-19
[OGL LOG] init_preconditioner : 0 ms
[OGL LOG] solve : 7 ms
BJcudaGKOCG:  Solving for p, Initial residual = 0.000159275, Final residual = 9.40052e-07, No Iterations 49
linear solve p 7756
time step continuity errors : sum local = 3.05055e-06, global = -4.69839e-22, cumulative = 2.48837e-19
ExecutionTime = 1.4 s  ClockTime = 1 s

End

