/*---------------------------------------------------------------------------*\
  =========                 |
  \\      /  F ield         | OpenFOAM: The Open Source CFD Toolbox
   \\    /   O peration     | Website:  https://openfoam.org
    \\  /    A nd           | Version:  8
     \\/     M anipulation  |
\*---------------------------------------------------------------------------*/
Build  : 8-ef60d22ea792
Exec   : icoFoam
Date   : Sep 11 2021
Time   : 13:53:00
Host   : "uc2n513.localdomain"
PID    : 222178
I/O    : uncollated
Case   : /pfs/data5/home/kit/scc/nq7776/data/code/OBR/lidDrivenCavity3D/Variation_init/100/Variation_mesh/65/Variation_matrix_solver/BiCGStab_NoPrecond_CUDA/1631361168
nProcs : 1
sigFpe : Enabling floating point exception trapping (FOAM_SIGFPE).
fileModificationChecking : Monitoring run-time modified files using timeStampMaster (fileModificationSkew 10)
allowSystemOperations : Allowing user-supplied system call operations

// * * * * * * * * * * * * * * * * * * * * * * * * * * * * * * * * * * * * * //
Create time

Create mesh for time = 0

Reading transportProperties

Reading field p

Reading field U

Reading/calculating face flux field phi


Starting time loop

Time = 0.00153846

Courant Number mean: 0.191448 max: 0.959317
DILUPBiCGStab:  Solving for Ux, Initial residual = 0.112017, Final residual = 1.40856e-05, No Iterations 5
DILUPBiCGStab:  Solving for Uy, Initial residual = 0.209721, Final residual = 3.34999e-05, No Iterations 5
DILUPBiCGStab:  Solving for Uz, Initial residual = 0.253067, Final residual = 9.19753e-05, No Iterations 5
linear solve U 273832
[OGL LOG] init_host_sparsity_pattern : 77 ms
[OGL LOG] matrix not stored update host matrix
[OGL LOG] update_host_mtx : 40 ms
[OGL LOG] matrix is not yet sorted, compute sorting idxs
[OGL LOG] compute_sort : 2377 ms
[OGL LOG] matrix is not yet sorted, sorting host matrix
[OGL LOG] sort_host_mtx_sparsity_pattern : 51 ms
[OGL LOG] sort_host_mtx : 28 ms
[OGL LOG] init_preconditioner : 0 ms
[OGL LOG] solve : 425 ms
nonecudaGKOBiCGStab:  Solving for p, Initial residual = 0.548046, Final residual = 8.17527e-07, No Iterations 419
linear solve p 3750430
time step continuity errors : sum local = 7.80747e-06, global = 1.34872e-21, cumulative = 1.34872e-21
[OGL LOG] init_preconditioner : 0 ms
[OGL LOG] solve : 430 ms
nonecudaGKOBiCGStab:  Solving for p, Initial residual = 0.311112, Final residual = 8.83503e-07, No Iterations 440
linear solve p 438641
time step continuity errors : sum local = 9.96142e-06, global = -3.19431e-20, cumulative = -3.05944e-20
ExecutionTime = 5.88 s  ClockTime = 6 s

Time = 0.00307692

Courant Number mean: 0.191614 max: 0.952623
DILUPBiCGStab:  Solving for Ux, Initial residual = 0.00530407, Final residual = 1.95983e-05, No Iterations 5
DILUPBiCGStab:  Solving for Uy, Initial residual = 0.0107395, Final residual = 3.72105e-05, No Iterations 5
DILUPBiCGStab:  Solving for Uz, Initial residual = 0.0537268, Final residual = 0.000517689, No Iterations 5
linear solve U 255133
[OGL LOG] init_preconditioner : 0 ms
[OGL LOG] solve : 432 ms
nonecudaGKOBiCGStab:  Solving for p, Initial residual = 0.301916, Final residual = 9.7117e-07, No Iterations 442
linear solve p 440743
time step continuity errors : sum local = 3.21275e-07, global = 2.04342e-20, cumulative = -1.01602e-20
[OGL LOG] init_preconditioner : 0 ms
[OGL LOG] solve : 388 ms
nonecudaGKOBiCGStab:  Solving for p, Initial residual = 0.250986, Final residual = 6.80373e-07, No Iterations 396
linear solve p 396865
time step continuity errors : sum local = 1.28259e-05, global = 1.90419e-20, cumulative = 8.88174e-21
ExecutionTime = 7.13 s  ClockTime = 7 s

Time = 0.00461538

Courant Number mean: 0.191582 max: 0.953674
DILUPBiCGStab:  Solving for Ux, Initial residual = 0.00151237, Final residual = 7.66089e-06, No Iterations 5
DILUPBiCGStab:  Solving for Uy, Initial residual = 0.00389835, Final residual = 1.63604e-05, No Iterations 5
DILUPBiCGStab:  Solving for Uz, Initial residual = 0.0690537, Final residual = 0.000573909, No Iterations 5
linear solve U 251558
[OGL LOG] init_preconditioner : 0 ms
[OGL LOG] solve : 385 ms
nonecudaGKOBiCGStab:  Solving for p, Initial residual = 0.262457, Final residual = 3.024e-07, No Iterations 392
linear solve p 394649
time step continuity errors : sum local = 5.8436e-05, global = -3.14199e-20, cumulative = -2.25381e-20
[OGL LOG] init_preconditioner : 0 ms
[OGL LOG] solve : 408 ms
nonecudaGKOBiCGStab:  Solving for p, Initial residual = 0.234757, Final residual = 8.0721e-07, No Iterations 418
linear solve p 416897
time step continuity errors : sum local = 1.5525e-05, global = -2.39055e-20, cumulative = -4.64436e-20
ExecutionTime = 8.36 s  ClockTime = 9 s

Time = 0.00615385

Courant Number mean: 0.191485 max: 0.953309
DILUPBiCGStab:  Solving for Ux, Initial residual = 0.000837881, Final residual = 2.97327e-06, No Iterations 5
DILUPBiCGStab:  Solving for Uy, Initial residual = 0.00235081, Final residual = 8.41521e-06, No Iterations 5
DILUPBiCGStab:  Solving for Uz, Initial residual = 0.158724, Final residual = 0.00179239, No Iterations 5
linear solve U 252237
[OGL LOG] init_preconditioner : 0 ms
[OGL LOG] solve : 445 ms
nonecudaGKOBiCGStab:  Solving for p, Initial residual = 0.44099, Final residual = 7.62782e-07, No Iterations 398
linear solve p 454133
time step continuity errors : sum local = 5.54848e-06, global = 1.6625e-20, cumulative = -2.98186e-20
[OGL LOG] init_preconditioner : 0 ms
[OGL LOG] solve : 547 ms
nonecudaGKOBiCGStab:  Solving for p, Initial residual = 0.374755, Final residual = 3.06625e-07, No Iterations 388
linear solve p 556296
time step continuity errors : sum local = 9.18981e-05, global = -5.9221e-20, cumulative = -8.90397e-20
ExecutionTime = 9.78 s  ClockTime = 10 s

Time = 0.00769231

Courant Number mean: 0.191525 max: 0.955668
DILUPBiCGStab:  Solving for Ux, Initial residual = 0.000814056, Final residual = 3.50664e-06, No Iterations 5
DILUPBiCGStab:  Solving for Uy, Initial residual = 0.00249333, Final residual = 1.18738e-05, No Iterations 5
DILUPBiCGStab:  Solving for Uz, Initial residual = 0.146403, Final residual = 0.00114722, No Iterations 5
linear solve U 252175
[OGL LOG] init_preconditioner : 0 ms
[OGL LOG] solve : 573 ms
nonecudaGKOBiCGStab:  Solving for p, Initial residual = 0.359118, Final residual = 3.3518e-07, No Iterations 401
linear solve p 583529
time step continuity errors : sum local = 2.57231e-07, global = 6.78336e-21, cumulative = -8.22563e-20
[OGL LOG] init_preconditioner : 0 ms
[OGL LOG] solve : 536 ms
nonecudaGKOBiCGStab:  Solving for p, Initial residual = 0.293605, Final residual = 4.92806e-08, No Iterations 384
linear solve p 545773
time step continuity errors : sum local = 8.01321e-05, global = 1.86958e-20, cumulative = -6.35605e-20
ExecutionTime = 11.32 s  ClockTime = 12 s

Time = 0.00923077

Courant Number mean: 0.191496 max: 0.955933
DILUPBiCGStab:  Solving for Ux, Initial residual = 0.00055845, Final residual = 2.22988e-06, No Iterations 5
DILUPBiCGStab:  Solving for Uy, Initial residual = 0.00184052, Final residual = 1.13275e-05, No Iterations 5
DILUPBiCGStab:  Solving for Uz, Initial residual = 0.205345, Final residual = 0.00234629, No Iterations 5
linear solve U 253028
[OGL LOG] init_preconditioner : 0 ms
[OGL LOG] solve : 570 ms
nonecudaGKOBiCGStab:  Solving for p, Initial residual = 0.512866, Final residual = 8.20442e-07, No Iterations 403
linear solve p 579087
time step continuity errors : sum local = 1.09728e-05, global = -5.84526e-21, cumulative = -6.94057e-20
[OGL LOG] init_preconditioner : 0 ms
[OGL LOG] solve : 563 ms
nonecudaGKOBiCGStab:  Solving for p, Initial residual = 0.417916, Final residual = 9.55579e-07, No Iterations 400
linear solve p 572149
time step continuity errors : sum local = 2.81699e-05, global = -2.18359e-20, cumulative = -9.12416e-20
ExecutionTime = 12.89 s  ClockTime = 13 s

Time = 0.0107692

Courant Number mean: 0.191475 max: 0.957002
DILUPBiCGStab:  Solving for Ux, Initial residual = 0.000755962, Final residual = 3.9813e-06, No Iterations 5
DILUPBiCGStab:  Solving for Uy, Initial residual = 0.0024757, Final residual = 1.53936e-05, No Iterations 5
DILUPBiCGStab:  Solving for Uz, Initial residual = 0.253306, Final residual = 0.00202007, No Iterations 5
linear solve U 259479
[OGL LOG] init_preconditioner : 0 ms
[OGL LOG] solve : 568 ms
nonecudaGKOBiCGStab:  Solving for p, Initial residual = 0.487965, Final residual = 9.28495e-07, No Iterations 404
linear solve p 577403
time step continuity errors : sum local = 1.84973e-05, global = -4.94495e-20, cumulative = -1.40691e-19
[OGL LOG] init_preconditioner : 0 ms
[OGL LOG] solve : 529 ms
nonecudaGKOBiCGStab:  Solving for p, Initial residual = 0.398219, Final residual = 5.97764e-07, No Iterations 380
linear solve p 538847
time step continuity errors : sum local = 3.61146e-05, global = -4.12007e-20, cumulative = -1.81892e-19
ExecutionTime = 14.42 s  ClockTime = 15 s

Time = 0.0123077

Courant Number mean: 0.191454 max: 0.956644
DILUPBiCGStab:  Solving for Ux, Initial residual = 0.000680261, Final residual = 3.91716e-06, No Iterations 5
DILUPBiCGStab:  Solving for Uy, Initial residual = 0.00230071, Final residual = 1.51774e-05, No Iterations 5
DILUPBiCGStab:  Solving for Uz, Initial residual = 0.2723, Final residual = 0.00207489, No Iterations 5
linear solve U 252658
[OGL LOG] init_preconditioner : 0 ms
[OGL LOG] solve : 537 ms
nonecudaGKOBiCGStab:  Solving for p, Initial residual = 0.515878, Final residual = 9.85498e-07, No Iterations 383
linear solve p 546140
time step continuity errors : sum local = 9.71403e-07, global = -3.73495e-20, cumulative = -2.19241e-19
[OGL LOG] init_preconditioner : 0 ms
[OGL LOG] solve : 537 ms
nonecudaGKOBiCGStab:  Solving for p, Initial residual = 0.43773, Final residual = 8.85761e-07, No Iterations 388
linear solve p 546025
time step continuity errors : sum local = 2.41641e-05, global = 5.5205e-20, cumulative = -1.64036e-19
ExecutionTime = 15.93 s  ClockTime = 16 s

Time = 0.0138462

Courant Number mean: 0.191449 max: 0.956671
DILUPBiCGStab:  Solving for Ux, Initial residual = 0.00072136, Final residual = 4.32436e-06, No Iterations 5
DILUPBiCGStab:  Solving for Uy, Initial residual = 0.00242137, Final residual = 1.51805e-05, No Iterations 5
DILUPBiCGStab:  Solving for Uz, Initial residual = 0.274895, Final residual = 0.00163905, No Iterations 5
linear solve U 251488
[OGL LOG] init_preconditioner : 0 ms
[OGL LOG] solve : 558 ms
nonecudaGKOBiCGStab:  Solving for p, Initial residual = 0.496671, Final residual = 1.23111e-07, No Iterations 400
linear solve p 568133
time step continuity errors : sum local = 1.50509e-05, global = 4.63237e-21, cumulative = -1.59404e-19
[OGL LOG] init_preconditioner : 0 ms
[OGL LOG] solve : 576 ms
nonecudaGKOBiCGStab:  Solving for p, Initial residual = 0.40619, Final residual = 9.37804e-07, No Iterations 419
linear solve p 584745
time step continuity errors : sum local = 2.48215e-07, global = 1.24256e-20, cumulative = -1.46978e-19
ExecutionTime = 17.49 s  ClockTime = 18 s

Time = 0.0153846

Courant Number mean: 0.191426 max: 0.955556
DILUPBiCGStab:  Solving for Ux, Initial residual = 0.000583709, Final residual = 3.57034e-06, No Iterations 5
DILUPBiCGStab:  Solving for Uy, Initial residual = 0.0019895, Final residual = 1.18159e-05, No Iterations 5
DILUPBiCGStab:  Solving for Uz, Initial residual = 0.250537, Final residual = 0.00122472, No Iterations 5
linear solve U 253480
[OGL LOG] init_preconditioner : 0 ms
[OGL LOG] solve : 541 ms
nonecudaGKOBiCGStab:  Solving for p, Initial residual = 0.452754, Final residual = 6.88779e-07, No Iterations 387
linear solve p 550326
time step continuity errors : sum local = 7.70954e-06, global = 3.50385e-20, cumulative = -1.1194e-19
[OGL LOG] init_preconditioner : 0 ms
[OGL LOG] solve : 540 ms
nonecudaGKOBiCGStab:  Solving for p, Initial residual = 0.375174, Final residual = 9.78949e-07, No Iterations 387
linear solve p 549873
time step continuity errors : sum local = 2.33831e-06, global = -8.00452e-21, cumulative = -1.19944e-19
ExecutionTime = 19 s  ClockTime = 19 s

End

