/*---------------------------------------------------------------------------*\
  =========                 |
  \\      /  F ield         | OpenFOAM: The Open Source CFD Toolbox
   \\    /   O peration     | Website:  https://openfoam.org
    \\  /    A nd           | Version:  8
     \\/     M anipulation  |
\*---------------------------------------------------------------------------*/
Build  : 8-ef60d22ea792
Exec   : icoFoam
Date   : Sep 11 2021
Time   : 14:41:11
Host   : "uc2n513.localdomain"
PID    : 232373
I/O    : uncollated
Case   : /pfs/data5/home/kit/scc/nq7776/data/code/OBR/lidDrivenCavity3D/Variation_init/100/Variation_mesh/20/Variation_matrix_solver/CG_NoPrecond_CUDA/1631364069
nProcs : 1
sigFpe : Enabling floating point exception trapping (FOAM_SIGFPE).
fileModificationChecking : Monitoring run-time modified files using timeStampMaster (fileModificationSkew 10)
allowSystemOperations : Allowing user-supplied system call operations

// * * * * * * * * * * * * * * * * * * * * * * * * * * * * * * * * * * * * * //
Create time

Create mesh for time = 0

Reading transportProperties

Reading field p

Reading field U

Reading/calculating face flux field phi


Starting time loop

Time = 0.005

Courant Number mean: 0.189426 max: 0.847077
DILUPBiCGStab:  Solving for Ux, Initial residual = 0.0520863, Final residual = 1.93382e-07, No Iterations 5
DILUPBiCGStab:  Solving for Uy, Initial residual = 0.0827593, Final residual = 3.95798e-07, No Iterations 5
DILUPBiCGStab:  Solving for Uz, Initial residual = 0.0638903, Final residual = 5.63531e-07, No Iterations 5
linear solve U 5847
[OGL LOG] init_host_sparsity_pattern : 2 ms
[OGL LOG] matrix not stored update host matrix
[OGL LOG] update_host_mtx : 1 ms
[OGL LOG] matrix is not yet sorted, compute sorting idxs
[OGL LOG] compute_sort : 50 ms
[OGL LOG] matrix is not yet sorted, sorting host matrix
[OGL LOG] sort_host_mtx_sparsity_pattern : 1 ms
[OGL LOG] sort_host_mtx : 0 ms
[OGL LOG] init_preconditioner : 0 ms
[OGL LOG] solve : 23 ms
nonecudaGKOCG:  Solving for p, Initial residual = 0.518631, Final residual = 8.35816e-07, No Iterations 165
linear solve p 808538
time step continuity errors : sum local = 6.78231e-09, global = 1.75774e-19, cumulative = 1.75774e-19
[OGL LOG] init_preconditioner : 0 ms
[OGL LOG] solve : 22 ms
nonecudaGKOCG:  Solving for p, Initial residual = 0.286623, Final residual = 9.53761e-07, No Iterations 162
linear solve p 22849
time step continuity errors : sum local = 5.75451e-09, global = 3.32757e-20, cumulative = 2.0905e-19
ExecutionTime = 0.89 s  ClockTime = 1 s

Time = 0.01

Courant Number mean: 0.188529 max: 0.846325
DILUPBiCGStab:  Solving for Ux, Initial residual = 0.0110583, Final residual = 2.88338e-07, No Iterations 5
DILUPBiCGStab:  Solving for Uy, Initial residual = 0.0195296, Final residual = 2.7634e-07, No Iterations 5
DILUPBiCGStab:  Solving for Uz, Initial residual = 0.0446953, Final residual = 4.31772e-07, No Iterations 5
linear solve U 4629
[OGL LOG] init_preconditioner : 0 ms
[OGL LOG] solve : 22 ms
nonecudaGKOCG:  Solving for p, Initial residual = 0.129946, Final residual = 8.53765e-07, No Iterations 160
linear solve p 22453
time step continuity errors : sum local = 4.76698e-06, global = 8.99973e-20, cumulative = 2.99047e-19
[OGL LOG] init_preconditioner : 0 ms
[OGL LOG] solve : 21 ms
nonecudaGKOCG:  Solving for p, Initial residual = 0.082535, Final residual = 9.93872e-07, No Iterations 157
linear solve p 22048
time step continuity errors : sum local = 4.29097e-06, global = 3.95103e-20, cumulative = 3.38557e-19
ExecutionTime = 0.94 s  ClockTime = 1 s

Time = 0.015

Courant Number mean: 0.188052 max: 0.844689
DILUPBiCGStab:  Solving for Ux, Initial residual = 0.0014724, Final residual = 1.16222e-08, No Iterations 5
DILUPBiCGStab:  Solving for Uy, Initial residual = 0.00301064, Final residual = 2.28358e-08, No Iterations 5
DILUPBiCGStab:  Solving for Uz, Initial residual = 0.00692944, Final residual = 6.22632e-08, No Iterations 5
linear solve U 4717
[OGL LOG] init_preconditioner : 0 ms
[OGL LOG] solve : 21 ms
nonecudaGKOCG:  Solving for p, Initial residual = 0.0277417, Final residual = 9.37027e-07, No Iterations 153
linear solve p 21609
time step continuity errors : sum local = 4.20742e-06, global = -9.58992e-20, cumulative = 2.42658e-19
[OGL LOG] init_preconditioner : 0 ms
[OGL LOG] solve : 20 ms
nonecudaGKOCG:  Solving for p, Initial residual = 0.0179694, Final residual = 8.15912e-07, No Iterations 151
linear solve p 21195
time step continuity errors : sum local = 4.25902e-06, global = 1.5795e-19, cumulative = 4.00608e-19
ExecutionTime = 1 s  ClockTime = 1 s

Time = 0.02

Courant Number mean: 0.187909 max: 0.844511
DILUPBiCGStab:  Solving for Ux, Initial residual = 0.000567194, Final residual = 1.23175e-08, No Iterations 5
DILUPBiCGStab:  Solving for Uy, Initial residual = 0.000652605, Final residual = 1.26294e-08, No Iterations 5
DILUPBiCGStab:  Solving for Uz, Initial residual = 0.00324614, Final residual = 2.62249e-08, No Iterations 5
linear solve U 4637
[OGL LOG] init_preconditioner : 0 ms
[OGL LOG] solve : 19 ms
nonecudaGKOCG:  Solving for p, Initial residual = 0.00920027, Final residual = 9.54694e-07, No Iterations 144
linear solve p 20238
time step continuity errors : sum local = 4.27122e-06, global = -3.3873e-20, cumulative = 3.66735e-19
[OGL LOG] init_preconditioner : 0 ms
[OGL LOG] solve : 19 ms
nonecudaGKOCG:  Solving for p, Initial residual = 0.00618904, Final residual = 8.05803e-07, No Iterations 142
linear solve p 20025
time step continuity errors : sum local = 4.26194e-06, global = -3.60444e-19, cumulative = 6.291e-21
ExecutionTime = 1.04 s  ClockTime = 1 s

Time = 0.025

Courant Number mean: 0.187822 max: 0.844405
DILUPBiCGStab:  Solving for Ux, Initial residual = 0.000229887, Final residual = 3.64516e-09, No Iterations 5
DILUPBiCGStab:  Solving for Uy, Initial residual = 0.000348822, Final residual = 5.96225e-09, No Iterations 5
DILUPBiCGStab:  Solving for Uz, Initial residual = 0.00156004, Final residual = 1.09358e-08, No Iterations 5
linear solve U 4626
[OGL LOG] init_preconditioner : 0 ms
[OGL LOG] solve : 9 ms
nonecudaGKOCG:  Solving for p, Initial residual = 0.00375542, Final residual = 9.35899e-07, No Iterations 69
linear solve p 10133
time step continuity errors : sum local = 4.26235e-06, global = 2.4473e-19, cumulative = 2.51021e-19
[OGL LOG] init_preconditioner : 0 ms
[OGL LOG] solve : 9 ms
nonecudaGKOCG:  Solving for p, Initial residual = 0.00257922, Final residual = 9.54863e-07, No Iterations 67
linear solve p 9832
time step continuity errors : sum local = 4.26279e-06, global = 4.44196e-20, cumulative = 2.9544e-19
ExecutionTime = 1.07 s  ClockTime = 1 s

Time = 0.03

Courant Number mean: 0.18777 max: 0.84431
DILUPBiCGStab:  Solving for Ux, Initial residual = 0.000125178, Final residual = 1.78304e-09, No Iterations 5
DILUPBiCGStab:  Solving for Uy, Initial residual = 0.000162116, Final residual = 2.88229e-09, No Iterations 5
DILUPBiCGStab:  Solving for Uz, Initial residual = 0.000994841, Final residual = 7.04725e-09, No Iterations 5
linear solve U 4595
[OGL LOG] init_preconditioner : 0 ms
[OGL LOG] solve : 18 ms
nonecudaGKOCG:  Solving for p, Initial residual = 0.001592, Final residual = 8.0395e-07, No Iterations 134
linear solve p 18852
time step continuity errors : sum local = 4.26193e-06, global = -1.98643e-19, cumulative = 9.6797e-20
[OGL LOG] init_preconditioner : 0 ms
[OGL LOG] solve : 18 ms
nonecudaGKOCG:  Solving for p, Initial residual = 0.00108224, Final residual = 9.30024e-07, No Iterations 132
linear solve p 18624
time step continuity errors : sum local = 4.26184e-06, global = 1.14019e-19, cumulative = 2.10816e-19
ExecutionTime = 1.11 s  ClockTime = 1 s

Time = 0.035

Courant Number mean: 0.187741 max: 0.84426
DILUPBiCGStab:  Solving for Ux, Initial residual = 6.77469e-05, Final residual = 5.435e-10, No Iterations 5
DILUPBiCGStab:  Solving for Uy, Initial residual = 9.93015e-05, Final residual = 1.88556e-09, No Iterations 5
DILUPBiCGStab:  Solving for Uz, Initial residual = 0.00065144, Final residual = 4.76152e-09, No Iterations 5
linear solve U 4601
[OGL LOG] init_preconditioner : 0 ms
[OGL LOG] solve : 8 ms
nonecudaGKOCG:  Solving for p, Initial residual = 0.000709804, Final residual = 9.61529e-07, No Iterations 61
linear solve p 9025
time step continuity errors : sum local = 4.26413e-06, global = -6.16084e-20, cumulative = 1.49207e-19
[OGL LOG] init_preconditioner : 0 ms
[OGL LOG] solve : 8 ms
nonecudaGKOCG:  Solving for p, Initial residual = 0.000494813, Final residual = 9.30419e-07, No Iterations 59
linear solve p 8792
time step continuity errors : sum local = 4.26255e-06, global = 6.2357e-20, cumulative = 2.11564e-19
ExecutionTime = 1.14 s  ClockTime = 1 s

Time = 0.04

Courant Number mean: 0.187723 max: 0.84423
DILUPBiCGStab:  Solving for Ux, Initial residual = 4.14831e-05, Final residual = 3.1718e-10, No Iterations 5
DILUPBiCGStab:  Solving for Uy, Initial residual = 5.82936e-05, Final residual = 4.9261e-10, No Iterations 5
DILUPBiCGStab:  Solving for Uz, Initial residual = 0.000432676, Final residual = 2.88814e-09, No Iterations 5
linear solve U 4601
[OGL LOG] init_preconditioner : 0 ms
[OGL LOG] solve : 8 ms
nonecudaGKOCG:  Solving for p, Initial residual = 0.000326677, Final residual = 8.56132e-07, No Iterations 57
linear solve p 8456
time step continuity errors : sum local = 4.26304e-06, global = 1.29495e-20, cumulative = 2.24514e-19
[OGL LOG] init_preconditioner : 0 ms
[OGL LOG] solve : 7 ms
nonecudaGKOCG:  Solving for p, Initial residual = 0.000225855, Final residual = 9.17994e-07, No Iterations 55
linear solve p 8187
time step continuity errors : sum local = 4.26267e-06, global = -8.10637e-22, cumulative = 2.23703e-19
ExecutionTime = 1.17 s  ClockTime = 2 s

Time = 0.045

Courant Number mean: 0.187711 max: 0.844211
DILUPBiCGStab:  Solving for Ux, Initial residual = 2.55038e-05, Final residual = 1.0623e-10, No Iterations 5
DILUPBiCGStab:  Solving for Uy, Initial residual = 3.69865e-05, Final residual = 4.58216e-10, No Iterations 5
DILUPBiCGStab:  Solving for Uz, Initial residual = 0.000293191, Final residual = 1.78707e-09, No Iterations 5
linear solve U 4593
[OGL LOG] init_preconditioner : 0 ms
[OGL LOG] solve : 7 ms
nonecudaGKOCG:  Solving for p, Initial residual = 0.00015454, Final residual = 9.88278e-07, No Iterations 54
linear solve p 8060
time step continuity errors : sum local = 4.26333e-06, global = 6.48758e-20, cumulative = 2.88579e-19
[OGL LOG] init_preconditioner : 0 ms
[OGL LOG] solve : 8 ms
nonecudaGKOCG:  Solving for p, Initial residual = 0.000110515, Final residual = 9.23185e-07, No Iterations 53
linear solve p 8762
time step continuity errors : sum local = 4.26284e-06, global = -4.7232e-20, cumulative = 2.41347e-19
ExecutionTime = 1.19 s  ClockTime = 2 s

Time = 0.05

Courant Number mean: 0.187705 max: 0.8442
DILUPBiCGStab:  Solving for Ux, Initial residual = 1.65155e-05, Final residual = 7.19795e-11, No Iterations 5
DILUPBiCGStab:  Solving for Uy, Initial residual = 2.34877e-05, Final residual = 1.26845e-10, No Iterations 5
DILUPBiCGStab:  Solving for Uz, Initial residual = 0.0001983, Final residual = 1.22021e-09, No Iterations 5
linear solve U 4999
[OGL LOG] init_preconditioner : 0 ms
[OGL LOG] solve : 7 ms
nonecudaGKOCG:  Solving for p, Initial residual = 7.56641e-05, Final residual = 9.69591e-07, No Iterations 48
linear solve p 7506
time step continuity errors : sum local = 4.2636e-06, global = 2.69413e-20, cumulative = 2.68288e-19
[OGL LOG] init_preconditioner : 0 ms
[OGL LOG] solve : 6 ms
nonecudaGKOCG:  Solving for p, Initial residual = 5.45805e-05, Final residual = 8.89338e-07, No Iterations 47
linear solve p 7169
time step continuity errors : sum local = 4.26255e-06, global = -2.14132e-19, cumulative = 5.41558e-20
ExecutionTime = 1.21 s  ClockTime = 2 s

End

