/*---------------------------------------------------------------------------*\
  =========                 |
  \\      /  F ield         | OpenFOAM: The Open Source CFD Toolbox
   \\    /   O peration     | Website:  https://openfoam.org
    \\  /    A nd           | Version:  8
     \\/     M anipulation  |
\*---------------------------------------------------------------------------*/
Build  : 8-ef60d22ea792
Exec   : icoFoam
Date   : Sep 11 2021
Time   : 14:43:40
Host   : "uc2n513.localdomain"
PID    : 233483
I/O    : uncollated
Case   : /pfs/data5/home/kit/scc/nq7776/data/code/OBR/lidDrivenCavity3D/Variation_init/100/Variation_mesh/60/Variation_matrix_solver/BiCGStab_BJ_CUDA/1631364211
nProcs : 1
sigFpe : Enabling floating point exception trapping (FOAM_SIGFPE).
fileModificationChecking : Monitoring run-time modified files using timeStampMaster (fileModificationSkew 10)
allowSystemOperations : Allowing user-supplied system call operations

// * * * * * * * * * * * * * * * * * * * * * * * * * * * * * * * * * * * * * //
Create time

Create mesh for time = 0

Reading transportProperties

Reading field p

Reading field U

Reading/calculating face flux field phi


Starting time loop

Time = 0.00166667

Courant Number mean: 0.191334 max: 0.95794
DILUPBiCGStab:  Solving for Ux, Initial residual = 0.0784069, Final residual = 7.98028e-06, No Iterations 5
DILUPBiCGStab:  Solving for Uy, Initial residual = 0.151717, Final residual = 1.9553e-05, No Iterations 5
DILUPBiCGStab:  Solving for Uz, Initial residual = 0.170934, Final residual = 5.87202e-05, No Iterations 5
linear solve U 215269
[OGL LOG] init_host_sparsity_pattern : 59 ms
[OGL LOG] matrix not stored update host matrix
[OGL LOG] update_host_mtx : 31 ms
[OGL LOG] matrix is not yet sorted, compute sorting idxs
[OGL LOG] compute_sort : 1760 ms
[OGL LOG] matrix is not yet sorted, sorting host matrix
[OGL LOG] sort_host_mtx_sparsity_pattern : 40 ms
[OGL LOG] sort_host_mtx : 22 ms
[OGL LOG] init_preconditioner : 27 ms
[OGL LOG] solve : 231 ms
BJcudaGKOBiCGStab:  Solving for p, Initial residual = 0.575692, Final residual = 7.84862e-07, No Iterations 281
linear solve p 2931225
time step continuity errors : sum local = 1.60209e-09, global = 2.59859e-20, cumulative = 2.59859e-20
[OGL LOG] init_preconditioner : 0 ms
[OGL LOG] solve : 222 ms
BJcudaGKOBiCGStab:  Solving for p, Initial residual = 0.295463, Final residual = 9.05639e-07, No Iterations 283
linear solve p 229041
time step continuity errors : sum local = 8.88687e-07, global = -1.98671e-20, cumulative = 6.11882e-21
ExecutionTime = 4.46 s  ClockTime = 5 s

Time = 0.00333333

Courant Number mean: 0.191279 max: 0.948742
DILUPBiCGStab:  Solving for Ux, Initial residual = 0.00518952, Final residual = 4.54302e-06, No Iterations 5
DILUPBiCGStab:  Solving for Uy, Initial residual = 0.0106549, Final residual = 7.70442e-06, No Iterations 5
DILUPBiCGStab:  Solving for Uz, Initial residual = 0.0165441, Final residual = 6.94364e-05, No Iterations 5
linear solve U 196881
[OGL LOG] init_preconditioner : 0 ms
[OGL LOG] solve : 217 ms
BJcudaGKOBiCGStab:  Solving for p, Initial residual = 0.147859, Final residual = 6.30673e-07, No Iterations 277
linear solve p 223970
time step continuity errors : sum local = 4.47687e-05, global = -4.4076e-20, cumulative = -3.79572e-20
[OGL LOG] init_preconditioner : 0 ms
[OGL LOG] solve : 242 ms
BJcudaGKOBiCGStab:  Solving for p, Initial residual = 0.139579, Final residual = 9.73569e-07, No Iterations 308
linear solve p 250170
time step continuity errors : sum local = 2.89945e-07, global = 4.38027e-21, cumulative = -3.35769e-20
ExecutionTime = 5.26 s  ClockTime = 5 s

Time = 0.005

Courant Number mean: 0.191277 max: 0.948279
DILUPBiCGStab:  Solving for Ux, Initial residual = 0.000615618, Final residual = 1.84734e-06, No Iterations 5
DILUPBiCGStab:  Solving for Uy, Initial residual = 0.00148557, Final residual = 5.048e-06, No Iterations 5
DILUPBiCGStab:  Solving for Uz, Initial residual = 0.0742652, Final residual = 0.000651568, No Iterations 5
linear solve U 197112
[OGL LOG] init_preconditioner : 0 ms
[OGL LOG] solve : 232 ms
BJcudaGKOBiCGStab:  Solving for p, Initial residual = 0.249142, Final residual = 9.61512e-07, No Iterations 298
linear solve p 239374
time step continuity errors : sum local = 1.55727e-06, global = -3.81319e-20, cumulative = -7.17088e-20
[OGL LOG] init_preconditioner : 0 ms
[OGL LOG] solve : 227 ms
BJcudaGKOBiCGStab:  Solving for p, Initial residual = 0.212942, Final residual = 3.30061e-07, No Iterations 291
linear solve p 234398
time step continuity errors : sum local = 1.13689e-05, global = 3.52041e-20, cumulative = -3.65047e-20
ExecutionTime = 6.05 s  ClockTime = 6 s

Time = 0.00666667

Courant Number mean: 0.191286 max: 0.948432
DILUPBiCGStab:  Solving for Ux, Initial residual = 0.000436258, Final residual = 1.67313e-06, No Iterations 5
DILUPBiCGStab:  Solving for Uy, Initial residual = 0.00126628, Final residual = 4.50709e-06, No Iterations 5
DILUPBiCGStab:  Solving for Uz, Initial residual = 0.0622709, Final residual = 0.000151456, No Iterations 5
linear solve U 195937
[OGL LOG] init_preconditioner : 0 ms
[OGL LOG] solve : 220 ms
BJcudaGKOBiCGStab:  Solving for p, Initial residual = 0.122055, Final residual = 9.86188e-07, No Iterations 281
linear solve p 226477
time step continuity errors : sum local = 3.87485e-07, global = -3.1471e-20, cumulative = -6.79757e-20
[OGL LOG] init_preconditioner : 0 ms
[OGL LOG] solve : 192 ms
BJcudaGKOBiCGStab:  Solving for p, Initial residual = 0.0978192, Final residual = 9.78112e-07, No Iterations 244
linear solve p 198581
time step continuity errors : sum local = 5.90739e-07, global = 4.92845e-21, cumulative = -6.30473e-20
ExecutionTime = 6.79 s  ClockTime = 7 s

Time = 0.00833333

Courant Number mean: 0.191272 max: 0.948356
DILUPBiCGStab:  Solving for Ux, Initial residual = 0.000210118, Final residual = 6.66693e-07, No Iterations 5
DILUPBiCGStab:  Solving for Uy, Initial residual = 0.000625553, Final residual = 1.53156e-06, No Iterations 5
DILUPBiCGStab:  Solving for Uz, Initial residual = 0.0301107, Final residual = 4.92696e-05, No Iterations 5
linear solve U 197583
[OGL LOG] init_preconditioner : 0 ms
[OGL LOG] solve : 224 ms
BJcudaGKOBiCGStab:  Solving for p, Initial residual = 0.0815029, Final residual = 9.69695e-07, No Iterations 288
linear solve p 231261
time step continuity errors : sum local = 4.41203e-07, global = 9.77435e-21, cumulative = -5.32729e-20
[OGL LOG] init_preconditioner : 0 ms
[OGL LOG] solve : 236 ms
BJcudaGKOBiCGStab:  Solving for p, Initial residual = 0.067807, Final residual = 9.97687e-07, No Iterations 301
linear solve p 243529
time step continuity errors : sum local = 3.0061e-07, global = -4.44006e-21, cumulative = -5.7713e-20
ExecutionTime = 7.58 s  ClockTime = 8 s

Time = 0.01

Courant Number mean: 0.191273 max: 0.948308
DILUPBiCGStab:  Solving for Ux, Initial residual = 0.000139339, Final residual = 4.55946e-07, No Iterations 5
DILUPBiCGStab:  Solving for Uy, Initial residual = 0.000418178, Final residual = 9.47049e-07, No Iterations 5
DILUPBiCGStab:  Solving for Uz, Initial residual = 0.0212811, Final residual = 2.24373e-05, No Iterations 5
linear solve U 197483
[OGL LOG] init_preconditioner : 0 ms
[OGL LOG] solve : 189 ms
BJcudaGKOBiCGStab:  Solving for p, Initial residual = 0.060191, Final residual = 4.54541e-07, No Iterations 241
linear solve p 195487
time step continuity errors : sum local = 2.43822e-06, global = -3.50817e-20, cumulative = -9.27947e-20
[OGL LOG] init_preconditioner : 0 ms
[OGL LOG] solve : 238 ms
BJcudaGKOBiCGStab:  Solving for p, Initial residual = 0.0475352, Final residual = 4.78931e-07, No Iterations 306
linear solve p 245214
time step continuity errors : sum local = 3.09637e-07, global = -4.31139e-20, cumulative = -1.35909e-19
ExecutionTime = 8.35 s  ClockTime = 9 s

Time = 0.0116667

Courant Number mean: 0.191275 max: 0.948294
DILUPBiCGStab:  Solving for Ux, Initial residual = 9.03965e-05, Final residual = 2.59291e-07, No Iterations 5
DILUPBiCGStab:  Solving for Uy, Initial residual = 0.000280641, Final residual = 5.91301e-07, No Iterations 5
DILUPBiCGStab:  Solving for Uz, Initial residual = 0.0185466, Final residual = 4.4758e-05, No Iterations 5
linear solve U 195914
[OGL LOG] init_preconditioner : 0 ms
[OGL LOG] solve : 139 ms
BJcudaGKOBiCGStab:  Solving for p, Initial residual = 0.0529052, Final residual = 8.75984e-07, No Iterations 176
linear solve p 146442
time step continuity errors : sum local = 3.0976e-07, global = 1.60002e-20, cumulative = -1.19908e-19
[OGL LOG] init_preconditioner : 0 ms
[OGL LOG] solve : 111 ms
BJcudaGKOBiCGStab:  Solving for p, Initial residual = 0.043326, Final residual = 7.9882e-07, No Iterations 140
linear solve p 117618
time step continuity errors : sum local = 2.88094e-07, global = 2.17631e-20, cumulative = -9.81452e-20
ExecutionTime = 8.92 s  ClockTime = 9 s

Time = 0.0133333

Courant Number mean: 0.191278 max: 0.948296
DILUPBiCGStab:  Solving for Ux, Initial residual = 7.19249e-05, Final residual = 2.12291e-07, No Iterations 5
DILUPBiCGStab:  Solving for Uy, Initial residual = 0.000220505, Final residual = 4.57524e-07, No Iterations 5
DILUPBiCGStab:  Solving for Uz, Initial residual = 0.0148284, Final residual = 3.07536e-05, No Iterations 5
linear solve U 197427
[OGL LOG] init_preconditioner : 0 ms
[OGL LOG] solve : 205 ms
BJcudaGKOBiCGStab:  Solving for p, Initial residual = 0.0401974, Final residual = 2.01376e-07, No Iterations 263
linear solve p 212256
time step continuity errors : sum local = 8.3723e-07, global = 1.60414e-20, cumulative = -8.21039e-20
[OGL LOG] init_preconditioner : 0 ms
[OGL LOG] solve : 213 ms
BJcudaGKOBiCGStab:  Solving for p, Initial residual = 0.0339458, Final residual = 6.61737e-07, No Iterations 272
linear solve p 220032
time step continuity errors : sum local = 1.1276e-06, global = -7.19611e-20, cumulative = -1.54065e-19
ExecutionTime = 9.67 s  ClockTime = 10 s

Time = 0.015

Courant Number mean: 0.19128 max: 0.948287
DILUPBiCGStab:  Solving for Ux, Initial residual = 5.02221e-05, Final residual = 1.23991e-07, No Iterations 5
DILUPBiCGStab:  Solving for Uy, Initial residual = 0.000156318, Final residual = 3.03748e-07, No Iterations 5
DILUPBiCGStab:  Solving for Uz, Initial residual = 0.0091196, Final residual = 1.28127e-05, No Iterations 5
linear solve U 196816
[OGL LOG] init_preconditioner : 0 ms
[OGL LOG] solve : 213 ms
BJcudaGKOBiCGStab:  Solving for p, Initial residual = 0.0249663, Final residual = 5.50893e-07, No Iterations 271
linear solve p 221423
time step continuity errors : sum local = 1.14736e-06, global = -6.54829e-20, cumulative = -2.19548e-19
[OGL LOG] init_preconditioner : 0 ms
[OGL LOG] solve : 191 ms
BJcudaGKOBiCGStab:  Solving for p, Initial residual = 0.0215949, Final residual = 6.86449e-07, No Iterations 245
linear solve p 198315
time step continuity errors : sum local = 6.17928e-07, global = 2.53292e-20, cumulative = -1.94219e-19
ExecutionTime = 10.41 s  ClockTime = 11 s

Time = 0.0166667

Courant Number mean: 0.191283 max: 0.948291
DILUPBiCGStab:  Solving for Ux, Initial residual = 3.77095e-05, Final residual = 5.94441e-08, No Iterations 5
DILUPBiCGStab:  Solving for Uy, Initial residual = 0.000114917, Final residual = 2.2286e-07, No Iterations 5
DILUPBiCGStab:  Solving for Uz, Initial residual = 0.00644979, Final residual = 2.06821e-05, No Iterations 5
linear solve U 196304
[OGL LOG] init_preconditioner : 0 ms
[OGL LOG] solve : 189 ms
BJcudaGKOBiCGStab:  Solving for p, Initial residual = 0.0163987, Final residual = 6.82674e-07, No Iterations 241
linear solve p 196418
time step continuity errors : sum local = 2.88258e-07, global = 7.58731e-21, cumulative = -1.86631e-19
[OGL LOG] init_preconditioner : 0 ms
[OGL LOG] solve : 194 ms
BJcudaGKOBiCGStab:  Solving for p, Initial residual = 0.0129692, Final residual = 9.56034e-07, No Iterations 247
linear solve p 200773
time step continuity errors : sum local = 3.37559e-07, global = -3.76942e-20, cumulative = -2.24326e-19
ExecutionTime = 11.13 s  ClockTime = 11 s

End

