/*---------------------------------------------------------------------------*\
  =========                 |
  \\      /  F ield         | OpenFOAM: The Open Source CFD Toolbox
   \\    /   O peration     | Website:  https://openfoam.org
    \\  /    A nd           | Version:  8
     \\/     M anipulation  |
\*---------------------------------------------------------------------------*/
Build  : 8-ef60d22ea792
Exec   : icoFoam
Date   : Sep 11 2021
Time   : 14:36:29
Host   : "uc2n513.localdomain"
PID    : 229183
I/O    : uncollated
Case   : /pfs/data5/home/kit/scc/nq7776/data/code/OBR/lidDrivenCavity3D/Variation_init/100/Variation_mesh/10/Variation_matrix_solver/BiCGStab_ILU_CUDA/1631363787
nProcs : 1
sigFpe : Enabling floating point exception trapping (FOAM_SIGFPE).
fileModificationChecking : Monitoring run-time modified files using timeStampMaster (fileModificationSkew 10)
allowSystemOperations : Allowing user-supplied system call operations

// * * * * * * * * * * * * * * * * * * * * * * * * * * * * * * * * * * * * * //
Create time

Create mesh for time = 0

Reading transportProperties

Reading field p

Reading field U

Reading/calculating face flux field phi


Starting time loop

Time = 0.01

Courant Number mean: 0.184879 max: 0.722295
DILUPBiCGStab:  Solving for Ux, Initial residual = 0.138471, Final residual = 2.65068e-09, No Iterations 5
DILUPBiCGStab:  Solving for Uy, Initial residual = 0.150118, Final residual = 5.88061e-10, No Iterations 5
DILUPBiCGStab:  Solving for Uz, Initial residual = 0.278898, Final residual = 3.06847e-09, No Iterations 5
linear solve U 793
[OGL LOG] init_host_sparsity_pattern : 0 ms
[OGL LOG] matrix not stored update host matrix
[OGL LOG] update_host_mtx : 0 ms
[OGL LOG] matrix is not yet sorted, compute sorting idxs
[OGL LOG] compute_sort : 5 ms
[OGL LOG] matrix is not yet sorted, sorting host matrix
[OGL LOG] sort_host_mtx_sparsity_pattern : 0 ms
[OGL LOG] sort_host_mtx : 0 ms
[OGL LOG] init_preconditioner : 3 ms
[OGL LOG] solve : 8 ms
ILUcudaGKOBiCGStab:  Solving for p, Initial residual = 0.615468, Final residual = 8.77922e-07, No Iterations 16
linear solve p 736867
time step continuity errors : sum local = 3.60702e-08, global = -2.68259e-19, cumulative = -2.68259e-19
[OGL LOG] init_preconditioner : 0 ms
[OGL LOG] solve : 9 ms
ILUcudaGKOBiCGStab:  Solving for p, Initial residual = 0.309181, Final residual = 6.35404e-07, No Iterations 19
linear solve p 9841
time step continuity errors : sum local = 1.1531e-08, global = -3.92222e-19, cumulative = -6.60481e-19
ExecutionTime = 0.78 s  ClockTime = 1 s

Time = 0.02

Courant Number mean: 0.181259 max: 0.69519
DILUPBiCGStab:  Solving for Ux, Initial residual = 0.0298073, Final residual = 1.18559e-09, No Iterations 5
DILUPBiCGStab:  Solving for Uy, Initial residual = 0.0402523, Final residual = 4.76508e-09, No Iterations 5
DILUPBiCGStab:  Solving for Uz, Initial residual = 0.094003, Final residual = 1.11393e-09, No Iterations 5
linear solve U 560
[OGL LOG] init_preconditioner : 0 ms
[OGL LOG] solve : 9 ms
ILUcudaGKOBiCGStab:  Solving for p, Initial residual = 0.144569, Final residual = 3.08908e-07, No Iterations 19
linear solve p 9766
time step continuity errors : sum local = 2.73968e-05, global = 1.45319e-19, cumulative = -5.15162e-19
[OGL LOG] init_preconditioner : 0 ms
[OGL LOG] solve : 8 ms
ILUcudaGKOBiCGStab:  Solving for p, Initial residual = 0.0646391, Final residual = 3.25605e-07, No Iterations 17
linear solve p 8833
time step continuity errors : sum local = 2.4534e-05, global = 2.20559e-19, cumulative = -2.94602e-19
ExecutionTime = 0.81 s  ClockTime = 1 s

Time = 0.03

Courant Number mean: 0.179525 max: 0.686072
DILUPBiCGStab:  Solving for Ux, Initial residual = 0.00445928, Final residual = 1.13171e-10, No Iterations 5
DILUPBiCGStab:  Solving for Uy, Initial residual = 0.0070496, Final residual = 8.18008e-10, No Iterations 5
DILUPBiCGStab:  Solving for Uz, Initial residual = 0.0284237, Final residual = 1.4564e-09, No Iterations 5
linear solve U 550
[OGL LOG] init_preconditioner : 0 ms
[OGL LOG] solve : 8 ms
ILUcudaGKOBiCGStab:  Solving for p, Initial residual = 0.0147287, Final residual = 4.06469e-07, No Iterations 16
linear solve p 8349
time step continuity errors : sum local = 2.44136e-05, global = -3.35968e-19, cumulative = -6.3057e-19
[OGL LOG] init_preconditioner : 0 ms
[OGL LOG] solve : 7 ms
ILUcudaGKOBiCGStab:  Solving for p, Initial residual = 0.00671944, Final residual = 5.83308e-07, No Iterations 15
linear solve p 7886
time step continuity errors : sum local = 2.44131e-05, global = 1.37047e-19, cumulative = -4.93523e-19
ExecutionTime = 0.82 s  ClockTime = 1 s

Time = 0.04

Courant Number mean: 0.178874 max: 0.683124
DILUPBiCGStab:  Solving for Ux, Initial residual = 0.0012878, Final residual = 3.61361e-11, No Iterations 5
DILUPBiCGStab:  Solving for Uy, Initial residual = 0.00194397, Final residual = 2.44563e-09, No Iterations 5
DILUPBiCGStab:  Solving for Uz, Initial residual = 0.00914756, Final residual = 3.86529e-10, No Iterations 5
linear solve U 545
[OGL LOG] init_preconditioner : 0 ms
[OGL LOG] solve : 6 ms
ILUcudaGKOBiCGStab:  Solving for p, Initial residual = 0.00287174, Final residual = 9.00918e-07, No Iterations 13
linear solve p 6964
time step continuity errors : sum local = 2.44857e-05, global = -1.74899e-19, cumulative = -6.68422e-19
[OGL LOG] init_preconditioner : 0 ms
[OGL LOG] solve : 6 ms
ILUcudaGKOBiCGStab:  Solving for p, Initial residual = 0.00179483, Final residual = 7.25078e-07, No Iterations 13
linear solve p 6970
time step continuity errors : sum local = 2.44354e-05, global = -3.7157e-19, cumulative = -1.03999e-18
ExecutionTime = 0.83 s  ClockTime = 1 s

Time = 0.05

Courant Number mean: 0.178608 max: 0.682133
DILUPBiCGStab:  Solving for Ux, Initial residual = 0.00045279, Final residual = 9.82611e-12, No Iterations 5
DILUPBiCGStab:  Solving for Uy, Initial residual = 0.000695176, Final residual = 1.44409e-09, No Iterations 5
DILUPBiCGStab:  Solving for Uz, Initial residual = 0.00436669, Final residual = 1.42661e-10, No Iterations 5
linear solve U 549
[OGL LOG] init_preconditioner : 0 ms
[OGL LOG] solve : 5 ms
ILUcudaGKOBiCGStab:  Solving for p, Initial residual = 0.00105528, Final residual = 9.89055e-07, No Iterations 10
linear solve p 5635
time step continuity errors : sum local = 2.44551e-05, global = -8.99311e-20, cumulative = -1.12992e-18
[OGL LOG] init_preconditioner : 0 ms
[OGL LOG] solve : 3 ms
ILUcudaGKOBiCGStab:  Solving for p, Initial residual = 0.000627872, Final residual = 3.90512e-07, No Iterations 6
linear solve p 3715
time step continuity errors : sum local = 2.44302e-05, global = 4.80426e-19, cumulative = -6.49496e-19
ExecutionTime = 0.84 s  ClockTime = 1 s

Time = 0.06

Courant Number mean: 0.178489 max: 0.681727
DILUPBiCGStab:  Solving for Ux, Initial residual = 0.000194287, Final residual = 3.44033e-12, No Iterations 5
DILUPBiCGStab:  Solving for Uy, Initial residual = 0.000278819, Final residual = 7.13022e-11, No Iterations 5
DILUPBiCGStab:  Solving for Uz, Initial residual = 0.00218516, Final residual = 5.39416e-11, No Iterations 5
linear solve U 542
[OGL LOG] init_preconditioner : 0 ms
[OGL LOG] solve : 3 ms
ILUcudaGKOBiCGStab:  Solving for p, Initial residual = 0.000424278, Final residual = 8.36657e-07, No Iterations 6
linear solve p 3721
time step continuity errors : sum local = 2.44451e-05, global = -4.90353e-20, cumulative = -6.98531e-19
[OGL LOG] init_preconditioner : 0 ms
[OGL LOG] solve : 3 ms
ILUcudaGKOBiCGStab:  Solving for p, Initial residual = 0.000264031, Final residual = 9.76145e-07, No Iterations 5
linear solve p 3254
time step continuity errors : sum local = 2.44254e-05, global = -3.00564e-19, cumulative = -9.99096e-19
ExecutionTime = 0.85 s  ClockTime = 1 s

Time = 0.07

Courant Number mean: 0.178435 max: 0.68156
DILUPBiCGStab:  Solving for Ux, Initial residual = 9.20501e-05, Final residual = 1.04749e-12, No Iterations 5
DILUPBiCGStab:  Solving for Uy, Initial residual = 0.000124412, Final residual = 1.12587e-09, No Iterations 5
DILUPBiCGStab:  Solving for Uz, Initial residual = 0.00112561, Final residual = 2.43257e-11, No Iterations 5
linear solve U 547
[OGL LOG] init_preconditioner : 0 ms
[OGL LOG] solve : 3 ms
ILUcudaGKOBiCGStab:  Solving for p, Initial residual = 0.000191717, Final residual = 8.23679e-07, No Iterations 6
linear solve p 3479
time step continuity errors : sum local = 2.44379e-05, global = 1.32349e-20, cumulative = -9.85861e-19
[OGL LOG] init_preconditioner : 0 ms
[OGL LOG] solve : 3 ms
ILUcudaGKOBiCGStab:  Solving for p, Initial residual = 0.000117383, Final residual = 4.1172e-07, No Iterations 5
linear solve p 3257
time step continuity errors : sum local = 2.44287e-05, global = 1.00545e-18, cumulative = 1.95938e-20
ExecutionTime = 0.86 s  ClockTime = 1 s

Time = 0.08

Courant Number mean: 0.178409 max: 0.681485
DILUPBiCGStab:  Solving for Ux, Initial residual = 4.55994e-05, Final residual = 3.5645e-13, No Iterations 5
DILUPBiCGStab:  Solving for Uy, Initial residual = 5.90485e-05, Final residual = 9.89446e-12, No Iterations 5
DILUPBiCGStab:  Solving for Uz, Initial residual = 0.000589438, Final residual = 1.17063e-11, No Iterations 5
linear solve U 542
[OGL LOG] init_preconditioner : 0 ms
[OGL LOG] solve : 3 ms
ILUcudaGKOBiCGStab:  Solving for p, Initial residual = 9.29788e-05, Final residual = 6.39854e-07, No Iterations 5
linear solve p 3269
time step continuity errors : sum local = 2.44364e-05, global = -7.18787e-19, cumulative = -6.99193e-19
[OGL LOG] init_preconditioner : 0 ms
[OGL LOG] solve : 2 ms
ILUcudaGKOBiCGStab:  Solving for p, Initial residual = 5.71599e-05, Final residual = 8.77425e-07, No Iterations 4
linear solve p 2827
time step continuity errors : sum local = 2.44309e-05, global = 5.35219e-19, cumulative = -1.63974e-19
ExecutionTime = 0.87 s  ClockTime = 1 s

Time = 0.09

Courant Number mean: 0.178396 max: 0.681452
DILUPBiCGStab:  Solving for Ux, Initial residual = 2.30874e-05, Final residual = 1.30655e-13, No Iterations 5
DILUPBiCGStab:  Solving for Uy, Initial residual = 2.89479e-05, Final residual = 1.6946e-12, No Iterations 5
DILUPBiCGStab:  Solving for Uz, Initial residual = 0.000309091, Final residual = 5.92856e-12, No Iterations 5
linear solve U 549
[OGL LOG] init_preconditioner : 0 ms
[OGL LOG] solve : 2 ms
ILUcudaGKOBiCGStab:  Solving for p, Initial residual = 4.53681e-05, Final residual = 8.17393e-07, No Iterations 4
linear solve p 2791
time step continuity errors : sum local = 2.44349e-05, global = 2.57783e-19, cumulative = 9.38085e-20
[OGL LOG] init_preconditioner : 0 ms
[OGL LOG] solve : 2 ms
ILUcudaGKOBiCGStab:  Solving for p, Initial residual = 2.75e-05, Final residual = 8.87013e-07, No Iterations 4
linear solve p 2550
time step continuity errors : sum local = 2.44324e-05, global = -5.87232e-19, cumulative = -4.93424e-19
ExecutionTime = 0.87 s  ClockTime = 1 s

Time = 0.1

Courant Number mean: 0.17839 max: 0.681436
DILUPBiCGStab:  Solving for Ux, Initial residual = 1.18589e-05, Final residual = 5.25395e-14, No Iterations 5
DILUPBiCGStab:  Solving for Uy, Initial residual = 1.46143e-05, Final residual = 1.00152e-12, No Iterations 5
DILUPBiCGStab:  Solving for Uz, Initial residual = 0.00016302, Final residual = 3.11594e-12, No Iterations 5
linear solve U 549
[OGL LOG] init_preconditioner : 0 ms
[OGL LOG] solve : 2 ms
ILUcudaGKOBiCGStab:  Solving for p, Initial residual = 2.24315e-05, Final residual = 9.60348e-07, No Iterations 3
linear solve p 2397
time step continuity errors : sum local = 2.44342e-05, global = -1.36981e-19, cumulative = -6.30405e-19
[OGL LOG] init_preconditioner : 0 ms
[OGL LOG] solve : 2 ms
ILUcudaGKOBiCGStab:  Solving for p, Initial residual = 1.31633e-05, Final residual = 6.186e-07, No Iterations 3
linear solve p 2325
time step continuity errors : sum local = 2.4432e-05, global = -6.7359e-19, cumulative = -1.30399e-18
ExecutionTime = 0.88 s  ClockTime = 1 s

End

