/*---------------------------------------------------------------------------*\
  =========                 |
  \\      /  F ield         | OpenFOAM: The Open Source CFD Toolbox
   \\    /   O peration     | Website:  https://openfoam.org
    \\  /    A nd           | Version:  8
     \\/     M anipulation  |
\*---------------------------------------------------------------------------*/
Build  : 8-ef60d22ea792
Exec   : icoFoam
Date   : Sep 11 2021
Time   : 13:54:51
Host   : "uc2n442.localdomain"
PID    : 3718629
I/O    : uncollated
Case   : /pfs/data5/home/kit/scc/nq7776/data/code/OBR/lidDrivenCavity3D/Variation_init/100/Variation_mesh/25/Variation_matrix_solver/BiCGStab_DIC_Serial/1631361290
nProcs : 1
sigFpe : Enabling floating point exception trapping (FOAM_SIGFPE).
fileModificationChecking : Monitoring run-time modified files using timeStampMaster (fileModificationSkew 10)
allowSystemOperations : Allowing user-supplied system call operations

// * * * * * * * * * * * * * * * * * * * * * * * * * * * * * * * * * * * * * //
Create time

Create mesh for time = 0

Reading transportProperties

Reading field p

Reading field U

Reading/calculating face flux field phi


Starting time loop

Time = 0.004

Courant Number mean: 0.190206 max: 0.902763
DILUPBiCGStab:  Solving for Ux, Initial residual = 0.141566, Final residual = 7.19632e-07, No Iterations 5
DILUPBiCGStab:  Solving for Uy, Initial residual = 0.199843, Final residual = 1.48111e-06, No Iterations 5
DILUPBiCGStab:  Solving for Uz, Initial residual = 0.419047, Final residual = 6.53558e-06, No Iterations 5
linear solve U 11092
DICPBiCGStab:  Solving for p, Initial residual = 0.573274, Final residual = 9.52055e-07, No Iterations 43
linear solve p 22211
time step continuity errors : sum local = 9.82445e-09, global = -8.4948e-20, cumulative = -8.4948e-20
DICPBiCGStab:  Solving for p, Initial residual = 0.2807, Final residual = 9.49917e-07, No Iterations 49
linear solve p 25999
time step continuity errors : sum local = 4.33997e-09, global = 5.04032e-20, cumulative = -3.45449e-20
ExecutionTime = 0.16 s  ClockTime = 0 s

Time = 0.008

Courant Number mean: 0.189745 max: 0.879561
DILUPBiCGStab:  Solving for Ux, Initial residual = 0.0127396, Final residual = 6.88921e-07, No Iterations 5
DILUPBiCGStab:  Solving for Uy, Initial residual = 0.019977, Final residual = 1.27343e-06, No Iterations 5
DILUPBiCGStab:  Solving for Uz, Initial residual = 0.0739645, Final residual = 3.67534e-06, No Iterations 5
linear solve U 9736
DICPBiCGStab:  Solving for p, Initial residual = 0.180344, Final residual = 1.70221e-08, No Iterations 50
linear solve p 25464
time step continuity errors : sum local = 1.28723e-10, global = 8.06899e-20, cumulative = 4.6145e-20
DICPBiCGStab:  Solving for p, Initial residual = 0.106379, Final residual = 6.16235e-07, No Iterations 50
linear solve p 25842
time step continuity errors : sum local = 3.25538e-09, global = -1.35819e-19, cumulative = -8.96735e-20
ExecutionTime = 0.23 s  ClockTime = 0 s

Time = 0.012

Courant Number mean: 0.189395 max: 0.876757
DILUPBiCGStab:  Solving for Ux, Initial residual = 0.00162372, Final residual = 1.27739e-07, No Iterations 5
DILUPBiCGStab:  Solving for Uy, Initial residual = 0.00313241, Final residual = 2.48232e-07, No Iterations 5
DILUPBiCGStab:  Solving for Uz, Initial residual = 0.0223424, Final residual = 1.00305e-06, No Iterations 5
linear solve U 10003
DICPBiCGStab:  Solving for p, Initial residual = 0.0483604, Final residual = 5.03917e-07, No Iterations 47
linear solve p 24047
time step continuity errors : sum local = 2.14427e-09, global = -4.25584e-21, cumulative = -9.39294e-20
DICPBiCGStab:  Solving for p, Initial residual = 0.0318447, Final residual = 4.87876e-07, No Iterations 47
linear solve p 23972
time step continuity errors : sum local = 2.0731e-09, global = -5.69514e-20, cumulative = -1.50881e-19
ExecutionTime = 0.29 s  ClockTime = 0 s

Time = 0.016

Courant Number mean: 0.189204 max: 0.876129
DILUPBiCGStab:  Solving for Ux, Initial residual = 0.00062977, Final residual = 5.06122e-08, No Iterations 5
DILUPBiCGStab:  Solving for Uy, Initial residual = 0.000837598, Final residual = 5.05349e-08, No Iterations 5
DILUPBiCGStab:  Solving for Uz, Initial residual = 0.00466169, Final residual = 2.18402e-07, No Iterations 5
linear solve U 9682
DICPBiCGStab:  Solving for p, Initial residual = 0.0180317, Final residual = 4.82062e-07, No Iterations 21
linear solve p 10854
time step continuity errors : sum local = 3.7664e-09, global = -2.37807e-19, cumulative = -3.88688e-19
DICPBiCGStab:  Solving for p, Initial residual = 0.0122927, Final residual = 7.07268e-07, No Iterations 23
linear solve p 11872
time step continuity errors : sum local = 3.52449e-09, global = -8.12754e-20, cumulative = -4.69964e-19
ExecutionTime = 0.33 s  ClockTime = 0 s

Time = 0.02

Courant Number mean: 0.189124 max: 0.875978
DILUPBiCGStab:  Solving for Ux, Initial residual = 0.000280885, Final residual = 1.95523e-08, No Iterations 5
DILUPBiCGStab:  Solving for Uy, Initial residual = 0.000378339, Final residual = 2.37663e-08, No Iterations 5
DILUPBiCGStab:  Solving for Uz, Initial residual = 0.0023025, Final residual = 1.07669e-07, No Iterations 5
linear solve U 9609
DICPBiCGStab:  Solving for p, Initial residual = 0.00784472, Final residual = 6.61755e-07, No Iterations 21
linear solve p 11364
time step continuity errors : sum local = 4.08257e-09, global = 2.01464e-19, cumulative = -2.685e-19
DICPBiCGStab:  Solving for p, Initial residual = 0.0054815, Final residual = 3.62411e-07, No Iterations 20
linear solve p 10281
time step continuity errors : sum local = 1.68894e-09, global = -7.83198e-20, cumulative = -3.4682e-19
ExecutionTime = 0.37 s  ClockTime = 0 s

Time = 0.024

Courant Number mean: 0.189076 max: 0.875913
DILUPBiCGStab:  Solving for Ux, Initial residual = 0.000154819, Final residual = 9.97725e-09, No Iterations 5
DILUPBiCGStab:  Solving for Uy, Initial residual = 0.00019164, Final residual = 1.14909e-08, No Iterations 5
DILUPBiCGStab:  Solving for Uz, Initial residual = 0.00111692, Final residual = 6.0384e-08, No Iterations 5
linear solve U 10029
DICPBiCGStab:  Solving for p, Initial residual = 0.00361867, Final residual = 4.75858e-07, No Iterations 20
linear solve p 10370
time step continuity errors : sum local = 2.59306e-09, global = 5.28619e-20, cumulative = -2.93958e-19
DICPBiCGStab:  Solving for p, Initial residual = 0.00255464, Final residual = 6.76781e-07, No Iterations 19
linear solve p 9738
time step continuity errors : sum local = 3.09572e-09, global = 3.41598e-21, cumulative = -2.90542e-19
ExecutionTime = 0.4 s  ClockTime = 0 s

Time = 0.028

Courant Number mean: 0.189051 max: 0.875862
DILUPBiCGStab:  Solving for Ux, Initial residual = 8.73729e-05, Final residual = 5.11209e-09, No Iterations 5
DILUPBiCGStab:  Solving for Uy, Initial residual = 0.000121728, Final residual = 6.88489e-09, No Iterations 5
DILUPBiCGStab:  Solving for Uz, Initial residual = 0.000704489, Final residual = 2.8524e-08, No Iterations 5
linear solve U 9617
DICPBiCGStab:  Solving for p, Initial residual = 0.00172115, Final residual = 9.05503e-07, No Iterations 16
linear solve p 8205
time step continuity errors : sum local = 3.97602e-09, global = 4.53394e-20, cumulative = -2.45203e-19
DICPBiCGStab:  Solving for p, Initial residual = 0.00122637, Final residual = 9.12645e-07, No Iterations 15
linear solve p 7982
time step continuity errors : sum local = 3.77247e-09, global = 6.04134e-20, cumulative = -1.84789e-19
ExecutionTime = 0.43 s  ClockTime = 0 s

Time = 0.032

Courant Number mean: 0.189036 max: 0.875835
DILUPBiCGStab:  Solving for Ux, Initial residual = 5.42871e-05, Final residual = 2.3584e-09, No Iterations 5
DILUPBiCGStab:  Solving for Uy, Initial residual = 7.696e-05, Final residual = 3.21105e-09, No Iterations 5
DILUPBiCGStab:  Solving for Uz, Initial residual = 0.0004638, Final residual = 1.95377e-08, No Iterations 5
linear solve U 9668
DICPBiCGStab:  Solving for p, Initial residual = 0.000856354, Final residual = 3.41067e-07, No Iterations 17
linear solve p 8880
time step continuity errors : sum local = 1.94707e-09, global = 4.21434e-20, cumulative = -1.42646e-19
DICPBiCGStab:  Solving for p, Initial residual = 0.000612193, Final residual = 9.67176e-07, No Iterations 17
linear solve p 8676
time step continuity errors : sum local = 4.25372e-09, global = 1.53768e-19, cumulative = 1.11226e-20
ExecutionTime = 0.47 s  ClockTime = 0 s

Time = 0.036

Courant Number mean: 0.189028 max: 0.875816
DILUPBiCGStab:  Solving for Ux, Initial residual = 3.40219e-05, Final residual = 1.34817e-09, No Iterations 5
DILUPBiCGStab:  Solving for Uy, Initial residual = 5.34392e-05, Final residual = 2.71253e-09, No Iterations 5
DILUPBiCGStab:  Solving for Uz, Initial residual = 0.000327821, Final residual = 1.18434e-08, No Iterations 5
linear solve U 9618
DICPBiCGStab:  Solving for p, Initial residual = 0.000424549, Final residual = 8.21529e-07, No Iterations 14
linear solve p 7477
time step continuity errors : sum local = 3.70662e-09, global = -7.45715e-20, cumulative = -6.34489e-20
DICPBiCGStab:  Solving for p, Initial residual = 0.000304066, Final residual = 8.26735e-07, No Iterations 14
linear solve p 7971
time step continuity errors : sum local = 3.39078e-09, global = 8.10458e-20, cumulative = 1.75969e-20
ExecutionTime = 0.5 s  ClockTime = 0 s

Time = 0.04

Courant Number mean: 0.189023 max: 0.875804
DILUPBiCGStab:  Solving for Ux, Initial residual = 2.31301e-05, Final residual = 9.0275e-10, No Iterations 5
DILUPBiCGStab:  Solving for Uy, Initial residual = 3.58928e-05, Final residual = 1.38204e-09, No Iterations 5
DILUPBiCGStab:  Solving for Uz, Initial residual = 0.00023287, Final residual = 8.33866e-09, No Iterations 5
linear solve U 9497
DICPBiCGStab:  Solving for p, Initial residual = 0.000222218, Final residual = 7.31309e-07, No Iterations 16
linear solve p 8598
time step continuity errors : sum local = 3.63716e-09, global = -1.9927e-20, cumulative = -2.33017e-21
DICPBiCGStab:  Solving for p, Initial residual = 0.000160648, Final residual = 5.48576e-07, No Iterations 18
linear solve p 9219
time step continuity errors : sum local = 2.54926e-09, global = 1.60452e-20, cumulative = 1.3715e-20
ExecutionTime = 0.53 s  ClockTime = 0 s

End

