/*---------------------------------------------------------------------------*\
  =========                 |
  \\      /  F ield         | OpenFOAM: The Open Source CFD Toolbox
   \\    /   O peration     | Website:  https://openfoam.org
    \\  /    A nd           | Version:  8
     \\/     M anipulation  |
\*---------------------------------------------------------------------------*/
Build  : 8-ef60d22ea792
Exec   : icoFoam
Date   : Sep 11 2021
Time   : 13:48:38
Host   : "uc2n513.localdomain"
PID    : 217273
I/O    : uncollated
Case   : /pfs/data5/home/kit/scc/nq7776/data/code/OBR/lidDrivenCavity3D/Variation_init/100/Variation_mesh/75/Variation_matrix_solver/IR_NoPrecond_CUDA/1631360902
nProcs : 1
sigFpe : Enabling floating point exception trapping (FOAM_SIGFPE).
fileModificationChecking : Monitoring run-time modified files using timeStampMaster (fileModificationSkew 10)
allowSystemOperations : Allowing user-supplied system call operations

// * * * * * * * * * * * * * * * * * * * * * * * * * * * * * * * * * * * * * //
Create time

Create mesh for time = 0

Reading transportProperties

Reading field p

Reading field U

Reading/calculating face flux field phi


Starting time loop

Time = 0.00133333

Courant Number mean: 0.191396 max: 0.960629
DILUPBiCGStab:  Solving for Ux, Initial residual = 0.15118, Final residual = 1.71065e-05, No Iterations 5
DILUPBiCGStab:  Solving for Uy, Initial residual = 0.286633, Final residual = 4.01866e-05, No Iterations 5
DILUPBiCGStab:  Solving for Uz, Initial residual = 0.411091, Final residual = 0.000172886, No Iterations 5
linear solve U 432795
[OGL LOG] init_host_sparsity_pattern : 119 ms
[OGL LOG] matrix not stored update host matrix
[OGL LOG] update_host_mtx : 62 ms
[OGL LOG] matrix is not yet sorted, compute sorting idxs
[OGL LOG] compute_sort : 3654 ms
[OGL LOG] matrix is not yet sorted, sorting host matrix
[OGL LOG] sort_host_mtx_sparsity_pattern : 80 ms
[OGL LOG] sort_host_mtx : 49 ms
[OGL LOG] init_preconditioner : 0 ms
[OGL LOG] solve : 224 ms
nonecudaGKOIR:  Solving for p, Initial residual = 0.61762, Final residual = 3.47665e-08, No Iterations 4
linear solve p 4960808
time step continuity errors : sum local = 4.19282e-11, global = -1.37399e-20, cumulative = -1.37399e-20
[OGL LOG] init_preconditioner : 0 ms
[OGL LOG] solve : 312 ms
nonecudaGKOIR:  Solving for p, Initial residual = 0.268994, Final residual = 1.4016e-08, No Iterations 4
linear solve p 325460
time step continuity errors : sum local = 9.60757e-12, global = 1.41356e-20, cumulative = 3.95681e-22
ExecutionTime = 7.83 s  ClockTime = 8 s

Time = 0.00266667

Courant Number mean: 0.191562 max: 0.958264
DILUPBiCGStab:  Solving for Ux, Initial residual = 0.00536981, Final residual = 2.79408e-05, No Iterations 5
DILUPBiCGStab:  Solving for Uy, Initial residual = 0.0116942, Final residual = 5.45217e-05, No Iterations 5
DILUPBiCGStab:  Solving for Uz, Initial residual = 0.0561703, Final residual = 0.000161315, No Iterations 5
linear solve U 395237
[OGL LOG] init_preconditioner : 0 ms
[OGL LOG] solve : 209 ms
nonecudaGKOIR:  Solving for p, Initial residual = 0.291197, Final residual = 7.6054e-07, No Iterations 3
linear solve p 223826
time step continuity errors : sum local = 1.65947e-07, global = -1.40153e-20, cumulative = -1.36196e-20
[OGL LOG] init_preconditioner : 0 ms
[OGL LOG] solve : 196 ms
nonecudaGKOIR:  Solving for p, Initial residual = 0.210423, Final residual = 5.32716e-07, No Iterations 3
linear solve p 209479
time step continuity errors : sum local = 1.586e-07, global = 2.59053e-20, cumulative = 1.22857e-20
ExecutionTime = 8.91 s  ClockTime = 9 s

Time = 0.004

Courant Number mean: 0.191591 max: 0.95876
DILUPBiCGStab:  Solving for Ux, Initial residual = 0.00111729, Final residual = 6.77336e-06, No Iterations 5
DILUPBiCGStab:  Solving for Uy, Initial residual = 0.00329104, Final residual = 1.48443e-05, No Iterations 5
DILUPBiCGStab:  Solving for Uz, Initial residual = 0.0228458, Final residual = 0.000101589, No Iterations 5
linear solve U 396820
[OGL LOG] init_preconditioner : 0 ms
[OGL LOG] solve : 205 ms
nonecudaGKOIR:  Solving for p, Initial residual = 0.173958, Final residual = 3.93714e-07, No Iterations 3
linear solve p 218413
time step continuity errors : sum local = 1.58679e-07, global = -1.21108e-20, cumulative = 1.74892e-22
[OGL LOG] init_preconditioner : 0 ms
[OGL LOG] solve : 204 ms
nonecudaGKOIR:  Solving for p, Initial residual = 0.133646, Final residual = 2.64945e-07, No Iterations 3
linear solve p 217484
time step continuity errors : sum local = 1.58043e-07, global = -4.81959e-20, cumulative = -4.8021e-20
ExecutionTime = 9.99 s  ClockTime = 10 s

Time = 0.00533333

Courant Number mean: 0.19157 max: 0.958639
DILUPBiCGStab:  Solving for Ux, Initial residual = 0.00064106, Final residual = 2.64357e-06, No Iterations 5
DILUPBiCGStab:  Solving for Uy, Initial residual = 0.00199419, Final residual = 7.45077e-06, No Iterations 5
DILUPBiCGStab:  Solving for Uz, Initial residual = 0.0110212, Final residual = 5.53526e-05, No Iterations 5
linear solve U 395756
[OGL LOG] init_preconditioner : 0 ms
[OGL LOG] solve : 199 ms
nonecudaGKOIR:  Solving for p, Initial residual = 0.124262, Final residual = 2.47781e-07, No Iterations 3
linear solve p 212169
time step continuity errors : sum local = 1.58592e-07, global = 2.19523e-20, cumulative = -2.60687e-20
[OGL LOG] init_preconditioner : 0 ms
[OGL LOG] solve : 204 ms
nonecudaGKOIR:  Solving for p, Initial residual = 0.0986919, Final residual = 1.88452e-07, No Iterations 3
linear solve p 217628
time step continuity errors : sum local = 1.58059e-07, global = -1.3334e-20, cumulative = -3.94027e-20
ExecutionTime = 11.05 s  ClockTime = 11 s

Time = 0.00666667

Courant Number mean: 0.191555 max: 0.958628
DILUPBiCGStab:  Solving for Ux, Initial residual = 0.000431818, Final residual = 1.70351e-06, No Iterations 5
DILUPBiCGStab:  Solving for Uy, Initial residual = 0.00139008, Final residual = 3.97819e-06, No Iterations 5
DILUPBiCGStab:  Solving for Uz, Initial residual = 0.00712459, Final residual = 2.91657e-05, No Iterations 5
linear solve U 397085
[OGL LOG] init_preconditioner : 0 ms
[OGL LOG] solve : 187 ms
nonecudaGKOIR:  Solving for p, Initial residual = 0.0914488, Final residual = 1.88223e-07, No Iterations 3
linear solve p 200582
time step continuity errors : sum local = 1.584e-07, global = 2.32598e-20, cumulative = -1.6143e-20
[OGL LOG] init_preconditioner : 0 ms
[OGL LOG] solve : 182 ms
nonecudaGKOIR:  Solving for p, Initial residual = 0.0726965, Final residual = 1.41943e-07, No Iterations 3
linear solve p 194871
time step continuity errors : sum local = 1.58106e-07, global = 2.93292e-20, cumulative = 1.31863e-20
ExecutionTime = 12.08 s  ClockTime = 12 s

Time = 0.008

Courant Number mean: 0.191545 max: 0.958667
DILUPBiCGStab:  Solving for Ux, Initial residual = 0.000309342, Final residual = 1.1656e-06, No Iterations 5
DILUPBiCGStab:  Solving for Uy, Initial residual = 0.00102741, Final residual = 2.9239e-06, No Iterations 5
DILUPBiCGStab:  Solving for Uz, Initial residual = 0.0047193, Final residual = 2.04198e-05, No Iterations 5
linear solve U 394866
[OGL LOG] init_preconditioner : 0 ms
[OGL LOG] solve : 181 ms
nonecudaGKOIR:  Solving for p, Initial residual = 0.0703155, Final residual = 1.37348e-07, No Iterations 3
linear solve p 195287
time step continuity errors : sum local = 1.5807e-07, global = 6.57264e-23, cumulative = 1.3252e-20
[OGL LOG] init_preconditioner : 0 ms
[OGL LOG] solve : 183 ms
nonecudaGKOIR:  Solving for p, Initial residual = 0.0564611, Final residual = 9.92761e-08, No Iterations 3
linear solve p 196425
time step continuity errors : sum local = 1.58033e-07, global = 3.77636e-20, cumulative = 5.10156e-20
ExecutionTime = 13.11 s  ClockTime = 13 s

Time = 0.00933333

Courant Number mean: 0.191534 max: 0.958627
DILUPBiCGStab:  Solving for Ux, Initial residual = 0.00023043, Final residual = 8.65775e-07, No Iterations 5
DILUPBiCGStab:  Solving for Uy, Initial residual = 0.000779251, Final residual = 1.94862e-06, No Iterations 5
DILUPBiCGStab:  Solving for Uz, Initial residual = 0.0033241, Final residual = 1.31491e-05, No Iterations 5
linear solve U 394560
[OGL LOG] init_preconditioner : 0 ms
[OGL LOG] solve : 183 ms
nonecudaGKOIR:  Solving for p, Initial residual = 0.0544287, Final residual = 1.02781e-07, No Iterations 3
linear solve p 195603
time step continuity errors : sum local = 1.58273e-07, global = -3.12665e-20, cumulative = 1.97492e-20
[OGL LOG] init_preconditioner : 0 ms
[OGL LOG] solve : 184 ms
nonecudaGKOIR:  Solving for p, Initial residual = 0.0437516, Final residual = 7.50782e-08, No Iterations 3
linear solve p 196866
time step continuity errors : sum local = 1.58094e-07, global = -4.39825e-20, cumulative = -2.42333e-20
ExecutionTime = 14.13 s  ClockTime = 14 s

Time = 0.0106667

Courant Number mean: 0.191529 max: 0.958654
DILUPBiCGStab:  Solving for Ux, Initial residual = 0.000175078, Final residual = 6.50179e-07, No Iterations 5
DILUPBiCGStab:  Solving for Uy, Initial residual = 0.000604415, Final residual = 1.65325e-06, No Iterations 5
DILUPBiCGStab:  Solving for Uz, Initial residual = 0.00236707, Final residual = 9.60932e-06, No Iterations 5
linear solve U 395933
[OGL LOG] init_preconditioner : 0 ms
[OGL LOG] solve : 183 ms
nonecudaGKOIR:  Solving for p, Initial residual = 0.0429326, Final residual = 7.44907e-08, No Iterations 3
linear solve p 195887
time step continuity errors : sum local = 1.57986e-07, global = 1.4653e-20, cumulative = -9.58036e-21
[OGL LOG] init_preconditioner : 0 ms
[OGL LOG] solve : 184 ms
nonecudaGKOIR:  Solving for p, Initial residual = 0.0346715, Final residual = 5.84477e-08, No Iterations 3
linear solve p 197496
time step continuity errors : sum local = 1.58039e-07, global = 1.62495e-20, cumulative = 6.66912e-21
ExecutionTime = 15.18 s  ClockTime = 15 s

Time = 0.012

Courant Number mean: 0.191524 max: 0.958631
DILUPBiCGStab:  Solving for Ux, Initial residual = 0.000135647, Final residual = 4.72658e-07, No Iterations 5
DILUPBiCGStab:  Solving for Uy, Initial residual = 0.000471852, Final residual = 1.20265e-06, No Iterations 5
DILUPBiCGStab:  Solving for Uz, Initial residual = 0.00173448, Final residual = 6.94416e-06, No Iterations 5
linear solve U 394431
[OGL LOG] init_preconditioner : 0 ms
[OGL LOG] solve : 190 ms
nonecudaGKOIR:  Solving for p, Initial residual = 0.0339618, Final residual = 5.44041e-08, No Iterations 3
linear solve p 203478
time step continuity errors : sum local = 1.58201e-07, global = 3.11855e-20, cumulative = 3.78546e-20
[OGL LOG] init_preconditioner : 0 ms
[OGL LOG] solve : 184 ms
nonecudaGKOIR:  Solving for p, Initial residual = 0.0274646, Final residual = 4.42704e-08, No Iterations 3
linear solve p 196930
time step continuity errors : sum local = 1.58081e-07, global = -1.11839e-20, cumulative = 2.66707e-20
ExecutionTime = 16.21 s  ClockTime = 16 s

Time = 0.0133333

Courant Number mean: 0.191521 max: 0.958646
DILUPBiCGStab:  Solving for Ux, Initial residual = 0.000105856, Final residual = 3.59751e-07, No Iterations 5
DILUPBiCGStab:  Solving for Uy, Initial residual = 0.000373707, Final residual = 1.02371e-06, No Iterations 5
DILUPBiCGStab:  Solving for Uz, Initial residual = 0.00127803, Final residual = 5.0237e-06, No Iterations 5
linear solve U 391386
[OGL LOG] init_preconditioner : 0 ms
[OGL LOG] solve : 174 ms
nonecudaGKOIR:  Solving for p, Initial residual = 0.0271169, Final residual = 4.13635e-08, No Iterations 3
linear solve p 186691
time step continuity errors : sum local = 1.57986e-07, global = 4.50507e-20, cumulative = 7.17214e-20
[OGL LOG] init_preconditioner : 0 ms
[OGL LOG] solve : 173 ms
nonecudaGKOIR:  Solving for p, Initial residual = 0.0219857, Final residual = 3.44296e-08, No Iterations 3
linear solve p 186713
time step continuity errors : sum local = 1.58046e-07, global = -1.27466e-20, cumulative = 5.89748e-20
ExecutionTime = 17.21 s  ClockTime = 17 s

End

