/*---------------------------------------------------------------------------*\
  =========                 |
  \\      /  F ield         | OpenFOAM: The Open Source CFD Toolbox
   \\    /   O peration     | Website:  https://openfoam.org
    \\  /    A nd           | Version:  8
     \\/     M anipulation  |
\*---------------------------------------------------------------------------*/
Build  : 8-ef60d22ea792
Exec   : icoFoam
Date   : Sep 11 2021
Time   : 13:54:52
Host   : "uc2n442.localdomain"
PID    : 3718695
I/O    : uncollated
Case   : /pfs/data5/home/kit/scc/nq7776/data/code/OBR/lidDrivenCavity3D/Variation_init/100/Variation_mesh/25/Variation_matrix_solver/BiCGStab_NoPrecond_Serial/1631361291
nProcs : 1
sigFpe : Enabling floating point exception trapping (FOAM_SIGFPE).
fileModificationChecking : Monitoring run-time modified files using timeStampMaster (fileModificationSkew 10)
allowSystemOperations : Allowing user-supplied system call operations

// * * * * * * * * * * * * * * * * * * * * * * * * * * * * * * * * * * * * * //
Create time

Create mesh for time = 0

Reading transportProperties

Reading field p

Reading field U

Reading/calculating face flux field phi


Starting time loop

Time = 0.004

Courant Number mean: 0.190206 max: 0.902763
DILUPBiCGStab:  Solving for Ux, Initial residual = 0.141566, Final residual = 7.19632e-07, No Iterations 5
DILUPBiCGStab:  Solving for Uy, Initial residual = 0.199843, Final residual = 1.48111e-06, No Iterations 5
DILUPBiCGStab:  Solving for Uz, Initial residual = 0.419047, Final residual = 6.53558e-06, No Iterations 5
linear solve U 11378
nonePBiCGStab:  Solving for p, Initial residual = 0.573274, Final residual = 9.99934e-07, No Iterations 175
linear solve p 50155
time step continuity errors : sum local = 1.4221e-08, global = 4.73442e-20, cumulative = 4.73442e-20
nonePBiCGStab:  Solving for p, Initial residual = 0.280701, Final residual = 8.27508e-07, No Iterations 177
linear solve p 50825
time step continuity errors : sum local = 7.33924e-09, global = 1.04182e-19, cumulative = 1.51526e-19
ExecutionTime = 0.22 s  ClockTime = 0 s

Time = 0.008

Courant Number mean: 0.189744 max: 0.879561
DILUPBiCGStab:  Solving for Ux, Initial residual = 0.0127398, Final residual = 6.90125e-07, No Iterations 5
DILUPBiCGStab:  Solving for Uy, Initial residual = 0.0199777, Final residual = 1.27361e-06, No Iterations 5
DILUPBiCGStab:  Solving for Uz, Initial residual = 0.0739772, Final residual = 3.73035e-06, No Iterations 5
linear solve U 10054
nonePBiCGStab:  Solving for p, Initial residual = 0.180353, Final residual = 7.48488e-07, No Iterations 175
linear solve p 50342
time step continuity errors : sum local = 6.44442e-09, global = 9.45259e-20, cumulative = 2.46052e-19
nonePBiCGStab:  Solving for p, Initial residual = 0.106385, Final residual = 7.41068e-07, No Iterations 172
linear solve p 49212
time step continuity errors : sum local = 6.32662e-09, global = 1.91388e-19, cumulative = 4.3744e-19
ExecutionTime = 0.33 s  ClockTime = 0 s

Time = 0.012

Courant Number mean: 0.189395 max: 0.876756
DILUPBiCGStab:  Solving for Ux, Initial residual = 0.00162333, Final residual = 1.27751e-07, No Iterations 5
DILUPBiCGStab:  Solving for Uy, Initial residual = 0.00313172, Final residual = 2.4931e-07, No Iterations 5
DILUPBiCGStab:  Solving for Uz, Initial residual = 0.0223494, Final residual = 9.99562e-07, No Iterations 5
linear solve U 9941
nonePBiCGStab:  Solving for p, Initial residual = 0.0483569, Final residual = 5.52277e-07, No Iterations 154
linear solve p 43932
time step continuity errors : sum local = 4.56791e-09, global = 2.19186e-20, cumulative = 4.59359e-19
nonePBiCGStab:  Solving for p, Initial residual = 0.0318412, Final residual = 6.32083e-07, No Iterations 154
linear solve p 43874
time step continuity errors : sum local = 5.23232e-09, global = 2.39823e-19, cumulative = 6.99181e-19
ExecutionTime = 0.44 s  ClockTime = 0 s

Time = 0.016

Courant Number mean: 0.189204 max: 0.876129
DILUPBiCGStab:  Solving for Ux, Initial residual = 0.000630158, Final residual = 5.04713e-08, No Iterations 5
DILUPBiCGStab:  Solving for Uy, Initial residual = 0.00083777, Final residual = 5.12641e-08, No Iterations 5
DILUPBiCGStab:  Solving for Uz, Initial residual = 0.00466234, Final residual = 2.09627e-07, No Iterations 5
linear solve U 9754
nonePBiCGStab:  Solving for p, Initial residual = 0.0180299, Final residual = 7.4939e-07, No Iterations 135
linear solve p 38760
time step continuity errors : sum local = 6.1378e-09, global = 1.46192e-19, cumulative = 8.45373e-19
nonePBiCGStab:  Solving for p, Initial residual = 0.0122895, Final residual = 9.81192e-07, No Iterations 64
linear solve p 18468
time step continuity errors : sum local = 7.08705e-09, global = 5.58904e-20, cumulative = 9.01264e-19
ExecutionTime = 0.51 s  ClockTime = 0 s

Time = 0.02

Courant Number mean: 0.189124 max: 0.875978
DILUPBiCGStab:  Solving for Ux, Initial residual = 0.000280659, Final residual = 1.95561e-08, No Iterations 5
DILUPBiCGStab:  Solving for Uy, Initial residual = 0.000379584, Final residual = 2.30817e-08, No Iterations 5
DILUPBiCGStab:  Solving for Uz, Initial residual = 0.00233034, Final residual = 1.15177e-07, No Iterations 5
linear solve U 9824
nonePBiCGStab:  Solving for p, Initial residual = 0.00784677, Final residual = 9.91634e-07, No Iterations 134
linear solve p 38157
time step continuity errors : sum local = 8.11742e-09, global = -4.34023e-20, cumulative = 8.57861e-19
nonePBiCGStab:  Solving for p, Initial residual = 0.00548251, Final residual = 9.74527e-07, No Iterations 66
linear solve p 18942
time step continuity errors : sum local = 6.44067e-09, global = -4.58212e-20, cumulative = 8.1204e-19
ExecutionTime = 0.58 s  ClockTime = 0 s

Time = 0.024

Courant Number mean: 0.189076 max: 0.875913
DILUPBiCGStab:  Solving for Ux, Initial residual = 0.000155885, Final residual = 9.98993e-09, No Iterations 5
DILUPBiCGStab:  Solving for Uy, Initial residual = 0.00019183, Final residual = 1.23122e-08, No Iterations 5
DILUPBiCGStab:  Solving for Uz, Initial residual = 0.00113647, Final residual = 6.65295e-08, No Iterations 5
linear solve U 10021
nonePBiCGStab:  Solving for p, Initial residual = 0.00362603, Final residual = 8.62178e-07, No Iterations 116
linear solve p 33447
time step continuity errors : sum local = 7.05343e-09, global = -2.4215e-19, cumulative = 5.6989e-19
nonePBiCGStab:  Solving for p, Initial residual = 0.00256112, Final residual = 8.34198e-07, No Iterations 57
linear solve p 16912
time step continuity errors : sum local = 6.02078e-09, global = -3.31305e-20, cumulative = 5.3676e-19
ExecutionTime = 0.65 s  ClockTime = 0 s

Time = 0.028

Courant Number mean: 0.189051 max: 0.875863
DILUPBiCGStab:  Solving for Ux, Initial residual = 8.69845e-05, Final residual = 5.12725e-09, No Iterations 5
DILUPBiCGStab:  Solving for Uy, Initial residual = 0.000124087, Final residual = 6.73025e-09, No Iterations 5
DILUPBiCGStab:  Solving for Uz, Initial residual = 0.000764769, Final residual = 3.80383e-08, No Iterations 5
linear solve U 10386
nonePBiCGStab:  Solving for p, Initial residual = 0.00173014, Final residual = 9.35428e-07, No Iterations 115
linear solve p 34195
time step continuity errors : sum local = 7.65424e-09, global = 5.28819e-20, cumulative = 5.89642e-19
nonePBiCGStab:  Solving for p, Initial residual = 0.00123383, Final residual = 9.9693e-07, No Iterations 51
linear solve p 14772
time step continuity errors : sum local = 6.32873e-09, global = 1.53033e-19, cumulative = 7.42674e-19
ExecutionTime = 0.72 s  ClockTime = 1 s

Time = 0.032

Courant Number mean: 0.189036 max: 0.875835
DILUPBiCGStab:  Solving for Ux, Initial residual = 5.52277e-05, Final residual = 2.55502e-09, No Iterations 5
DILUPBiCGStab:  Solving for Uy, Initial residual = 7.75987e-05, Final residual = 4.53838e-09, No Iterations 5
DILUPBiCGStab:  Solving for Uz, Initial residual = 0.000489226, Final residual = 2.96014e-08, No Iterations 5
linear solve U 9675
nonePBiCGStab:  Solving for p, Initial residual = 0.000870731, Final residual = 7.63109e-07, No Iterations 110
linear solve p 31878
time step continuity errors : sum local = 6.23724e-09, global = -3.09229e-20, cumulative = 7.11751e-19
nonePBiCGStab:  Solving for p, Initial residual = 0.000624919, Final residual = 9.09807e-07, No Iterations 52
linear solve p 15011
time step continuity errors : sum local = 6.66082e-09, global = -1.00123e-19, cumulative = 6.11629e-19
ExecutionTime = 0.78 s  ClockTime = 1 s

Time = 0.036

Courant Number mean: 0.189028 max: 0.875816
DILUPBiCGStab:  Solving for Ux, Initial residual = 3.39363e-05, Final residual = 1.77537e-09, No Iterations 5
DILUPBiCGStab:  Solving for Uy, Initial residual = 5.57712e-05, Final residual = 1.79683e-09, No Iterations 5
DILUPBiCGStab:  Solving for Uz, Initial residual = 0.000403597, Final residual = 2.3773e-08, No Iterations 5
linear solve U 9791
nonePBiCGStab:  Solving for p, Initial residual = 0.000437616, Final residual = 7.59045e-07, No Iterations 111
linear solve p 32279
time step continuity errors : sum local = 6.16505e-09, global = -1.66226e-19, cumulative = 4.45403e-19
nonePBiCGStab:  Solving for p, Initial residual = 0.000315683, Final residual = 9.39514e-07, No Iterations 56
linear solve p 16121
time step continuity errors : sum local = 7.28001e-09, global = -1.63889e-20, cumulative = 4.29015e-19
ExecutionTime = 0.84 s  ClockTime = 1 s

Time = 0.04

Courant Number mean: 0.189023 max: 0.875804
DILUPBiCGStab:  Solving for Ux, Initial residual = 2.40563e-05, Final residual = 1.32539e-09, No Iterations 5
DILUPBiCGStab:  Solving for Uy, Initial residual = 3.71749e-05, Final residual = 1.65955e-09, No Iterations 5
DILUPBiCGStab:  Solving for Uz, Initial residual = 0.000271964, Final residual = 2.38975e-08, No Iterations 5
linear solve U 9873
nonePBiCGStab:  Solving for p, Initial residual = 0.000242549, Final residual = 9.20232e-07, No Iterations 109
linear solve p 31128
time step continuity errors : sum local = 6.93984e-09, global = -4.59255e-20, cumulative = 3.83089e-19
nonePBiCGStab:  Solving for p, Initial residual = 0.000179002, Final residual = 9.09554e-07, No Iterations 51
linear solve p 14854
time step continuity errors : sum local = 7.25862e-09, global = 1.95235e-19, cumulative = 5.78324e-19
ExecutionTime = 0.9 s  ClockTime = 1 s

End

