/*---------------------------------------------------------------------------*\
  =========                 |
  \\      /  F ield         | OpenFOAM: The Open Source CFD Toolbox
   \\    /   O peration     | Website:  https://openfoam.org
    \\  /    A nd           | Version:  8
     \\/     M anipulation  |
\*---------------------------------------------------------------------------*/
Build  : 8-ef60d22ea792
Exec   : icoFoam
Date   : Sep 11 2021
Time   : 14:19:22
Host   : "uc2n442.localdomain"
PID    : 3721130
I/O    : uncollated
Case   : /pfs/data5/home/kit/scc/nq7776/data/code/OBR/lidDrivenCavity3D/Variation_init/100/Variation_mesh/100/Variation_matrix_solver/CG_DIC_Serial/1631362726
nProcs : 1
sigFpe : Enabling floating point exception trapping (FOAM_SIGFPE).
fileModificationChecking : Monitoring run-time modified files using timeStampMaster (fileModificationSkew 10)
allowSystemOperations : Allowing user-supplied system call operations

// * * * * * * * * * * * * * * * * * * * * * * * * * * * * * * * * * * * * * //
Create time

Create mesh for time = 0

Reading transportProperties

Reading field p

Reading field U

Reading/calculating face flux field phi


Starting time loop

Time = 0.001

Courant Number mean: 0.191555 max: 0.96896
DILUPBiCGStab:  Solving for Ux, Initial residual = 9.6672e-05, Final residual = 1.54351e-06, No Iterations 5
DILUPBiCGStab:  Solving for Uy, Initial residual = 0.00025914, Final residual = 4.93349e-06, No Iterations 5
DILUPBiCGStab:  Solving for Uz, Initial residual = 0.00322927, Final residual = 7.02504e-05, No Iterations 5
linear solve U 1039903
DICPCG:  Solving for p, Initial residual = 0.00938001, Final residual = 8.48422e-07, No Iterations 249
linear solve p 5963887
time step continuity errors : sum local = 2.42885e-10, global = 1.66578e-20, cumulative = 1.66578e-20
DICPCG:  Solving for p, Initial residual = 0.00639439, Final residual = 8.80933e-07, No Iterations 248
linear solve p 5996160
time step continuity errors : sum local = 2.52558e-10, global = -1.61469e-20, cumulative = 5.1091e-22
ExecutionTime = 17.84 s  ClockTime = 18 s

Time = 0.002

Courant Number mean: 0.19156 max: 0.968963
DILUPBiCGStab:  Solving for Ux, Initial residual = 7.88243e-05, Final residual = 1.34829e-06, No Iterations 5
DILUPBiCGStab:  Solving for Uy, Initial residual = 0.000200971, Final residual = 4.04393e-06, No Iterations 5
DILUPBiCGStab:  Solving for Uz, Initial residual = 0.00221731, Final residual = 3.67568e-05, No Iterations 5
linear solve U 967018
DICPCG:  Solving for p, Initial residual = 0.00880483, Final residual = 9.10341e-07, No Iterations 248
linear solve p 5993602
time step continuity errors : sum local = 2.59827e-10, global = 7.95038e-21, cumulative = 8.46129e-21
DICPCG:  Solving for p, Initial residual = 0.00570392, Final residual = 9.61884e-07, No Iterations 247
linear solve p 5977105
time step continuity errors : sum local = 2.74162e-10, global = 4.46e-21, cumulative = 1.29213e-20
ExecutionTime = 31.3 s  ClockTime = 32 s

Time = 0.003

Courant Number mean: 0.191566 max: 0.968959
DILUPBiCGStab:  Solving for Ux, Initial residual = 4.0033e-05, Final residual = 9.59204e-07, No Iterations 5
DILUPBiCGStab:  Solving for Uy, Initial residual = 0.000124387, Final residual = 3.06447e-06, No Iterations 5
DILUPBiCGStab:  Solving for Uz, Initial residual = 0.00149706, Final residual = 2.21836e-05, No Iterations 5
linear solve U 957863
DICPCG:  Solving for p, Initial residual = 0.00520051, Final residual = 9.54886e-07, No Iterations 246
linear solve p 5931156
time step continuity errors : sum local = 2.72505e-10, global = 2.27664e-20, cumulative = 3.56877e-20
DICPCG:  Solving for p, Initial residual = 0.00440193, Final residual = 9.71732e-07, No Iterations 245
linear solve p 5887064
time step continuity errors : sum local = 2.77459e-10, global = -1.15562e-20, cumulative = 2.41315e-20
ExecutionTime = 44.58 s  ClockTime = 45 s

Time = 0.004

Courant Number mean: 0.191573 max: 0.968961
DILUPBiCGStab:  Solving for Ux, Initial residual = 2.95783e-05, Final residual = 7.82787e-07, No Iterations 5
DILUPBiCGStab:  Solving for Uy, Initial residual = 9.28523e-05, Final residual = 2.49058e-06, No Iterations 5
DILUPBiCGStab:  Solving for Uz, Initial residual = 0.00110241, Final residual = 1.4737e-05, No Iterations 5
linear solve U 963141
DICPCG:  Solving for p, Initial residual = 0.00420628, Final residual = 9.2816e-07, No Iterations 244
linear solve p 5905238
time step continuity errors : sum local = 2.64783e-10, global = -7.47282e-21, cumulative = 1.66587e-20
DICPCG:  Solving for p, Initial residual = 0.0036713, Final residual = 9.62717e-07, No Iterations 243
linear solve p 5865558
time step continuity errors : sum local = 2.74647e-10, global = 1.43069e-20, cumulative = 3.09656e-20
ExecutionTime = 57.83 s  ClockTime = 58 s

Time = 0.005

Courant Number mean: 0.191579 max: 0.968962
DILUPBiCGStab:  Solving for Ux, Initial residual = 2.42717e-05, Final residual = 6.80075e-07, No Iterations 5
DILUPBiCGStab:  Solving for Uy, Initial residual = 7.61252e-05, Final residual = 2.13454e-06, No Iterations 5
DILUPBiCGStab:  Solving for Uz, Initial residual = 0.00086073, Final residual = 1.1126e-05, No Iterations 5
linear solve U 967011
DICPCG:  Solving for p, Initial residual = 0.00355594, Final residual = 9.28738e-07, No Iterations 242
linear solve p 5855374
time step continuity errors : sum local = 2.64912e-10, global = -4.50186e-21, cumulative = 2.64637e-20
DICPCG:  Solving for p, Initial residual = 0.00311547, Final residual = 8.45859e-07, No Iterations 242
linear solve p 5835467
time step continuity errors : sum local = 2.41295e-10, global = -1.0324e-21, cumulative = 2.54313e-20
ExecutionTime = 71.01 s  ClockTime = 71 s

Time = 0.006

Courant Number mean: 0.191586 max: 0.968962
DILUPBiCGStab:  Solving for Ux, Initial residual = 2.04138e-05, Final residual = 5.93745e-07, No Iterations 5
DILUPBiCGStab:  Solving for Uy, Initial residual = 6.43036e-05, Final residual = 1.87409e-06, No Iterations 5
DILUPBiCGStab:  Solving for Uz, Initial residual = 0.000696929, Final residual = 8.74726e-06, No Iterations 5
linear solve U 957996
DICPCG:  Solving for p, Initial residual = 0.00303828, Final residual = 9.50768e-07, No Iterations 225
linear solve p 5438142
time step continuity errors : sum local = 2.71136e-10, global = -6.6145e-21, cumulative = 1.88168e-20
DICPCG:  Solving for p, Initial residual = 0.00266087, Final residual = 9.24355e-07, No Iterations 225
linear solve p 5410701
time step continuity errors : sum local = 2.63619e-10, global = -4.74302e-21, cumulative = 1.40738e-20
ExecutionTime = 83.34 s  ClockTime = 84 s

Time = 0.007

Courant Number mean: 0.191591 max: 0.968963
DILUPBiCGStab:  Solving for Ux, Initial residual = 1.7588e-05, Final residual = 5.19609e-07, No Iterations 5
DILUPBiCGStab:  Solving for Uy, Initial residual = 5.52452e-05, Final residual = 1.63439e-06, No Iterations 5
DILUPBiCGStab:  Solving for Uz, Initial residual = 0.000572058, Final residual = 7.27196e-06, No Iterations 5
linear solve U 963628
DICPCG:  Solving for p, Initial residual = 0.00260831, Final residual = 9.16129e-07, No Iterations 225
linear solve p 5440109
time step continuity errors : sum local = 2.61213e-10, global = -1.87772e-20, cumulative = -4.70342e-21
DICPCG:  Solving for p, Initial residual = 0.00228107, Final residual = 8.71069e-07, No Iterations 225
linear solve p 5414218
time step continuity errors : sum local = 2.48373e-10, global = 9.44463e-21, cumulative = 4.74121e-21
ExecutionTime = 95.67 s  ClockTime = 96 s

Time = 0.008

Courant Number mean: 0.191597 max: 0.968964
DILUPBiCGStab:  Solving for Ux, Initial residual = 1.53215e-05, Final residual = 4.51319e-07, No Iterations 5
DILUPBiCGStab:  Solving for Uy, Initial residual = 4.77149e-05, Final residual = 1.41976e-06, No Iterations 5
DILUPBiCGStab:  Solving for Uz, Initial residual = 0.00047642, Final residual = 6.08969e-06, No Iterations 5
linear solve U 958821
DICPCG:  Solving for p, Initial residual = 0.00224816, Final residual = 9.35356e-07, No Iterations 219
linear solve p 5296063
time step continuity errors : sum local = 2.66658e-10, global = 1.59174e-20, cumulative = 2.06586e-20
DICPCG:  Solving for p, Initial residual = 0.00196218, Final residual = 8.79163e-07, No Iterations 219
linear solve p 5271273
time step continuity errors : sum local = 2.50648e-10, global = 4.01245e-21, cumulative = 2.46711e-20
ExecutionTime = 107.71 s  ClockTime = 108 s

Time = 0.009

Courant Number mean: 0.191602 max: 0.968965
DILUPBiCGStab:  Solving for Ux, Initial residual = 1.32711e-05, Final residual = 3.84203e-07, No Iterations 5
DILUPBiCGStab:  Solving for Uy, Initial residual = 4.24502e-05, Final residual = 1.23359e-06, No Iterations 5
DILUPBiCGStab:  Solving for Uz, Initial residual = 0.000393436, Final residual = 4.87898e-06, No Iterations 5
linear solve U 956582
DICPCG:  Solving for p, Initial residual = 0.00194095, Final residual = 9.77442e-07, No Iterations 222
linear solve p 5356836
time step continuity errors : sum local = 2.78622e-10, global = 1.84177e-20, cumulative = 4.30888e-20
DICPCG:  Solving for p, Initial residual = 0.00169097, Final residual = 9.15345e-07, No Iterations 222
linear solve p 5338581
time step continuity errors : sum local = 2.60925e-10, global = -2.64574e-21, cumulative = 4.04431e-20
ExecutionTime = 119.9 s  ClockTime = 120 s

Time = 0.01

Courant Number mean: 0.191607 max: 0.968965
DILUPBiCGStab:  Solving for Ux, Initial residual = 1.1796e-05, Final residual = 3.2666e-07, No Iterations 5
DILUPBiCGStab:  Solving for Uy, Initial residual = 3.72912e-05, Final residual = 1.04691e-06, No Iterations 5
DILUPBiCGStab:  Solving for Uz, Initial residual = 0.000333996, Final residual = 4.43816e-06, No Iterations 5
linear solve U 963920
DICPCG:  Solving for p, Initial residual = 0.00168034, Final residual = 9.73049e-07, No Iterations 220
linear solve p 5315645
time step continuity errors : sum local = 2.77351e-10, global = 9.43161e-21, cumulative = 4.98747e-20
DICPCG:  Solving for p, Initial residual = 0.00146149, Final residual = 9.34274e-07, No Iterations 220
linear solve p 5295333
time step continuity errors : sum local = 2.66308e-10, global = 5.78646e-21, cumulative = 5.56611e-20
ExecutionTime = 131.99 s  ClockTime = 133 s

End

