/*---------------------------------------------------------------------------*\
  =========                 |
  \\      /  F ield         | OpenFOAM: The Open Source CFD Toolbox
   \\    /   O peration     | Website:  https://openfoam.org
    \\  /    A nd           | Version:  8
     \\/     M anipulation  |
\*---------------------------------------------------------------------------*/
Build  : 8-ef60d22ea792
Exec   : icoFoam
Date   : Sep 11 2021
Time   : 13:54:30
Host   : "uc2n442.localdomain"
PID    : 3718344
I/O    : uncollated
Case   : /pfs/data5/home/kit/scc/nq7776/data/code/OBR/lidDrivenCavity3D/Variation_init/100/Variation_mesh/40/Variation_matrix_solver/BiCGStab_DIC_Serial/1631361268
nProcs : 1
sigFpe : Enabling floating point exception trapping (FOAM_SIGFPE).
fileModificationChecking : Monitoring run-time modified files using timeStampMaster (fileModificationSkew 10)
allowSystemOperations : Allowing user-supplied system call operations

// * * * * * * * * * * * * * * * * * * * * * * * * * * * * * * * * * * * * * //
Create time

Create mesh for time = 0

Reading transportProperties

Reading field p

Reading field U

Reading/calculating face flux field phi


Starting time loop

Time = 0.0025

Courant Number mean: 0.190855 max: 0.911003
DILUPBiCGStab:  Solving for Ux, Initial residual = 0.0769217, Final residual = 3.46977e-06, No Iterations 5
DILUPBiCGStab:  Solving for Uy, Initial residual = 0.121369, Final residual = 7.54429e-06, No Iterations 5
DILUPBiCGStab:  Solving for Uz, Initial residual = 0.12361, Final residual = 1.86097e-05, No Iterations 5
linear solve U 51567
DICPBiCGStab:  Solving for p, Initial residual = 0.391661, Final residual = 9.64924e-07, No Iterations 86
linear solve p 205334
time step continuity errors : sum local = 2.31108e-09, global = -5.61729e-20, cumulative = -5.61729e-20
DICPBiCGStab:  Solving for p, Initial residual = 0.205931, Final residual = 6.58957e-07, No Iterations 77
linear solve p 182927
time step continuity errors : sum local = 1.32118e-09, global = 9.93539e-20, cumulative = 4.31809e-20
ExecutionTime = 0.76 s  ClockTime = 1 s

Time = 0.005

Courant Number mean: 0.19083 max: 0.922157
DILUPBiCGStab:  Solving for Ux, Initial residual = 0.00575698, Final residual = 4.01328e-06, No Iterations 5
DILUPBiCGStab:  Solving for Uy, Initial residual = 0.0108107, Final residual = 8.44511e-06, No Iterations 5
DILUPBiCGStab:  Solving for Uz, Initial residual = 0.0200636, Final residual = 1.78306e-05, No Iterations 5
linear solve U 45907
DICPBiCGStab:  Solving for p, Initial residual = 0.136382, Final residual = 9.81126e-07, No Iterations 80
linear solve p 190788
time step continuity errors : sum local = 1.77094e-09, global = -6.70585e-20, cumulative = -2.38776e-20
DICPBiCGStab:  Solving for p, Initial residual = 0.0993027, Final residual = 8.8726e-07, No Iterations 84
linear solve p 198589
time step continuity errors : sum local = 1.52974e-09, global = -2.55899e-20, cumulative = -4.94674e-20
ExecutionTime = 1.22 s  ClockTime = 1 s

Time = 0.0075

Courant Number mean: 0.190722 max: 0.922357
DILUPBiCGStab:  Solving for Ux, Initial residual = 0.000899463, Final residual = 5.76211e-07, No Iterations 5
DILUPBiCGStab:  Solving for Uy, Initial residual = 0.00250224, Final residual = 1.55905e-06, No Iterations 5
DILUPBiCGStab:  Solving for Uz, Initial residual = 0.00534943, Final residual = 3.72266e-06, No Iterations 5
linear solve U 45788
DICPBiCGStab:  Solving for p, Initial residual = 0.0513141, Final residual = 8.44215e-07, No Iterations 70
linear solve p 161331
time step continuity errors : sum local = 2.45577e-09, global = -5.25533e-20, cumulative = -1.02021e-19
DICPBiCGStab:  Solving for p, Initial residual = 0.0378649, Final residual = 6.4211e-07, No Iterations 72
linear solve p 172132
time step continuity errors : sum local = 1.27097e-09, global = -3.79105e-20, cumulative = -1.39931e-19
ExecutionTime = 1.63 s  ClockTime = 2 s

Time = 0.01

Courant Number mean: 0.190704 max: 0.922533
DILUPBiCGStab:  Solving for Ux, Initial residual = 0.000355431, Final residual = 3.16434e-07, No Iterations 5
DILUPBiCGStab:  Solving for Uy, Initial residual = 0.000976698, Final residual = 6.00453e-07, No Iterations 5
DILUPBiCGStab:  Solving for Uz, Initial residual = 0.00272971, Final residual = 1.49178e-06, No Iterations 5
linear solve U 44311
DICPBiCGStab:  Solving for p, Initial residual = 0.0272815, Final residual = 9.24887e-07, No Iterations 70
linear solve p 162121
time step continuity errors : sum local = 1.64258e-09, global = -1.05401e-20, cumulative = -1.50471e-19
DICPBiCGStab:  Solving for p, Initial residual = 0.0205667, Final residual = 5.92751e-07, No Iterations 71
linear solve p 169566
time step continuity errors : sum local = 1.0538e-09, global = 1.01763e-19, cumulative = -4.87083e-20
ExecutionTime = 2.03 s  ClockTime = 2 s

Time = 0.0125

Courant Number mean: 0.190674 max: 0.922421
DILUPBiCGStab:  Solving for Ux, Initial residual = 0.00016633, Final residual = 1.03151e-07, No Iterations 5
DILUPBiCGStab:  Solving for Uy, Initial residual = 0.000527598, Final residual = 2.557e-07, No Iterations 5
DILUPBiCGStab:  Solving for Uz, Initial residual = 0.00116017, Final residual = 6.16021e-07, No Iterations 5
linear solve U 44576
DICPBiCGStab:  Solving for p, Initial residual = 0.0156905, Final residual = 6.40696e-07, No Iterations 31
linear solve p 71592
time step continuity errors : sum local = 1.5516e-09, global = 2.64318e-20, cumulative = -2.22765e-20
DICPBiCGStab:  Solving for p, Initial residual = 0.0118132, Final residual = 5.26618e-07, No Iterations 31
linear solve p 74076
time step continuity errors : sum local = 1.03169e-09, global = -3.12858e-20, cumulative = -5.35623e-20
ExecutionTime = 2.25 s  ClockTime = 2 s

Time = 0.015

Courant Number mean: 0.190664 max: 0.922459
DILUPBiCGStab:  Solving for Ux, Initial residual = 0.000103962, Final residual = 6.80053e-08, No Iterations 5
DILUPBiCGStab:  Solving for Uy, Initial residual = 0.000299812, Final residual = 1.22785e-07, No Iterations 5
DILUPBiCGStab:  Solving for Uz, Initial residual = 0.00073793, Final residual = 3.37861e-07, No Iterations 5
linear solve U 44988
DICPBiCGStab:  Solving for p, Initial residual = 0.00952936, Final residual = 8.01887e-07, No Iterations 29
linear solve p 68295
time step continuity errors : sum local = 1.87729e-09, global = -5.04861e-20, cumulative = -1.04048e-19
DICPBiCGStab:  Solving for p, Initial residual = 0.0072031, Final residual = 7.52055e-07, No Iterations 29
linear solve p 69577
time step continuity errors : sum local = 1.41667e-09, global = -4.40326e-20, cumulative = -1.48081e-19
ExecutionTime = 2.47 s  ClockTime = 2 s

Time = 0.0175

Courant Number mean: 0.190653 max: 0.922415
DILUPBiCGStab:  Solving for Ux, Initial residual = 6.31722e-05, Final residual = 4.24483e-08, No Iterations 5
DILUPBiCGStab:  Solving for Uy, Initial residual = 0.000187656, Final residual = 6.55961e-08, No Iterations 5
DILUPBiCGStab:  Solving for Uz, Initial residual = 0.000453042, Final residual = 2.22346e-07, No Iterations 5
linear solve U 46346
DICPBiCGStab:  Solving for p, Initial residual = 0.00589777, Final residual = 4.93431e-07, No Iterations 26
linear solve p 62285
time step continuity errors : sum local = 1.20343e-09, global = -1.27321e-19, cumulative = -2.75402e-19
DICPBiCGStab:  Solving for p, Initial residual = 0.00445592, Final residual = 9.57557e-07, No Iterations 24
linear solve p 58971
time step continuity errors : sum local = 1.72933e-09, global = 4.29544e-20, cumulative = -2.32448e-19
ExecutionTime = 2.66 s  ClockTime = 3 s

Time = 0.02

Courant Number mean: 0.190649 max: 0.922428
DILUPBiCGStab:  Solving for Ux, Initial residual = 4.34478e-05, Final residual = 1.92341e-08, No Iterations 5
DILUPBiCGStab:  Solving for Uy, Initial residual = 0.000121346, Final residual = 4.11678e-08, No Iterations 5
DILUPBiCGStab:  Solving for Uz, Initial residual = 0.000307545, Final residual = 1.47127e-07, No Iterations 5
linear solve U 44522
DICPBiCGStab:  Solving for p, Initial residual = 0.00371806, Final residual = 6.99648e-07, No Iterations 26
linear solve p 60440
time step continuity errors : sum local = 1.69935e-09, global = -3.98825e-20, cumulative = -2.72331e-19
DICPBiCGStab:  Solving for p, Initial residual = 0.00280761, Final residual = 8.20591e-07, No Iterations 25
linear solve p 60150
time step continuity errors : sum local = 1.53269e-09, global = 1.08808e-19, cumulative = -1.63522e-19
ExecutionTime = 2.86 s  ClockTime = 3 s

Time = 0.0225

Courant Number mean: 0.190645 max: 0.92241
DILUPBiCGStab:  Solving for Ux, Initial residual = 2.89272e-05, Final residual = 1.13553e-08, No Iterations 5
DILUPBiCGStab:  Solving for Uy, Initial residual = 7.89651e-05, Final residual = 3.07543e-08, No Iterations 5
DILUPBiCGStab:  Solving for Uz, Initial residual = 0.000229924, Final residual = 1.12386e-07, No Iterations 5
linear solve U 44286
DICPBiCGStab:  Solving for p, Initial residual = 0.00235119, Final residual = 9.81021e-07, No Iterations 27
linear solve p 63317
time step continuity errors : sum local = 2.01238e-09, global = -1.60528e-20, cumulative = -1.79575e-19
DICPBiCGStab:  Solving for p, Initial residual = 0.00177344, Final residual = 9.25302e-07, No Iterations 26
linear solve p 62544
time step continuity errors : sum local = 1.66109e-09, global = 1.23589e-20, cumulative = -1.67216e-19
ExecutionTime = 3.06 s  ClockTime = 3 s

Time = 0.025

Courant Number mean: 0.190644 max: 0.922414
DILUPBiCGStab:  Solving for Ux, Initial residual = 2.11508e-05, Final residual = 7.74501e-09, No Iterations 5
DILUPBiCGStab:  Solving for Uy, Initial residual = 5.32886e-05, Final residual = 1.95985e-08, No Iterations 5
DILUPBiCGStab:  Solving for Uz, Initial residual = 0.000171311, Final residual = 8.33947e-08, No Iterations 5
linear solve U 44385
DICPBiCGStab:  Solving for p, Initial residual = 0.00150005, Final residual = 9.5833e-07, No Iterations 24
linear solve p 56912
time step continuity errors : sum local = 2.03927e-09, global = 3.55707e-20, cumulative = -1.31645e-19
DICPBiCGStab:  Solving for p, Initial residual = 0.00113104, Final residual = 7.01423e-07, No Iterations 31
linear solve p 75207
time step continuity errors : sum local = 1.32138e-09, global = 1.20682e-19, cumulative = -1.09634e-20
ExecutionTime = 3.26 s  ClockTime = 3 s

End

