/*---------------------------------------------------------------------------*\
  =========                 |
  \\      /  F ield         | OpenFOAM: The Open Source CFD Toolbox
   \\    /   O peration     | Website:  https://openfoam.org
    \\  /    A nd           | Version:  8
     \\/     M anipulation  |
\*---------------------------------------------------------------------------*/
Build  : 8-ef60d22ea792
Exec   : icoFoam
Date   : Sep 11 2021
Time   : 13:54:25
Host   : "uc2n442.localdomain"
PID    : 3718279
I/O    : uncollated
Case   : /pfs/data5/home/kit/scc/nq7776/data/code/OBR/lidDrivenCavity3D/Variation_init/100/Variation_mesh/40/Variation_matrix_solver/CG_DIC_Serial/1631361263
nProcs : 1
sigFpe : Enabling floating point exception trapping (FOAM_SIGFPE).
fileModificationChecking : Monitoring run-time modified files using timeStampMaster (fileModificationSkew 10)
allowSystemOperations : Allowing user-supplied system call operations

// * * * * * * * * * * * * * * * * * * * * * * * * * * * * * * * * * * * * * //
Create time

Create mesh for time = 0

Reading transportProperties

Reading field p

Reading field U

Reading/calculating face flux field phi


Starting time loop

Time = 0.0025

Courant Number mean: 0.190855 max: 0.911003
DILUPBiCGStab:  Solving for Ux, Initial residual = 0.0769217, Final residual = 3.46977e-06, No Iterations 5
DILUPBiCGStab:  Solving for Uy, Initial residual = 0.121369, Final residual = 7.54429e-06, No Iterations 5
DILUPBiCGStab:  Solving for Uz, Initial residual = 0.12361, Final residual = 1.86097e-05, No Iterations 5
linear solve U 51688
DICPCG:  Solving for p, Initial residual = 0.391661, Final residual = 6.41359e-07, No Iterations 105
linear solve p 129280
time step continuity errors : sum local = 1.53034e-09, global = 8.5101e-21, cumulative = 8.5101e-21
DICPCG:  Solving for p, Initial residual = 0.205931, Final residual = 8.77738e-07, No Iterations 104
linear solve p 127440
time step continuity errors : sum local = 1.68041e-09, global = -2.51237e-21, cumulative = 5.99773e-21
ExecutionTime = 0.64 s  ClockTime = 1 s

Time = 0.005

Courant Number mean: 0.19083 max: 0.922157
DILUPBiCGStab:  Solving for Ux, Initial residual = 0.00575695, Final residual = 4.0127e-06, No Iterations 5
DILUPBiCGStab:  Solving for Uy, Initial residual = 0.0108106, Final residual = 8.4438e-06, No Iterations 5
DILUPBiCGStab:  Solving for Uz, Initial residual = 0.0200717, Final residual = 1.80018e-05, No Iterations 5
linear solve U 46913
DICPCG:  Solving for p, Initial residual = 0.13638, Final residual = 9.09111e-07, No Iterations 103
linear solve p 125577
time step continuity errors : sum local = 1.56993e-09, global = -1.34505e-20, cumulative = -7.45272e-21
DICPCG:  Solving for p, Initial residual = 0.0993005, Final residual = 9.56044e-07, No Iterations 102
linear solve p 124673
time step continuity errors : sum local = 1.63237e-09, global = 1.50317e-19, cumulative = 1.42864e-19
ExecutionTime = 0.96 s  ClockTime = 1 s

Time = 0.0075

Courant Number mean: 0.190722 max: 0.922357
DILUPBiCGStab:  Solving for Ux, Initial residual = 0.000899435, Final residual = 5.75004e-07, No Iterations 5
DILUPBiCGStab:  Solving for Uy, Initial residual = 0.00250211, Final residual = 1.55748e-06, No Iterations 5
DILUPBiCGStab:  Solving for Uz, Initial residual = 0.00536062, Final residual = 3.76712e-06, No Iterations 5
linear solve U 46644
DICPCG:  Solving for p, Initial residual = 0.0513138, Final residual = 7.2178e-07, No Iterations 100
linear solve p 122284
time step continuity errors : sum local = 1.24555e-09, global = 6.90204e-20, cumulative = 2.11884e-19
DICPCG:  Solving for p, Initial residual = 0.0378639, Final residual = 8.95132e-07, No Iterations 99
linear solve p 121422
time step continuity errors : sum local = 1.55602e-09, global = 6.45856e-20, cumulative = 2.7647e-19
ExecutionTime = 1.28 s  ClockTime = 2 s

Time = 0.01

Courant Number mean: 0.190704 max: 0.922533
DILUPBiCGStab:  Solving for Ux, Initial residual = 0.000355196, Final residual = 3.16473e-07, No Iterations 5
DILUPBiCGStab:  Solving for Uy, Initial residual = 0.000977335, Final residual = 6.03056e-07, No Iterations 5
DILUPBiCGStab:  Solving for Uz, Initial residual = 0.00273785, Final residual = 1.51801e-06, No Iterations 5
linear solve U 45778
DICPCG:  Solving for p, Initial residual = 0.0272857, Final residual = 8.71955e-07, No Iterations 97
linear solve p 118077
time step continuity errors : sum local = 1.47562e-09, global = 2.97662e-20, cumulative = 3.06236e-19
DICPCG:  Solving for p, Initial residual = 0.0205707, Final residual = 9.42566e-07, No Iterations 96
linear solve p 111642
time step continuity errors : sum local = 1.58891e-09, global = 5.01562e-20, cumulative = 3.56392e-19
ExecutionTime = 1.59 s  ClockTime = 2 s

Time = 0.0125

Courant Number mean: 0.190674 max: 0.92242
DILUPBiCGStab:  Solving for Ux, Initial residual = 0.000166556, Final residual = 1.03175e-07, No Iterations 5
DILUPBiCGStab:  Solving for Uy, Initial residual = 0.000527451, Final residual = 2.53126e-07, No Iterations 5
DILUPBiCGStab:  Solving for Uz, Initial residual = 0.00116928, Final residual = 5.9355e-07, No Iterations 5
linear solve U 46728
DICPCG:  Solving for p, Initial residual = 0.0156936, Final residual = 9.51648e-07, No Iterations 92
linear solve p 112993
time step continuity errors : sum local = 1.61369e-09, global = -1.38425e-20, cumulative = 3.4255e-19
DICPCG:  Solving for p, Initial residual = 0.011816, Final residual = 7.60351e-07, No Iterations 92
linear solve p 113093
time step continuity errors : sum local = 1.29152e-09, global = -4.46744e-20, cumulative = 2.97875e-19
ExecutionTime = 1.89 s  ClockTime = 2 s

Time = 0.015

Courant Number mean: 0.190664 max: 0.922459
DILUPBiCGStab:  Solving for Ux, Initial residual = 0.000103806, Final residual = 6.81831e-08, No Iterations 5
DILUPBiCGStab:  Solving for Uy, Initial residual = 0.00030016, Final residual = 1.22724e-07, No Iterations 5
DILUPBiCGStab:  Solving for Uz, Initial residual = 0.0007385, Final residual = 3.4482e-07, No Iterations 5
linear solve U 45551
DICPCG:  Solving for p, Initial residual = 0.00952981, Final residual = 8.02703e-07, No Iterations 90
linear solve p 110484
time step continuity errors : sum local = 1.35656e-09, global = 1.87369e-20, cumulative = 3.16612e-19
DICPCG:  Solving for p, Initial residual = 0.00720344, Final residual = 8.98713e-07, No Iterations 89
linear solve p 109104
time step continuity errors : sum local = 1.51741e-09, global = 1.22398e-22, cumulative = 3.16735e-19
ExecutionTime = 2.19 s  ClockTime = 2 s

Time = 0.0175

Courant Number mean: 0.190653 max: 0.922415
DILUPBiCGStab:  Solving for Ux, Initial residual = 6.32064e-05, Final residual = 4.23085e-08, No Iterations 5
DILUPBiCGStab:  Solving for Uy, Initial residual = 0.000187123, Final residual = 6.53964e-08, No Iterations 5
DILUPBiCGStab:  Solving for Uz, Initial residual = 0.000448587, Final residual = 2.20695e-07, No Iterations 5
linear solve U 46659
DICPCG:  Solving for p, Initial residual = 0.00589785, Final residual = 9.47318e-07, No Iterations 35
linear solve p 41714
time step continuity errors : sum local = 1.73585e-09, global = -2.54269e-20, cumulative = 2.91308e-19
DICPCG:  Solving for p, Initial residual = 0.00445636, Final residual = 8.48295e-07, No Iterations 35
linear solve p 44256
time step continuity errors : sum local = 1.49105e-09, global = -3.37487e-20, cumulative = 2.57559e-19
ExecutionTime = 2.35 s  ClockTime = 3 s

Time = 0.02

Courant Number mean: 0.190649 max: 0.922428
DILUPBiCGStab:  Solving for Ux, Initial residual = 4.35294e-05, Final residual = 1.88794e-08, No Iterations 5
DILUPBiCGStab:  Solving for Uy, Initial residual = 0.000120875, Final residual = 4.08988e-08, No Iterations 5
DILUPBiCGStab:  Solving for Uz, Initial residual = 0.000302776, Final residual = 1.428e-07, No Iterations 5
linear solve U 45231
DICPCG:  Solving for p, Initial residual = 0.00371706, Final residual = 6.67832e-07, No Iterations 39
linear solve p 49045
time step continuity errors : sum local = 1.28111e-09, global = -1.01147e-22, cumulative = 2.57458e-19
DICPCG:  Solving for p, Initial residual = 0.00280702, Final residual = 8.08686e-07, No Iterations 38
linear solve p 47832
time step continuity errors : sum local = 1.39346e-09, global = -5.3751e-21, cumulative = 2.52083e-19
ExecutionTime = 2.52 s  ClockTime = 3 s

Time = 0.0225

Courant Number mean: 0.190645 max: 0.92241
DILUPBiCGStab:  Solving for Ux, Initial residual = 2.89937e-05, Final residual = 1.09359e-08, No Iterations 5
DILUPBiCGStab:  Solving for Uy, Initial residual = 7.86676e-05, Final residual = 3.02184e-08, No Iterations 5
DILUPBiCGStab:  Solving for Uz, Initial residual = 0.000222332, Final residual = 1.1172e-07, No Iterations 5
linear solve U 46816
DICPCG:  Solving for p, Initial residual = 0.00235008, Final residual = 9.59557e-07, No Iterations 36
linear solve p 45218
time step continuity errors : sum local = 1.75272e-09, global = 2.4183e-20, cumulative = 2.76266e-19
DICPCG:  Solving for p, Initial residual = 0.00177274, Final residual = 8.9014e-07, No Iterations 35
linear solve p 44014
time step continuity errors : sum local = 1.55497e-09, global = 4.38628e-20, cumulative = 3.20129e-19
ExecutionTime = 2.69 s  ClockTime = 3 s

Time = 0.025

Courant Number mean: 0.190644 max: 0.922414
DILUPBiCGStab:  Solving for Ux, Initial residual = 2.09933e-05, Final residual = 7.74508e-09, No Iterations 5
DILUPBiCGStab:  Solving for Uy, Initial residual = 5.33314e-05, Final residual = 1.96885e-08, No Iterations 5
DILUPBiCGStab:  Solving for Uz, Initial residual = 0.0001572, Final residual = 7.73253e-08, No Iterations 5
linear solve U 45859
DICPCG:  Solving for p, Initial residual = 0.00149733, Final residual = 9.70127e-07, No Iterations 36
linear solve p 45256
time step continuity errors : sum local = 1.779e-09, global = -6.27445e-20, cumulative = 2.57384e-19
DICPCG:  Solving for p, Initial residual = 0.00112886, Final residual = 8.58557e-07, No Iterations 35
linear solve p 44147
time step continuity errors : sum local = 1.48026e-09, global = -2.91599e-21, cumulative = 2.54468e-19
ExecutionTime = 2.85 s  ClockTime = 3 s

End

