/*---------------------------------------------------------------------------*\
  =========                 |
  \\      /  F ield         | OpenFOAM: The Open Source CFD Toolbox
   \\    /   O peration     | Website:  https://openfoam.org
    \\  /    A nd           | Version:  8
     \\/     M anipulation  |
\*---------------------------------------------------------------------------*/
Build  : 8-ef60d22ea792
Exec   : icoFoam
Date   : Sep 11 2021
Time   : 14:22:23
Host   : "uc2n442.localdomain"
PID    : 3721344
I/O    : uncollated
Case   : /pfs/data5/home/kit/scc/nq7776/data/code/OBR/lidDrivenCavity3D/Variation_init/100/Variation_mesh/100/Variation_matrix_solver/BiCGStab_DIC_Serial/1631362895
nProcs : 1
sigFpe : Enabling floating point exception trapping (FOAM_SIGFPE).
fileModificationChecking : Monitoring run-time modified files using timeStampMaster (fileModificationSkew 10)
allowSystemOperations : Allowing user-supplied system call operations

// * * * * * * * * * * * * * * * * * * * * * * * * * * * * * * * * * * * * * //
Create time

Create mesh for time = 0

Reading transportProperties

Reading field p

Reading field U

Reading/calculating face flux field phi


Starting time loop

Time = 0.001

Courant Number mean: 0.191555 max: 0.96896
DILUPBiCGStab:  Solving for Ux, Initial residual = 9.6672e-05, Final residual = 1.54351e-06, No Iterations 5
DILUPBiCGStab:  Solving for Uy, Initial residual = 0.00025914, Final residual = 4.93349e-06, No Iterations 5
DILUPBiCGStab:  Solving for Uz, Initial residual = 0.00322927, Final residual = 7.02504e-05, No Iterations 5
linear solve U 1040598
DICPBiCGStab:  Solving for p, Initial residual = 0.00938001, Final residual = 9.81692e-07, No Iterations 186
linear solve p 9046648
time step continuity errors : sum local = 2.81208e-10, global = -1.09659e-20, cumulative = -1.09659e-20
DICPBiCGStab:  Solving for p, Initial residual = 0.00639443, Final residual = 5.87508e-07, No Iterations 189
linear solve p 9196538
time step continuity errors : sum local = 1.71949e-10, global = -2.45055e-20, cumulative = -3.54714e-20
ExecutionTime = 24.1 s  ClockTime = 24 s

Time = 0.002

Courant Number mean: 0.19156 max: 0.968963
DILUPBiCGStab:  Solving for Ux, Initial residual = 7.88006e-05, Final residual = 1.34662e-06, No Iterations 5
DILUPBiCGStab:  Solving for Uy, Initial residual = 0.000200947, Final residual = 4.04654e-06, No Iterations 5
DILUPBiCGStab:  Solving for Uz, Initial residual = 0.0022285, Final residual = 3.74241e-05, No Iterations 5
linear solve U 969011
DICPBiCGStab:  Solving for p, Initial residual = 0.00880585, Final residual = 8.87764e-07, No Iterations 170
linear solve p 8249301
time step continuity errors : sum local = 3.64872e-10, global = -9.92876e-21, cumulative = -4.54001e-20
DICPBiCGStab:  Solving for p, Initial residual = 0.00570507, Final residual = 9.38823e-07, No Iterations 172
linear solve p 8338502
time step continuity errors : sum local = 4.20695e-10, global = 2.98876e-21, cumulative = -4.24114e-20
ExecutionTime = 42.16 s  ClockTime = 42 s

Time = 0.003

Courant Number mean: 0.191566 max: 0.968959
DILUPBiCGStab:  Solving for Ux, Initial residual = 4.06013e-05, Final residual = 9.79573e-07, No Iterations 5
DILUPBiCGStab:  Solving for Uy, Initial residual = 0.00012547, Final residual = 3.08927e-06, No Iterations 5
DILUPBiCGStab:  Solving for Uz, Initial residual = 0.0015342, Final residual = 2.37517e-05, No Iterations 5
linear solve U 952522
DICPBiCGStab:  Solving for p, Initial residual = 0.00522073, Final residual = 9.94644e-07, No Iterations 178
linear solve p 8637154
time step continuity errors : sum local = 3.28667e-10, global = 3.88535e-22, cumulative = -4.20228e-20
DICPBiCGStab:  Solving for p, Initial residual = 0.00442118, Final residual = 9.96565e-07, No Iterations 184
linear solve p 8937168
time step continuity errors : sum local = 2.86689e-10, global = 1.26122e-20, cumulative = -2.94107e-20
ExecutionTime = 61.19 s  ClockTime = 61 s

Time = 0.004

Courant Number mean: 0.191573 max: 0.968961
DILUPBiCGStab:  Solving for Ux, Initial residual = 3.02313e-05, Final residual = 7.82625e-07, No Iterations 5
DILUPBiCGStab:  Solving for Uy, Initial residual = 9.61013e-05, Final residual = 2.55215e-06, No Iterations 5
DILUPBiCGStab:  Solving for Uz, Initial residual = 0.00117941, Final residual = 1.74128e-05, No Iterations 5
linear solve U 974974
DICPBiCGStab:  Solving for p, Initial residual = 0.00424115, Final residual = 8.69431e-07, No Iterations 171
linear solve p 8282695
time step continuity errors : sum local = 4.96043e-10, global = -2.83016e-20, cumulative = -5.77123e-20
DICPBiCGStab:  Solving for p, Initial residual = 0.00370388, Final residual = 5.14553e-07, No Iterations 160
linear solve p 7751453
time step continuity errors : sum local = 2.93415e-10, global = -2.09744e-20, cumulative = -7.86867e-20
ExecutionTime = 78.69 s  ClockTime = 79 s

Time = 0.005

Courant Number mean: 0.191579 max: 0.968962
DILUPBiCGStab:  Solving for Ux, Initial residual = 2.57141e-05, Final residual = 7.17222e-07, No Iterations 5
DILUPBiCGStab:  Solving for Uy, Initial residual = 7.81069e-05, Final residual = 2.12461e-06, No Iterations 5
DILUPBiCGStab:  Solving for Uz, Initial residual = 0.000958196, Final residual = 1.50366e-05, No Iterations 5
linear solve U 966647
DICPBiCGStab:  Solving for p, Initial residual = 0.00362203, Final residual = 9.53938e-07, No Iterations 174
linear solve p 8429365
time step continuity errors : sum local = 5.44219e-10, global = -1.93867e-20, cumulative = -9.80734e-20
DICPBiCGStab:  Solving for p, Initial residual = 0.00317677, Final residual = 7.75113e-07, No Iterations 166
linear solve p 8040817
time step continuity errors : sum local = 4.42253e-10, global = 1.989e-20, cumulative = -7.81834e-20
ExecutionTime = 96.64 s  ClockTime = 97 s

Time = 0.006

Courant Number mean: 0.191586 max: 0.968963
DILUPBiCGStab:  Solving for Ux, Initial residual = 2.16803e-05, Final residual = 5.98895e-07, No Iterations 5
DILUPBiCGStab:  Solving for Uy, Initial residual = 7.25339e-05, Final residual = 2.07751e-06, No Iterations 5
DILUPBiCGStab:  Solving for Uz, Initial residual = 0.000862952, Final residual = 1.48492e-05, No Iterations 5
linear solve U 966843
DICPBiCGStab:  Solving for p, Initial residual = 0.00315614, Final residual = 9.54087e-07, No Iterations 176
linear solve p 8547984
time step continuity errors : sum local = 5.44214e-10, global = 1.33566e-20, cumulative = -6.48268e-20
DICPBiCGStab:  Solving for p, Initial residual = 0.00277041, Final residual = 4.70578e-07, No Iterations 155
linear solve p 7516875
time step continuity errors : sum local = 2.59474e-10, global = -8.85632e-21, cumulative = -7.36831e-20
ExecutionTime = 114.17 s  ClockTime = 114 s

Time = 0.007

Courant Number mean: 0.191591 max: 0.968963
DILUPBiCGStab:  Solving for Ux, Initial residual = 2.02106e-05, Final residual = 5.84109e-07, No Iterations 5
DILUPBiCGStab:  Solving for Uy, Initial residual = 6.11002e-05, Final residual = 1.72157e-06, No Iterations 5
DILUPBiCGStab:  Solving for Uz, Initial residual = 0.000737619, Final residual = 1.09713e-05, No Iterations 5
linear solve U 967238
DICPBiCGStab:  Solving for p, Initial residual = 0.00275286, Final residual = 4.00177e-07, No Iterations 164
linear solve p 7943851
time step continuity errors : sum local = 1.43001e-10, global = -2.91448e-21, cumulative = -7.65976e-20
DICPBiCGStab:  Solving for p, Initial residual = 0.00241557, Final residual = 8.52354e-07, No Iterations 167
linear solve p 8083769
time step continuity errors : sum local = 4.86071e-10, global = -4.01856e-21, cumulative = -8.06162e-20
ExecutionTime = 131.67 s  ClockTime = 132 s

Time = 0.008

Courant Number mean: 0.191597 max: 0.968964
DILUPBiCGStab:  Solving for Ux, Initial residual = 1.68369e-05, Final residual = 4.93663e-07, No Iterations 5
DILUPBiCGStab:  Solving for Uy, Initial residual = 5.27568e-05, Final residual = 1.53789e-06, No Iterations 5
DILUPBiCGStab:  Solving for Uz, Initial residual = 0.000574738, Final residual = 7.07466e-06, No Iterations 5
linear solve U 966090
DICPBiCGStab:  Solving for p, Initial residual = 0.00238332, Final residual = 5.17428e-07, No Iterations 163
linear solve p 7927749
time step continuity errors : sum local = 2.57062e-10, global = 1.37161e-20, cumulative = -6.69e-20
DICPBiCGStab:  Solving for p, Initial residual = 0.00208686, Final residual = 8.55805e-07, No Iterations 154
linear solve p 7531766
time step continuity errors : sum local = 4.33253e-10, global = -1.6904e-20, cumulative = -8.3804e-20
ExecutionTime = 148.6 s  ClockTime = 149 s

Time = 0.009

Courant Number mean: 0.191602 max: 0.968965
DILUPBiCGStab:  Solving for Ux, Initial residual = 1.42745e-05, Final residual = 4.27675e-07, No Iterations 5
DILUPBiCGStab:  Solving for Uy, Initial residual = 4.53813e-05, Final residual = 1.36331e-06, No Iterations 5
DILUPBiCGStab:  Solving for Uz, Initial residual = 0.000455261, Final residual = 5.6304e-06, No Iterations 5
linear solve U 961303
DICPBiCGStab:  Solving for p, Initial residual = 0.0020636, Final residual = 3.48484e-07, No Iterations 162
linear solve p 7907327
time step continuity errors : sum local = 1.48498e-10, global = -3.97493e-21, cumulative = -8.77789e-20
DICPBiCGStab:  Solving for p, Initial residual = 0.00180426, Final residual = 9.41631e-07, No Iterations 155
linear solve p 7571378
time step continuity errors : sum local = 5.36846e-10, global = 2.405e-20, cumulative = -6.37289e-20
ExecutionTime = 165.55 s  ClockTime = 166 s

Time = 0.01

Courant Number mean: 0.191607 max: 0.968965
DILUPBiCGStab:  Solving for Ux, Initial residual = 1.28796e-05, Final residual = 3.70379e-07, No Iterations 5
DILUPBiCGStab:  Solving for Uy, Initial residual = 3.83279e-05, Final residual = 1.13764e-06, No Iterations 5
DILUPBiCGStab:  Solving for Uz, Initial residual = 0.000410807, Final residual = 7.78317e-06, No Iterations 5
linear solve U 965764
DICPBiCGStab:  Solving for p, Initial residual = 0.00178294, Final residual = 9.44435e-07, No Iterations 146
linear solve p 7072485
time step continuity errors : sum local = 4.25037e-10, global = 2.15123e-21, cumulative = -6.15777e-20
DICPBiCGStab:  Solving for p, Initial residual = 0.00155424, Final residual = 1.90775e-07, No Iterations 150
linear solve p 7292623
time step continuity errors : sum local = 6.83972e-11, global = -3.63948e-21, cumulative = -6.52172e-20
ExecutionTime = 181.39 s  ClockTime = 182 s

End

