/*---------------------------------------------------------------------------*\
  =========                 |
  \\      /  F ield         | OpenFOAM: The Open Source CFD Toolbox
   \\    /   O peration     | Website:  https://openfoam.org
    \\  /    A nd           | Version:  8
     \\/     M anipulation  |
\*---------------------------------------------------------------------------*/
Build  : 8-ef60d22ea792
Exec   : icoFoam
Date   : Sep 11 2021
Time   : 14:24:59
Host   : "uc2n513.localdomain"
PID    : 227317
I/O    : uncollated
Case   : /pfs/data5/home/kit/scc/nq7776/data/code/OBR/lidDrivenCavity3D/Variation_init/100/Variation_mesh/80/Variation_matrix_solver/BiCGStab_NoPrecond_CUDA/1631363078
nProcs : 1
sigFpe : Enabling floating point exception trapping (FOAM_SIGFPE).
fileModificationChecking : Monitoring run-time modified files using timeStampMaster (fileModificationSkew 10)
allowSystemOperations : Allowing user-supplied system call operations

// * * * * * * * * * * * * * * * * * * * * * * * * * * * * * * * * * * * * * //
Create time

Create mesh for time = 0

Reading transportProperties

Reading field p

Reading field U

Reading/calculating face flux field phi


Starting time loop

Time = 0.00125

Courant Number mean: 0.191396 max: 0.961531
DILUPBiCGStab:  Solving for Ux, Initial residual = 0.0903312, Final residual = 1.56905e-05, No Iterations 5
DILUPBiCGStab:  Solving for Uy, Initial residual = 0.170741, Final residual = 4.42871e-05, No Iterations 5
DILUPBiCGStab:  Solving for Uz, Initial residual = 0.209354, Final residual = 0.0001275, No Iterations 5
linear solve U 538424
[OGL LOG] init_host_sparsity_pattern : 145 ms
[OGL LOG] matrix not stored update host matrix
[OGL LOG] update_host_mtx : 75 ms
[OGL LOG] matrix is not yet sorted, compute sorting idxs
[OGL LOG] compute_sort : 4409 ms
[OGL LOG] matrix is not yet sorted, sorting host matrix
[OGL LOG] sort_host_mtx_sparsity_pattern : 98 ms
[OGL LOG] sort_host_mtx : 60 ms
[OGL LOG] init_preconditioner : 0 ms
[OGL LOG] solve : 718 ms
nonecudaGKOBiCGStab:  Solving for p, Initial residual = 0.614031, Final residual = 5.73884e-07, No Iterations 497
linear solve p 6280126
time step continuity errors : sum local = 8.79805e-10, global = 2.9883e-20, cumulative = 2.9883e-20
[OGL LOG] init_preconditioner : 0 ms
[OGL LOG] solve : 804 ms
nonecudaGKOBiCGStab:  Solving for p, Initial residual = 0.278622, Final residual = 3.45874e-07, No Iterations 544
linear solve p 820976
time step continuity errors : sum local = 2.43358e-05, global = -7.05761e-22, cumulative = 2.91772e-20
ExecutionTime = 10.16 s  ClockTime = 10 s

Time = 0.0025

Courant Number mean: 0.19147 max: 0.961377
DILUPBiCGStab:  Solving for Ux, Initial residual = 0.00522723, Final residual = 1.34486e-05, No Iterations 5
DILUPBiCGStab:  Solving for Uy, Initial residual = 0.0118723, Final residual = 4.18572e-05, No Iterations 5
DILUPBiCGStab:  Solving for Uz, Initial residual = 0.0697505, Final residual = 0.00150106, No Iterations 5
linear solve U 497371
[OGL LOG] init_preconditioner : 0 ms
[OGL LOG] solve : 996 ms
nonecudaGKOBiCGStab:  Solving for p, Initial residual = 0.434528, Final residual = 8.37199e-07, No Iterations 511
linear solve p 1013662
time step continuity errors : sum local = 6.38636e-06, global = 1.42172e-20, cumulative = 4.33944e-20
[OGL LOG] init_preconditioner : 0 ms
[OGL LOG] solve : 995 ms
nonecudaGKOBiCGStab:  Solving for p, Initial residual = 0.307537, Final residual = 9.95216e-07, No Iterations 523
linear solve p 1012900
time step continuity errors : sum local = 1.26273e-07, global = -1.19005e-20, cumulative = 3.14938e-20
ExecutionTime = 12.99 s  ClockTime = 13 s

Time = 0.00375

Courant Number mean: 0.191481 max: 0.961842
DILUPBiCGStab:  Solving for Ux, Initial residual = 0.00118619, Final residual = 8.38824e-06, No Iterations 5
DILUPBiCGStab:  Solving for Uy, Initial residual = 0.00360389, Final residual = 2.73275e-05, No Iterations 5
DILUPBiCGStab:  Solving for Uz, Initial residual = 0.096999, Final residual = 0.00124774, No Iterations 5
linear solve U 500319
[OGL LOG] init_preconditioner : 0 ms
[OGL LOG] solve : 989 ms
nonecudaGKOBiCGStab:  Solving for p, Initial residual = 0.322997, Final residual = 3.37744e-07, No Iterations 497
linear solve p 1006911
time step continuity errors : sum local = 6.3154e-05, global = 1.52978e-19, cumulative = 1.84472e-19
[OGL LOG] init_preconditioner : 0 ms
[OGL LOG] solve : 954 ms
nonecudaGKOBiCGStab:  Solving for p, Initial residual = 0.290948, Final residual = 8.37289e-07, No Iterations 486
linear solve p 970740
time step continuity errors : sum local = 1.43626e-05, global = -3.507e-21, cumulative = 1.80965e-19
ExecutionTime = 15.78 s  ClockTime = 16 s

Time = 0.005

Courant Number mean: 0.191478 max: 0.962118
DILUPBiCGStab:  Solving for Ux, Initial residual = 0.000580394, Final residual = 4.45334e-06, No Iterations 5
DILUPBiCGStab:  Solving for Uy, Initial residual = 0.00209021, Final residual = 2.13876e-05, No Iterations 5
DILUPBiCGStab:  Solving for Uz, Initial residual = 0.207019, Final residual = 0.0041063, No Iterations 5
linear solve U 499586
[OGL LOG] init_preconditioner : 0 ms
[OGL LOG] solve : 957 ms
nonecudaGKOBiCGStab:  Solving for p, Initial residual = 0.578565, Final residual = 9.55651e-07, No Iterations 476
linear solve p 974740
time step continuity errors : sum local = 1.8136e-06, global = -2.83004e-20, cumulative = 1.52664e-19
[OGL LOG] init_preconditioner : 0 ms
[OGL LOG] solve : 984 ms
nonecudaGKOBiCGStab:  Solving for p, Initial residual = 0.505511, Final residual = 9.9693e-07, No Iterations 510
linear solve p 1000895
time step continuity errors : sum local = 7.39934e-06, global = 3.12123e-20, cumulative = 1.83877e-19
ExecutionTime = 18.56 s  ClockTime = 19 s

Time = 0.00625

Courant Number mean: 0.191542 max: 0.965705
DILUPBiCGStab:  Solving for Ux, Initial residual = 0.000945669, Final residual = 9.37249e-06, No Iterations 5
DILUPBiCGStab:  Solving for Uy, Initial residual = 0.0032583, Final residual = 3.266e-05, No Iterations 5
DILUPBiCGStab:  Solving for Uz, Initial residual = 0.255908, Final residual = 0.00274971, No Iterations 5
linear solve U 500390
[OGL LOG] init_preconditioner : 0 ms
[OGL LOG] solve : 887 ms
nonecudaGKOBiCGStab:  Solving for p, Initial residual = 0.523259, Final residual = 8.37007e-07, No Iterations 478
linear solve p 904088
time step continuity errors : sum local = 4.28729e-06, global = 3.78122e-21, cumulative = 1.87658e-19
[OGL LOG] init_preconditioner : 0 ms
[OGL LOG] solve : 927 ms
nonecudaGKOBiCGStab:  Solving for p, Initial residual = 0.450094, Final residual = 9.85082e-07, No Iterations 479
linear solve p 945623
time step continuity errors : sum local = 5.25655e-07, global = -3.07204e-22, cumulative = 1.87351e-19
ExecutionTime = 21.22 s  ClockTime = 21 s

Time = 0.0075

Courant Number mean: 0.191511 max: 0.963912
DILUPBiCGStab:  Solving for Ux, Initial residual = 0.000692995, Final residual = 7.11142e-06, No Iterations 5
DILUPBiCGStab:  Solving for Uy, Initial residual = 0.00243524, Final residual = 2.35912e-05, No Iterations 5
DILUPBiCGStab:  Solving for Uz, Initial residual = 0.222459, Final residual = 0.00166276, No Iterations 5
linear solve U 500937
[OGL LOG] init_preconditioner : 0 ms
[OGL LOG] solve : 964 ms
nonecudaGKOBiCGStab:  Solving for p, Initial residual = 0.476573, Final residual = 7.55074e-07, No Iterations 480
linear solve p 980496
time step continuity errors : sum local = 1.39453e-05, global = 3.28831e-20, cumulative = 2.20234e-19
[OGL LOG] init_preconditioner : 0 ms
[OGL LOG] solve : 967 ms
nonecudaGKOBiCGStab:  Solving for p, Initial residual = 0.397678, Final residual = 8.83374e-07, No Iterations 484
linear solve p 983182
time step continuity errors : sum local = 2.26099e-06, global = -2.04494e-20, cumulative = 1.99784e-19
ExecutionTime = 23.99 s  ClockTime = 24 s

Time = 0.00875

Courant Number mean: 0.191506 max: 0.962553
DILUPBiCGStab:  Solving for Ux, Initial residual = 0.000523996, Final residual = 5.22827e-06, No Iterations 5
DILUPBiCGStab:  Solving for Uy, Initial residual = 0.00188983, Final residual = 1.77906e-05, No Iterations 5
DILUPBiCGStab:  Solving for Uz, Initial residual = 0.213515, Final residual = 0.00193341, No Iterations 5
linear solve U 505267
[OGL LOG] init_preconditioner : 0 ms
[OGL LOG] solve : 940 ms
nonecudaGKOBiCGStab:  Solving for p, Initial residual = 0.468269, Final residual = 7.14378e-07, No Iterations 479
linear solve p 955882
time step continuity errors : sum local = 2.99834e-05, global = 1.95018e-20, cumulative = 2.19286e-19
[OGL LOG] init_preconditioner : 0 ms
[OGL LOG] solve : 1083 ms
nonecudaGKOBiCGStab:  Solving for p, Initial residual = 0.381107, Final residual = 3.81599e-07, No Iterations 543
linear solve p 1100925
time step continuity errors : sum local = 1.21643e-05, global = 1.22467e-20, cumulative = 2.31533e-19
ExecutionTime = 26.86 s  ClockTime = 27 s

Time = 0.01

Courant Number mean: 0.191511 max: 0.96329
DILUPBiCGStab:  Solving for Ux, Initial residual = 0.000450634, Final residual = 4.77662e-06, No Iterations 5
DILUPBiCGStab:  Solving for Uy, Initial residual = 0.00167404, Final residual = 1.83039e-05, No Iterations 5
DILUPBiCGStab:  Solving for Uz, Initial residual = 0.246247, Final residual = 0.0030482, No Iterations 5
linear solve U 497042
[OGL LOG] init_preconditioner : 0 ms
[OGL LOG] solve : 890 ms
nonecudaGKOBiCGStab:  Solving for p, Initial residual = 0.537952, Final residual = 8.18299e-07, No Iterations 457
linear solve p 905763
time step continuity errors : sum local = 3.50869e-05, global = 8.57116e-20, cumulative = 3.17245e-19
[OGL LOG] init_preconditioner : 0 ms
[OGL LOG] solve : 878 ms
nonecudaGKOBiCGStab:  Solving for p, Initial residual = 0.425487, Final residual = 9.30843e-07, No Iterations 462
linear solve p 896119
time step continuity errors : sum local = 4.29267e-06, global = -4.89156e-21, cumulative = 3.12353e-19
ExecutionTime = 29.47 s  ClockTime = 30 s

Time = 0.01125

Courant Number mean: 0.191533 max: 0.96437
DILUPBiCGStab:  Solving for Ux, Initial residual = 0.000621906, Final residual = 6.75988e-06, No Iterations 5
DILUPBiCGStab:  Solving for Uy, Initial residual = 0.00223253, Final residual = 2.61055e-05, No Iterations 5
DILUPBiCGStab:  Solving for Uz, Initial residual = 0.28674, Final residual = 0.00333862, No Iterations 5
linear solve U 500219
[OGL LOG] init_preconditioner : 0 ms
[OGL LOG] solve : 888 ms
nonecudaGKOBiCGStab:  Solving for p, Initial residual = 0.571514, Final residual = 6.44197e-07, No Iterations 452
linear solve p 904751
time step continuity errors : sum local = 0.000858432, global = -9.00041e-19, cumulative = -5.87688e-19
[OGL LOG] init_preconditioner : 0 ms
[OGL LOG] solve : 894 ms
nonecudaGKOBiCGStab:  Solving for p, Initial residual = 0.63262, Final residual = 9.58937e-07, No Iterations 467
linear solve p 910682
time step continuity errors : sum local = 1.48985e-05, global = 3.38842e-20, cumulative = -5.53804e-19
ExecutionTime = 32.08 s  ClockTime = 32 s

Time = 0.0125

Courant Number mean: 0.191555 max: 0.96725
DILUPBiCGStab:  Solving for Ux, Initial residual = 0.000569495, Final residual = 6.55045e-06, No Iterations 5
DILUPBiCGStab:  Solving for Uy, Initial residual = 0.00330732, Final residual = 9.02036e-05, No Iterations 5
DILUPBiCGStab:  Solving for Uz, Initial residual = 0.661462, Final residual = 0.0142487, No Iterations 5
linear solve U 499830
[OGL LOG] init_preconditioner : 0 ms
[OGL LOG] solve : 981 ms
nonecudaGKOBiCGStab:  Solving for p, Initial residual = 0.924176, Final residual = 5.2099e-08, No Iterations 506
linear solve p 998303
time step continuity errors : sum local = 0.000115103, global = -1.3729e-19, cumulative = -6.91094e-19
[OGL LOG] init_preconditioner : 0 ms
[OGL LOG] solve : 932 ms
nonecudaGKOBiCGStab:  Solving for p, Initial residual = 0.812134, Final residual = 9.69414e-07, No Iterations 498
linear solve p 948767
time step continuity errors : sum local = 0.00011036, global = 1.7754e-19, cumulative = -5.13554e-19
ExecutionTime = 34.83 s  ClockTime = 35 s

End

