/*---------------------------------------------------------------------------*\
  =========                 |
  \\      /  F ield         | OpenFOAM: The Open Source CFD Toolbox
   \\    /   O peration     | Website:  https://openfoam.org
    \\  /    A nd           | Version:  8
     \\/     M anipulation  |
\*---------------------------------------------------------------------------*/
Build  : 8-ef60d22ea792
Exec   : icoFoam
Date   : Sep 11 2021
Time   : 13:51:05
Host   : "uc2n513.localdomain"
PID    : 220997
I/O    : uncollated
Case   : /pfs/data5/home/kit/scc/nq7776/data/code/OBR/lidDrivenCavity3D/Variation_init/100/Variation_mesh/40/Variation_matrix_solver/CG_ILU_CUDA/1631361061
nProcs : 1
sigFpe : Enabling floating point exception trapping (FOAM_SIGFPE).
fileModificationChecking : Monitoring run-time modified files using timeStampMaster (fileModificationSkew 10)
allowSystemOperations : Allowing user-supplied system call operations

// * * * * * * * * * * * * * * * * * * * * * * * * * * * * * * * * * * * * * //
Create time

Create mesh for time = 0

Reading transportProperties

Reading field p

Reading field U

Reading/calculating face flux field phi


Starting time loop

Time = 0.0025

Courant Number mean: 0.190855 max: 0.911003
DILUPBiCGStab:  Solving for Ux, Initial residual = 0.0769217, Final residual = 3.46977e-06, No Iterations 5
DILUPBiCGStab:  Solving for Uy, Initial residual = 0.121369, Final residual = 7.54429e-06, No Iterations 5
DILUPBiCGStab:  Solving for Uz, Initial residual = 0.12361, Final residual = 1.86097e-05, No Iterations 5
linear solve U 51896
[OGL LOG] init_host_sparsity_pattern : 17 ms
[OGL LOG] matrix not stored update host matrix
[OGL LOG] update_host_mtx : 8 ms
[OGL LOG] matrix is not yet sorted, compute sorting idxs
[OGL LOG] compute_sort : 479 ms
[OGL LOG] matrix is not yet sorted, sorting host matrix
[OGL LOG] sort_host_mtx_sparsity_pattern : 11 ms
[OGL LOG] sort_host_mtx : 7 ms
[OGL LOG] init_preconditioner : 23 ms
[OGL LOG] solve : 77 ms
ILUcudaGKOCG:  Solving for p, Initial residual = 0.391661, Final residual = 6.42306e-07, No Iterations 105
linear solve p 1363560
time step continuity errors : sum local = 1.53255e-09, global = -4.08292e-20, cumulative = -4.08292e-20
[OGL LOG] init_preconditioner : 0 ms
[OGL LOG] solve : 76 ms
ILUcudaGKOCG:  Solving for p, Initial residual = 0.205931, Final residual = 8.78714e-07, No Iterations 104
linear solve p 78161
time step continuity errors : sum local = 1.68224e-09, global = -7.00666e-21, cumulative = -4.78358e-20
ExecutionTime = 1.81 s  ClockTime = 2 s

Time = 0.005

Courant Number mean: 0.19083 max: 0.922157
DILUPBiCGStab:  Solving for Ux, Initial residual = 0.00575695, Final residual = 4.0127e-06, No Iterations 5
DILUPBiCGStab:  Solving for Uy, Initial residual = 0.0108106, Final residual = 8.4438e-06, No Iterations 5
DILUPBiCGStab:  Solving for Uz, Initial residual = 0.0200718, Final residual = 1.80018e-05, No Iterations 5
linear solve U 45480
[OGL LOG] init_preconditioner : 0 ms
[OGL LOG] solve : 75 ms
ILUcudaGKOCG:  Solving for p, Initial residual = 0.136375, Final residual = 9.49827e-07, No Iterations 103
linear solve p 77433
time step continuity errors : sum local = 6.68152e-07, global = -3.93816e-20, cumulative = -8.72174e-20
[OGL LOG] init_preconditioner : 0 ms
[OGL LOG] solve : 77 ms
ILUcudaGKOCG:  Solving for p, Initial residual = 0.0992982, Final residual = 9.72312e-07, No Iterations 102
linear solve p 78860
time step continuity errors : sum local = 6.28533e-07, global = 1.04561e-20, cumulative = -7.67613e-20
ExecutionTime = 2.04 s  ClockTime = 2 s

Time = 0.0075

Courant Number mean: 0.190722 max: 0.922357
DILUPBiCGStab:  Solving for Ux, Initial residual = 0.000899393, Final residual = 5.75002e-07, No Iterations 5
DILUPBiCGStab:  Solving for Uy, Initial residual = 0.0025021, Final residual = 1.5573e-06, No Iterations 5
DILUPBiCGStab:  Solving for Uz, Initial residual = 0.00536068, Final residual = 3.76742e-06, No Iterations 5
linear solve U 45592
[OGL LOG] init_preconditioner : 0 ms
[OGL LOG] solve : 73 ms
ILUcudaGKOCG:  Solving for p, Initial residual = 0.0513115, Final residual = 7.65696e-07, No Iterations 100
linear solve p 75361
time step continuity errors : sum local = 6.16537e-07, global = 1.16066e-19, cumulative = 3.93046e-20
[OGL LOG] init_preconditioner : 0 ms
[OGL LOG] solve : 72 ms
ILUcudaGKOCG:  Solving for p, Initial residual = 0.0378629, Final residual = 9.26033e-07, No Iterations 99
linear solve p 74572
time step continuity errors : sum local = 6.25756e-07, global = 1.19714e-19, cumulative = 1.59018e-19
ExecutionTime = 2.28 s  ClockTime = 2 s

Time = 0.01

Courant Number mean: 0.190704 max: 0.922533
DILUPBiCGStab:  Solving for Ux, Initial residual = 0.000355185, Final residual = 3.16506e-07, No Iterations 5
DILUPBiCGStab:  Solving for Uy, Initial residual = 0.00097735, Final residual = 6.02898e-07, No Iterations 5
DILUPBiCGStab:  Solving for Uz, Initial residual = 0.00273785, Final residual = 1.51792e-06, No Iterations 5
linear solve U 45061
[OGL LOG] init_preconditioner : 0 ms
[OGL LOG] solve : 71 ms
ILUcudaGKOCG:  Solving for p, Initial residual = 0.0272849, Final residual = 8.73916e-07, No Iterations 97
linear solve p 73179
time step continuity errors : sum local = 6.28977e-07, global = 1.0821e-19, cumulative = 2.67228e-19
[OGL LOG] init_preconditioner : 0 ms
[OGL LOG] solve : 71 ms
ILUcudaGKOCG:  Solving for p, Initial residual = 0.0205702, Final residual = 9.68846e-07, No Iterations 96
linear solve p 73729
time step continuity errors : sum local = 6.26316e-07, global = -9.32734e-20, cumulative = 1.73955e-19
ExecutionTime = 2.5 s  ClockTime = 2 s

Time = 0.0125

Courant Number mean: 0.190674 max: 0.92242
DILUPBiCGStab:  Solving for Ux, Initial residual = 0.000166541, Final residual = 1.03182e-07, No Iterations 5
DILUPBiCGStab:  Solving for Uy, Initial residual = 0.000527462, Final residual = 2.53116e-07, No Iterations 5
DILUPBiCGStab:  Solving for Uz, Initial residual = 0.00116927, Final residual = 5.93497e-07, No Iterations 5
linear solve U 46040
[OGL LOG] init_preconditioner : 0 ms
[OGL LOG] solve : 68 ms
ILUcudaGKOCG:  Solving for p, Initial residual = 0.0156927, Final residual = 7.739e-07, No Iterations 93
linear solve p 70209
time step continuity errors : sum local = 6.2513e-07, global = 4.53429e-20, cumulative = 2.19298e-19
[OGL LOG] init_preconditioner : 0 ms
[OGL LOG] solve : 67 ms
ILUcudaGKOCG:  Solving for p, Initial residual = 0.0118159, Final residual = 8.21659e-07, No Iterations 92
linear solve p 69462
time step continuity errors : sum local = 6.26056e-07, global = 9.90859e-21, cumulative = 2.29207e-19
ExecutionTime = 2.71 s  ClockTime = 3 s

Time = 0.015

Courant Number mean: 0.190664 max: 0.922459
DILUPBiCGStab:  Solving for Ux, Initial residual = 0.000103794, Final residual = 6.81908e-08, No Iterations 5
DILUPBiCGStab:  Solving for Uy, Initial residual = 0.000300161, Final residual = 1.2272e-07, No Iterations 5
DILUPBiCGStab:  Solving for Uz, Initial residual = 0.00073851, Final residual = 3.44758e-07, No Iterations 5
linear solve U 45609
[OGL LOG] init_preconditioner : 0 ms
[OGL LOG] solve : 66 ms
ILUcudaGKOCG:  Solving for p, Initial residual = 0.00952931, Final residual = 8.26887e-07, No Iterations 90
linear solve p 68170
time step continuity errors : sum local = 6.26386e-07, global = -1.81111e-20, cumulative = 2.11095e-19
[OGL LOG] init_preconditioner : 0 ms
[OGL LOG] solve : 67 ms
ILUcudaGKOCG:  Solving for p, Initial residual = 0.00720311, Final residual = 9.14946e-07, No Iterations 89
linear solve p 69332
time step continuity errors : sum local = 6.26187e-07, global = -6.86291e-20, cumulative = 1.42466e-19
ExecutionTime = 2.93 s  ClockTime = 3 s

Time = 0.0175

Courant Number mean: 0.190653 max: 0.922415
DILUPBiCGStab:  Solving for Ux, Initial residual = 6.31998e-05, Final residual = 4.23046e-08, No Iterations 5
DILUPBiCGStab:  Solving for Uy, Initial residual = 0.000187125, Final residual = 6.5385e-08, No Iterations 5
DILUPBiCGStab:  Solving for Uz, Initial residual = 0.000448596, Final residual = 2.20681e-07, No Iterations 5
linear solve U 45255
[OGL LOG] init_preconditioner : 0 ms
[OGL LOG] solve : 26 ms
ILUcudaGKOCG:  Solving for p, Initial residual = 0.00589758, Final residual = 9.48338e-07, No Iterations 35
linear solve p 28466
time step continuity errors : sum local = 6.26281e-07, global = 2.08176e-20, cumulative = 1.63284e-19
[OGL LOG] init_preconditioner : 0 ms
[OGL LOG] solve : 26 ms
ILUcudaGKOCG:  Solving for p, Initial residual = 0.00445615, Final residual = 8.49372e-07, No Iterations 35
linear solve p 28522
time step continuity errors : sum local = 6.26193e-07, global = -6.16999e-20, cumulative = 1.01584e-19
ExecutionTime = 3.07 s  ClockTime = 3 s

Time = 0.02

Courant Number mean: 0.190649 max: 0.922428
DILUPBiCGStab:  Solving for Ux, Initial residual = 4.35259e-05, Final residual = 1.88753e-08, No Iterations 5
DILUPBiCGStab:  Solving for Uy, Initial residual = 0.00012088, Final residual = 4.08806e-08, No Iterations 5
DILUPBiCGStab:  Solving for Uz, Initial residual = 0.000302791, Final residual = 1.428e-07, No Iterations 5
linear solve U 46217
[OGL LOG] init_preconditioner : 0 ms
[OGL LOG] solve : 29 ms
ILUcudaGKOCG:  Solving for p, Initial residual = 0.00371699, Final residual = 6.69267e-07, No Iterations 39
linear solve p 31385
time step continuity errors : sum local = 6.26184e-07, global = -1.28089e-19, cumulative = -2.65049e-20
[OGL LOG] init_preconditioner : 0 ms
[OGL LOG] solve : 29 ms
ILUcudaGKOCG:  Solving for p, Initial residual = 0.00280695, Final residual = 8.10457e-07, No Iterations 38
linear solve p 30682
time step continuity errors : sum local = 6.26179e-07, global = 4.29979e-20, cumulative = 1.6493e-20
ExecutionTime = 3.21 s  ClockTime = 3 s

Time = 0.0225

Courant Number mean: 0.190645 max: 0.92241
DILUPBiCGStab:  Solving for Ux, Initial residual = 2.89915e-05, Final residual = 1.09345e-08, No Iterations 5
DILUPBiCGStab:  Solving for Uy, Initial residual = 7.86723e-05, Final residual = 3.02067e-08, No Iterations 5
DILUPBiCGStab:  Solving for Uz, Initial residual = 0.000222336, Final residual = 1.11717e-07, No Iterations 5
linear solve U 45047
[OGL LOG] init_preconditioner : 0 ms
[OGL LOG] solve : 27 ms
ILUcudaGKOCG:  Solving for p, Initial residual = 0.00235006, Final residual = 9.60003e-07, No Iterations 36
linear solve p 29183
time step continuity errors : sum local = 6.2643e-07, global = -1.51348e-20, cumulative = 1.35816e-21
[OGL LOG] init_preconditioner : 0 ms
[OGL LOG] solve : 28 ms
ILUcudaGKOCG:  Solving for p, Initial residual = 0.00177271, Final residual = 8.90301e-07, No Iterations 35
linear solve p 30158
time step continuity errors : sum local = 6.26247e-07, global = -8.22166e-20, cumulative = -8.08584e-20
ExecutionTime = 3.34 s  ClockTime = 3 s

Time = 0.025

Courant Number mean: 0.190644 max: 0.922414
DILUPBiCGStab:  Solving for Ux, Initial residual = 2.09921e-05, Final residual = 7.74305e-09, No Iterations 5
DILUPBiCGStab:  Solving for Uy, Initial residual = 5.33343e-05, Final residual = 1.96989e-08, No Iterations 5
DILUPBiCGStab:  Solving for Uz, Initial residual = 0.000157206, Final residual = 7.73171e-08, No Iterations 5
linear solve U 45800
[OGL LOG] init_preconditioner : 0 ms
[OGL LOG] solve : 27 ms
ILUcudaGKOCG:  Solving for p, Initial residual = 0.00149733, Final residual = 9.71569e-07, No Iterations 36
linear solve p 29279
time step continuity errors : sum local = 6.26425e-07, global = 5.72026e-20, cumulative = -2.36558e-20
[OGL LOG] init_preconditioner : 0 ms
[OGL LOG] solve : 26 ms
ILUcudaGKOCG:  Solving for p, Initial residual = 0.00112885, Final residual = 8.60143e-07, No Iterations 35
linear solve p 28487
time step continuity errors : sum local = 6.26225e-07, global = 4.29477e-20, cumulative = 1.9292e-20
ExecutionTime = 3.48 s  ClockTime = 3 s

End

