/*---------------------------------------------------------------------------*\
  =========                 |
  \\      /  F ield         | OpenFOAM: The Open Source CFD Toolbox
   \\    /   O peration     | Website:  https://openfoam.org
    \\  /    A nd           | Version:  8
     \\/     M anipulation  |
\*---------------------------------------------------------------------------*/
Build  : 8-ef60d22ea792
Exec   : icoFoam
Date   : Sep 11 2021
Time   : 14:40:54
Host   : "uc2n513.localdomain"
PID    : 231961
I/O    : uncollated
Case   : /pfs/data5/home/kit/scc/nq7776/data/code/OBR/lidDrivenCavity3D/Variation_init/100/Variation_mesh/35/Variation_matrix_solver/BiCGStab_BJ_CUDA/1631364051
nProcs : 1
sigFpe : Enabling floating point exception trapping (FOAM_SIGFPE).
fileModificationChecking : Monitoring run-time modified files using timeStampMaster (fileModificationSkew 10)
allowSystemOperations : Allowing user-supplied system call operations

// * * * * * * * * * * * * * * * * * * * * * * * * * * * * * * * * * * * * * //
Create time

Create mesh for time = 0

Reading transportProperties

Reading field p

Reading field U

Reading/calculating face flux field phi


Starting time loop

Time = 0.00285714

Courant Number mean: 0.190911 max: 0.908567
DILUPBiCGStab:  Solving for Ux, Initial residual = 0.0505974, Final residual = 1.07894e-06, No Iterations 5
DILUPBiCGStab:  Solving for Uy, Initial residual = 0.0886223, Final residual = 3.41025e-06, No Iterations 5
DILUPBiCGStab:  Solving for Uz, Initial residual = 0.109411, Final residual = 1.20546e-05, No Iterations 5
linear solve U 32561
[OGL LOG] init_host_sparsity_pattern : 11 ms
[OGL LOG] matrix not stored update host matrix
[OGL LOG] update_host_mtx : 6 ms
[OGL LOG] matrix is not yet sorted, compute sorting idxs
[OGL LOG] compute_sort : 318 ms
[OGL LOG] matrix is not yet sorted, sorting host matrix
[OGL LOG] sort_host_mtx_sparsity_pattern : 7 ms
[OGL LOG] sort_host_mtx : 4 ms
[OGL LOG] init_preconditioner : 4 ms
[OGL LOG] solve : 53 ms
BJcudaGKOBiCGStab:  Solving for p, Initial residual = 0.486126, Final residual = 3.34251e-07, No Iterations 192
linear solve p 1142542
time step continuity errors : sum local = 2.08845e-09, global = 7.32684e-20, cumulative = 7.32684e-20
[OGL LOG] init_preconditioner : 0 ms
[OGL LOG] solve : 52 ms
BJcudaGKOBiCGStab:  Solving for p, Initial residual = 0.248641, Final residual = 9.47146e-07, No Iterations 189
linear solve p 53330
time step continuity errors : sum local = 2.54674e-09, global = 4.36945e-21, cumulative = 7.76379e-20
ExecutionTime = 1.46 s  ClockTime = 2 s

Time = 0.00571429

Courant Number mean: 0.190314 max: 0.910887
DILUPBiCGStab:  Solving for Ux, Initial residual = 0.00661143, Final residual = 3.58795e-06, No Iterations 5
DILUPBiCGStab:  Solving for Uy, Initial residual = 0.013543, Final residual = 4.87545e-06, No Iterations 5
DILUPBiCGStab:  Solving for Uz, Initial residual = 0.0308771, Final residual = 1.20609e-05, No Iterations 5
linear solve U 28840
[OGL LOG] init_preconditioner : 0 ms
[OGL LOG] solve : 52 ms
BJcudaGKOBiCGStab:  Solving for p, Initial residual = 0.200796, Final residual = 5.22099e-07, No Iterations 190
linear solve p 53494
time step continuity errors : sum local = 4.94474e-07, global = -7.01384e-20, cumulative = 7.49947e-21
[OGL LOG] init_preconditioner : 0 ms
[OGL LOG] solve : 49 ms
BJcudaGKOBiCGStab:  Solving for p, Initial residual = 0.141542, Final residual = 6.55995e-07, No Iterations 180
linear solve p 50821
time step continuity errors : sum local = 4.2667e-07, global = -8.64971e-20, cumulative = -7.89976e-20
ExecutionTime = 1.61 s  ClockTime = 2 s

Time = 0.00857143

Courant Number mean: 0.190208 max: 0.910338
DILUPBiCGStab:  Solving for Ux, Initial residual = 0.00191669, Final residual = 9.78318e-07, No Iterations 5
DILUPBiCGStab:  Solving for Uy, Initial residual = 0.00463112, Final residual = 1.82904e-06, No Iterations 5
DILUPBiCGStab:  Solving for Uz, Initial residual = 0.0123564, Final residual = 2.98016e-06, No Iterations 5
linear solve U 28952
[OGL LOG] init_preconditioner : 0 ms
[OGL LOG] solve : 53 ms
BJcudaGKOBiCGStab:  Solving for p, Initial residual = 0.0916178, Final residual = 7.43209e-07, No Iterations 174
linear solve p 54211
time step continuity errors : sum local = 4.09019e-07, global = 1.19989e-19, cumulative = 4.09911e-20
[OGL LOG] init_preconditioner : 0 ms
[OGL LOG] solve : 48 ms
BJcudaGKOBiCGStab:  Solving for p, Initial residual = 0.065812, Final residual = 6.20196e-07, No Iterations 176
linear solve p 49955
time step continuity errors : sum local = 4.23491e-07, global = -7.23399e-20, cumulative = -3.13488e-20
ExecutionTime = 1.77 s  ClockTime = 2 s

Time = 0.0114286

Courant Number mean: 0.190301 max: 0.911286
DILUPBiCGStab:  Solving for Ux, Initial residual = 0.000755356, Final residual = 2.05191e-07, No Iterations 5
DILUPBiCGStab:  Solving for Uy, Initial residual = 0.00183573, Final residual = 3.97116e-07, No Iterations 5
DILUPBiCGStab:  Solving for Uz, Initial residual = 0.00488937, Final residual = 1.29345e-06, No Iterations 5
linear solve U 29111
[OGL LOG] init_preconditioner : 0 ms
[OGL LOG] solve : 47 ms
BJcudaGKOBiCGStab:  Solving for p, Initial residual = 0.0479651, Final residual = 2.60354e-07, No Iterations 170
linear solve p 48462
time step continuity errors : sum local = 4.26762e-07, global = -3.21501e-20, cumulative = -6.34989e-20
[OGL LOG] init_preconditioner : 0 ms
[OGL LOG] solve : 43 ms
BJcudaGKOBiCGStab:  Solving for p, Initial residual = 0.0341533, Final residual = 9.68106e-07, No Iterations 156
linear solve p 44492
time step continuity errors : sum local = 4.23784e-07, global = -3.68391e-21, cumulative = -6.71828e-20
ExecutionTime = 1.91 s  ClockTime = 2 s

Time = 0.0142857

Courant Number mean: 0.19029 max: 0.911194
DILUPBiCGStab:  Solving for Ux, Initial residual = 0.00035646, Final residual = 7.71258e-08, No Iterations 5
DILUPBiCGStab:  Solving for Uy, Initial residual = 0.000882083, Final residual = 1.59618e-07, No Iterations 5
DILUPBiCGStab:  Solving for Uz, Initial residual = 0.00225019, Final residual = 4.4241e-07, No Iterations 5
linear solve U 28902
[OGL LOG] init_preconditioner : 0 ms
[OGL LOG] solve : 43 ms
BJcudaGKOBiCGStab:  Solving for p, Initial residual = 0.0253868, Final residual = 7.64581e-07, No Iterations 157
linear solve p 44555
time step continuity errors : sum local = 4.22009e-07, global = -6.7043e-20, cumulative = -1.34226e-19
[OGL LOG] init_preconditioner : 0 ms
[OGL LOG] solve : 45 ms
BJcudaGKOBiCGStab:  Solving for p, Initial residual = 0.0177951, Final residual = 8.00539e-07, No Iterations 162
linear solve p 46853
time step continuity errors : sum local = 4.22911e-07, global = -1.11877e-19, cumulative = -2.46103e-19
ExecutionTime = 2.06 s  ClockTime = 2 s

Time = 0.0171429

Courant Number mean: 0.190299 max: 0.911311
DILUPBiCGStab:  Solving for Ux, Initial residual = 0.00019039, Final residual = 4.60118e-08, No Iterations 5
DILUPBiCGStab:  Solving for Uy, Initial residual = 0.0004532, Final residual = 2.90081e-08, No Iterations 5
DILUPBiCGStab:  Solving for Uz, Initial residual = 0.00122595, Final residual = 2.54296e-07, No Iterations 5
linear solve U 28994
[OGL LOG] init_preconditioner : 0 ms
[OGL LOG] solve : 19 ms
BJcudaGKOBiCGStab:  Solving for p, Initial residual = 0.0139448, Final residual = 8.61656e-07, No Iterations 67
linear solve p 20538
time step continuity errors : sum local = 4.24735e-07, global = -5.93913e-20, cumulative = -3.05494e-19
[OGL LOG] init_preconditioner : 0 ms
[OGL LOG] solve : 19 ms
BJcudaGKOBiCGStab:  Solving for p, Initial residual = 0.0097593, Final residual = 9.447e-07, No Iterations 69
linear solve p 21039
time step continuity errors : sum local = 4.23596e-07, global = 1.13363e-19, cumulative = -1.92131e-19
ExecutionTime = 2.14 s  ClockTime = 2 s

Time = 0.02

Courant Number mean: 0.190298 max: 0.911278
DILUPBiCGStab:  Solving for Ux, Initial residual = 0.000106041, Final residual = 1.59257e-08, No Iterations 5
DILUPBiCGStab:  Solving for Uy, Initial residual = 0.000242931, Final residual = 2.93037e-08, No Iterations 5
DILUPBiCGStab:  Solving for Uz, Initial residual = 0.000700777, Final residual = 1.2992e-07, No Iterations 5
linear solve U 28934
[OGL LOG] init_preconditioner : 0 ms
[OGL LOG] solve : 19 ms
BJcudaGKOBiCGStab:  Solving for p, Initial residual = 0.00780709, Final residual = 9.84795e-07, No Iterations 68
linear solve p 20765
time step continuity errors : sum local = 4.23689e-07, global = 4.37774e-20, cumulative = -1.48353e-19
[OGL LOG] init_preconditioner : 0 ms
[OGL LOG] solve : 18 ms
BJcudaGKOBiCGStab:  Solving for p, Initial residual = 0.00545128, Final residual = 7.29737e-07, No Iterations 65
linear solve p 19931
time step continuity errors : sum local = 4.22641e-07, global = 5.20828e-22, cumulative = -1.47832e-19
ExecutionTime = 2.23 s  ClockTime = 3 s

Time = 0.0228571

Courant Number mean: 0.190301 max: 0.911306
DILUPBiCGStab:  Solving for Ux, Initial residual = 6.19469e-05, Final residual = 1.00033e-08, No Iterations 5
DILUPBiCGStab:  Solving for Uy, Initial residual = 0.000135724, Final residual = 2.18561e-08, No Iterations 5
DILUPBiCGStab:  Solving for Uz, Initial residual = 0.000424167, Final residual = 1.00944e-07, No Iterations 5
linear solve U 28948
[OGL LOG] init_preconditioner : 0 ms
[OGL LOG] solve : 18 ms
BJcudaGKOBiCGStab:  Solving for p, Initial residual = 0.00444746, Final residual = 6.3721e-07, No Iterations 64
linear solve p 19651
time step continuity errors : sum local = 4.2375e-07, global = -7.95816e-20, cumulative = -2.27414e-19
[OGL LOG] init_preconditioner : 0 ms
[OGL LOG] solve : 18 ms
BJcudaGKOBiCGStab:  Solving for p, Initial residual = 0.00312062, Final residual = 6.57681e-07, No Iterations 64
linear solve p 19690
time step continuity errors : sum local = 4.23066e-07, global = -1.44668e-20, cumulative = -2.41881e-19
ExecutionTime = 2.32 s  ClockTime = 3 s

Time = 0.0257143

Courant Number mean: 0.190303 max: 0.911295
DILUPBiCGStab:  Solving for Ux, Initial residual = 3.67809e-05, Final residual = 6.22334e-09, No Iterations 5
DILUPBiCGStab:  Solving for Uy, Initial residual = 7.74267e-05, Final residual = 1.60411e-08, No Iterations 5
DILUPBiCGStab:  Solving for Uz, Initial residual = 0.000284353, Final residual = 6.84633e-08, No Iterations 5
linear solve U 28842
[OGL LOG] init_preconditioner : 0 ms
[OGL LOG] solve : 15 ms
BJcudaGKOBiCGStab:  Solving for p, Initial residual = 0.00255955, Final residual = 9.98869e-07, No Iterations 53
linear solve p 16549
time step continuity errors : sum local = 4.23412e-07, global = -1.52586e-19, cumulative = -3.94467e-19
[OGL LOG] init_preconditioner : 0 ms
[OGL LOG] solve : 16 ms
BJcudaGKOBiCGStab:  Solving for p, Initial residual = 0.00180451, Final residual = 6.96156e-07, No Iterations 55
linear solve p 17210
time step continuity errors : sum local = 4.22755e-07, global = 1.31827e-19, cumulative = -2.62641e-19
ExecutionTime = 2.4 s  ClockTime = 3 s

Time = 0.0285714

Courant Number mean: 0.190305 max: 0.911303
DILUPBiCGStab:  Solving for Ux, Initial residual = 2.30261e-05, Final residual = 4.5165e-09, No Iterations 5
DILUPBiCGStab:  Solving for Uy, Initial residual = 4.6356e-05, Final residual = 9.1235e-09, No Iterations 5
DILUPBiCGStab:  Solving for Uz, Initial residual = 0.000182586, Final residual = 4.71975e-08, No Iterations 5
linear solve U 28915
[OGL LOG] init_preconditioner : 0 ms
[OGL LOG] solve : 17 ms
BJcudaGKOBiCGStab:  Solving for p, Initial residual = 0.00148289, Final residual = 4.41864e-07, No Iterations 61
linear solve p 18837
time step continuity errors : sum local = 4.23208e-07, global = 1.17171e-19, cumulative = -1.45469e-19
[OGL LOG] init_preconditioner : 0 ms
[OGL LOG] solve : 16 ms
BJcudaGKOBiCGStab:  Solving for p, Initial residual = 0.00105114, Final residual = 9.89809e-07, No Iterations 56
linear solve p 17567
time step continuity errors : sum local = 4.23394e-07, global = -8.20717e-20, cumulative = -2.27541e-19
ExecutionTime = 2.49 s  ClockTime = 3 s

End

