/*---------------------------------------------------------------------------*\
  =========                 |
  \\      /  F ield         | OpenFOAM: The Open Source CFD Toolbox
   \\    /   O peration     | Website:  https://openfoam.org
    \\  /    A nd           | Version:  8
     \\/     M anipulation  |
\*---------------------------------------------------------------------------*/
Build  : 8-ef60d22ea792
Exec   : icoFoam
Date   : Sep 11 2021
Time   : 14:53:45
Host   : "uc2n442.localdomain"
PID    : 3723605
I/O    : uncollated
Case   : /pfs/data5/home/kit/scc/nq7776/data/code/OBR/lidDrivenCavity3D/Variation_init/100/Variation_mesh/10/Variation_matrix_solver/CG_DIC_Serial/1631364824
nProcs : 1
sigFpe : Enabling floating point exception trapping (FOAM_SIGFPE).
fileModificationChecking : Monitoring run-time modified files using timeStampMaster (fileModificationSkew 10)
allowSystemOperations : Allowing user-supplied system call operations

// * * * * * * * * * * * * * * * * * * * * * * * * * * * * * * * * * * * * * //
Create time

Create mesh for time = 0

Reading transportProperties

Reading field p

Reading field U

Reading/calculating face flux field phi


Starting time loop

Time = 0.01

Courant Number mean: 0.184879 max: 0.722295
DILUPBiCGStab:  Solving for Ux, Initial residual = 0.138471, Final residual = 2.65068e-09, No Iterations 5
DILUPBiCGStab:  Solving for Uy, Initial residual = 0.150118, Final residual = 5.88061e-10, No Iterations 5
DILUPBiCGStab:  Solving for Uz, Initial residual = 0.278898, Final residual = 3.06847e-09, No Iterations 5
linear solve U 745
DICPCG:  Solving for p, Initial residual = 0.615468, Final residual = 6.86408e-07, No Iterations 26
linear solve p 476
time step continuity errors : sum local = 2.11947e-08, global = 6.14475e-19, cumulative = 6.14475e-19
DICPCG:  Solving for p, Initial residual = 0.309181, Final residual = 5.19835e-07, No Iterations 26
linear solve p 439
time step continuity errors : sum local = 9.08166e-09, global = 4.58434e-19, cumulative = 1.07291e-18
ExecutionTime = 0.04 s  ClockTime = 0 s

Time = 0.02

Courant Number mean: 0.181259 max: 0.69519
DILUPBiCGStab:  Solving for Ux, Initial residual = 0.0298072, Final residual = 1.18556e-09, No Iterations 5
DILUPBiCGStab:  Solving for Uy, Initial residual = 0.0402524, Final residual = 4.76422e-09, No Iterations 5
DILUPBiCGStab:  Solving for Uz, Initial residual = 0.0940018, Final residual = 1.11871e-09, No Iterations 5
linear solve U 575
DICPCG:  Solving for p, Initial residual = 0.144605, Final residual = 7.62015e-07, No Iterations 25
linear solve p 407
time step continuity errors : sum local = 1.48299e-08, global = -1.39774e-19, cumulative = 9.33135e-19
DICPCG:  Solving for p, Initial residual = 0.0646489, Final residual = 2.84756e-07, No Iterations 25
linear solve p 410
time step continuity errors : sum local = 5.84485e-09, global = 1.91975e-19, cumulative = 1.12511e-18
ExecutionTime = 0.05 s  ClockTime = 0 s

Time = 0.03

Courant Number mean: 0.179525 max: 0.686067
DILUPBiCGStab:  Solving for Ux, Initial residual = 0.00445727, Final residual = 1.12689e-10, No Iterations 5
DILUPBiCGStab:  Solving for Uy, Initial residual = 0.00704994, Final residual = 7.87577e-10, No Iterations 5
DILUPBiCGStab:  Solving for Uz, Initial residual = 0.0284109, Final residual = 1.45623e-09, No Iterations 5
linear solve U 588
DICPCG:  Solving for p, Initial residual = 0.0147563, Final residual = 4.5313e-07, No Iterations 23
linear solve p 391
time step continuity errors : sum local = 9.10152e-09, global = -1.76309e-19, cumulative = 9.48802e-19
DICPCG:  Solving for p, Initial residual = 0.00674614, Final residual = 7.4762e-07, No Iterations 22
linear solve p 367
time step continuity errors : sum local = 1.50254e-08, global = 1.77991e-19, cumulative = 1.12679e-18
ExecutionTime = 0.05 s  ClockTime = 0 s

Time = 0.04

Courant Number mean: 0.178874 max: 0.68312
DILUPBiCGStab:  Solving for Ux, Initial residual = 0.00128789, Final residual = 3.60287e-11, No Iterations 5
DILUPBiCGStab:  Solving for Uy, Initial residual = 0.00194435, Final residual = 1.99818e-09, No Iterations 5
DILUPBiCGStab:  Solving for Uz, Initial residual = 0.00913378, Final residual = 3.83027e-10, No Iterations 5
linear solve U 581
DICPCG:  Solving for p, Initial residual = 0.00288325, Final residual = 6.31379e-07, No Iterations 21
linear solve p 349
time step continuity errors : sum local = 1.27011e-08, global = -2.51223e-19, cumulative = 8.7557e-19
DICPCG:  Solving for p, Initial residual = 0.00179752, Final residual = 3.43577e-07, No Iterations 21
linear solve p 357
time step continuity errors : sum local = 6.9119e-09, global = -4.60525e-19, cumulative = 4.15045e-19
ExecutionTime = 0.05 s  ClockTime = 0 s

Time = 0.05

Courant Number mean: 0.178608 max: 0.682129
DILUPBiCGStab:  Solving for Ux, Initial residual = 0.000452232, Final residual = 9.78748e-12, No Iterations 5
DILUPBiCGStab:  Solving for Uy, Initial residual = 0.000695716, Final residual = 3.84639e-09, No Iterations 5
DILUPBiCGStab:  Solving for Uz, Initial residual = 0.00435394, Final residual = 1.51979e-10, No Iterations 5
linear solve U 567
DICPCG:  Solving for p, Initial residual = 0.00105457, Final residual = 5.9487e-07, No Iterations 20
linear solve p 333
time step continuity errors : sum local = 1.19722e-08, global = -7.46091e-19, cumulative = -3.31046e-19
DICPCG:  Solving for p, Initial residual = 0.000626109, Final residual = 9.36406e-07, No Iterations 19
linear solve p 317
time step continuity errors : sum local = 1.88662e-08, global = 1.42231e-19, cumulative = -1.88815e-19
ExecutionTime = 0.05 s  ClockTime = 0 s

Time = 0.06

Courant Number mean: 0.178489 max: 0.681723
DILUPBiCGStab:  Solving for Ux, Initial residual = 0.000193871, Final residual = 3.42024e-12, No Iterations 5
DILUPBiCGStab:  Solving for Uy, Initial residual = 0.000279419, Final residual = 8.34683e-11, No Iterations 5
DILUPBiCGStab:  Solving for Uz, Initial residual = 0.00217756, Final residual = 5.78681e-11, No Iterations 5
linear solve U 573
DICPCG:  Solving for p, Initial residual = 0.00042436, Final residual = 6.68017e-07, No Iterations 19
linear solve p 322
time step continuity errors : sum local = 1.34761e-08, global = 3.86165e-19, cumulative = 1.9735e-19
DICPCG:  Solving for p, Initial residual = 0.000263817, Final residual = 9.52003e-07, No Iterations 18
linear solve p 303
time step continuity errors : sum local = 1.92422e-08, global = 3.588e-19, cumulative = 5.5615e-19
ExecutionTime = 0.05 s  ClockTime = 0 s

Time = 0.07

Courant Number mean: 0.178434 max: 0.681555
DILUPBiCGStab:  Solving for Ux, Initial residual = 9.15787e-05, Final residual = 1.03466e-12, No Iterations 5
DILUPBiCGStab:  Solving for Uy, Initial residual = 0.000124914, Final residual = 1.94427e-10, No Iterations 5
DILUPBiCGStab:  Solving for Uz, Initial residual = 0.00112203, Final residual = 2.52335e-11, No Iterations 5
linear solve U 577
DICPCG:  Solving for p, Initial residual = 0.000192331, Final residual = 6.14741e-07, No Iterations 18
linear solve p 308
time step continuity errors : sum local = 1.24531e-08, global = -4.4998e-19, cumulative = 1.06171e-19
DICPCG:  Solving for p, Initial residual = 0.000117539, Final residual = 6.16267e-07, No Iterations 17
linear solve p 294
time step continuity errors : sum local = 1.2502e-08, global = 4.19675e-20, cumulative = 1.48138e-19
ExecutionTime = 0.06 s  ClockTime = 0 s

Time = 0.08

Courant Number mean: 0.178408 max: 0.68148
DILUPBiCGStab:  Solving for Ux, Initial residual = 4.53412e-05, Final residual = 3.51936e-13, No Iterations 5
DILUPBiCGStab:  Solving for Uy, Initial residual = 5.92458e-05, Final residual = 7.25565e-12, No Iterations 5
DILUPBiCGStab:  Solving for Uz, Initial residual = 0.00058795, Final residual = 1.21257e-11, No Iterations 5
linear solve U 570
DICPCG:  Solving for p, Initial residual = 9.35728e-05, Final residual = 8.99963e-07, No Iterations 8
linear solve p 149
time step continuity errors : sum local = 2.80188e-08, global = -4.00315e-19, cumulative = -2.52176e-19
DICPCG:  Solving for p, Initial residual = 5.79885e-05, Final residual = 4.54297e-07, No Iterations 8
linear solve p 159
time step continuity errors : sum local = 1.30893e-08, global = 7.97805e-20, cumulative = -1.72396e-19
ExecutionTime = 0.06 s  ClockTime = 0 s

Time = 0.09

Courant Number mean: 0.178395 max: 0.681445
DILUPBiCGStab:  Solving for Ux, Initial residual = 2.29516e-05, Final residual = 1.27932e-13, No Iterations 5
DILUPBiCGStab:  Solving for Uy, Initial residual = 2.89848e-05, Final residual = 1.96664e-12, No Iterations 5
DILUPBiCGStab:  Solving for Uz, Initial residual = 0.000307338, Final residual = 5.68593e-12, No Iterations 5
linear solve U 540
DICPCG:  Solving for p, Initial residual = 4.63886e-05, Final residual = 5.37654e-07, No Iterations 8
linear solve p 158
time step continuity errors : sum local = 1.7678e-08, global = -4.29274e-19, cumulative = -6.01669e-19
DICPCG:  Solving for p, Initial residual = 2.84756e-05, Final residual = 6.13927e-07, No Iterations 7
linear solve p 144
time step continuity errors : sum local = 1.6918e-08, global = 1.86025e-19, cumulative = -4.15645e-19
ExecutionTime = 0.06 s  ClockTime = 0 s

Time = 0.1

Courant Number mean: 0.178389 max: 0.681429
DILUPBiCGStab:  Solving for Ux, Initial residual = 1.1648e-05, Final residual = 5.16087e-14, No Iterations 5
DILUPBiCGStab:  Solving for Uy, Initial residual = 1.4599e-05, Final residual = 8.92935e-13, No Iterations 5
DILUPBiCGStab:  Solving for Uz, Initial residual = 0.000161947, Final residual = 3.03435e-12, No Iterations 5
linear solve U 589
DICPCG:  Solving for p, Initial residual = 2.32896e-05, Final residual = 7.43361e-07, No Iterations 7
linear solve p 140
time step continuity errors : sum local = 2.15488e-08, global = -5.31331e-19, cumulative = -9.46976e-19
DICPCG:  Solving for p, Initial residual = 1.44809e-05, Final residual = 7.74962e-07, No Iterations 6
linear solve p 132
time step continuity errors : sum local = 2.06245e-08, global = 4.04283e-19, cumulative = -5.42692e-19
ExecutionTime = 0.06 s  ClockTime = 0 s

End

