/*---------------------------------------------------------------------------*\
  =========                 |
  \\      /  F ield         | OpenFOAM: The Open Source CFD Toolbox
   \\    /   O peration     | Website:  https://openfoam.org
    \\  /    A nd           | Version:  8
     \\/     M anipulation  |
\*---------------------------------------------------------------------------*/
Build  : 8-ef60d22ea792
Exec   : icoFoam
Date   : Sep 11 2021
Time   : 14:44:24
Host   : "uc2n442.localdomain"
PID    : 3722887
I/O    : uncollated
Case   : /pfs/data5/home/kit/scc/nq7776/data/code/OBR/lidDrivenCavity3D/Variation_init/100/Variation_mesh/85/Variation_matrix_solver/CG_DIC_Serial/1631364243
nProcs : 1
sigFpe : Enabling floating point exception trapping (FOAM_SIGFPE).
fileModificationChecking : Monitoring run-time modified files using timeStampMaster (fileModificationSkew 10)
allowSystemOperations : Allowing user-supplied system call operations

// * * * * * * * * * * * * * * * * * * * * * * * * * * * * * * * * * * * * * //
Create time

Create mesh for time = 0

Reading transportProperties

Reading field p

Reading field U

Reading/calculating face flux field phi


Starting time loop

Time = 0.00117647

Courant Number mean: 0.19128 max: 0.963498
DILUPBiCGStab:  Solving for Ux, Initial residual = 0.0801002, Final residual = 3.10838e-05, No Iterations 5
DILUPBiCGStab:  Solving for Uy, Initial residual = 0.15471, Final residual = 7.99938e-05, No Iterations 5
DILUPBiCGStab:  Solving for Uz, Initial residual = 0.204787, Final residual = 0.000190775, No Iterations 5
linear solve U 618546
DICPCG:  Solving for p, Initial residual = 0.639229, Final residual = 8.94742e-07, No Iterations 221
linear solve p 3152068
time step continuity errors : sum local = 7.12788e-10, global = 1.32573e-20, cumulative = 1.32573e-20
DICPCG:  Solving for p, Initial residual = 0.354968, Final residual = 8.40223e-07, No Iterations 221
linear solve p 3168423
time step continuity errors : sum local = 5.95674e-10, global = 2.2277e-20, cumulative = 3.55343e-20
ExecutionTime = 10 s  ClockTime = 10 s

Time = 0.00235294

Courant Number mean: 0.191423 max: 0.964029
DILUPBiCGStab:  Solving for Ux, Initial residual = 0.00592858, Final residual = 2.11096e-05, No Iterations 5
DILUPBiCGStab:  Solving for Uy, Initial residual = 0.013936, Final residual = 6.02545e-05, No Iterations 5
DILUPBiCGStab:  Solving for Uz, Initial residual = 0.0246996, Final residual = 0.000175785, No Iterations 5
linear solve U 574357
DICPCG:  Solving for p, Initial residual = 0.425046, Final residual = 9.15128e-07, No Iterations 223
linear solve p 3173879
time step continuity errors : sum local = 5.27984e-10, global = 6.13275e-22, cumulative = 3.61475e-20
DICPCG:  Solving for p, Initial residual = 0.285914, Final residual = 8.33458e-07, No Iterations 223
linear solve p 3165982
time step continuity errors : sum local = 4.52905e-10, global = -8.43537e-23, cumulative = 3.60632e-20
ExecutionTime = 17.24 s  ClockTime = 17 s

Time = 0.00352941

Courant Number mean: 0.19141 max: 0.963513
DILUPBiCGStab:  Solving for Ux, Initial residual = 0.00217465, Final residual = 1.17801e-05, No Iterations 5
DILUPBiCGStab:  Solving for Uy, Initial residual = 0.00584954, Final residual = 3.04268e-05, No Iterations 5
DILUPBiCGStab:  Solving for Uz, Initial residual = 0.0146173, Final residual = 0.000111319, No Iterations 5
linear solve U 569973
DICPCG:  Solving for p, Initial residual = 0.285943, Final residual = 9.00991e-07, No Iterations 222
linear solve p 3175463
time step continuity errors : sum local = 4.59619e-10, global = 1.01371e-20, cumulative = 4.62003e-20
DICPCG:  Solving for p, Initial residual = 0.198171, Final residual = 7.93117e-07, No Iterations 222
linear solve p 3149701
time step continuity errors : sum local = 3.98367e-10, global = -3.29085e-20, cumulative = 1.32918e-20
ExecutionTime = 24.45 s  ClockTime = 25 s

Time = 0.00470588

Courant Number mean: 0.191413 max: 0.963513
DILUPBiCGStab:  Solving for Ux, Initial residual = 0.00132461, Final residual = 4.81607e-06, No Iterations 5
DILUPBiCGStab:  Solving for Uy, Initial residual = 0.00353107, Final residual = 1.66518e-05, No Iterations 5
DILUPBiCGStab:  Solving for Uz, Initial residual = 0.00929629, Final residual = 6.9906e-05, No Iterations 5
linear solve U 564820
DICPCG:  Solving for p, Initial residual = 0.211301, Final residual = 9.43025e-07, No Iterations 220
linear solve p 3180675
time step continuity errors : sum local = 4.29285e-10, global = -7.98018e-21, cumulative = 5.3116e-21
DICPCG:  Solving for p, Initial residual = 0.153079, Final residual = 8.72206e-07, No Iterations 220
linear solve p 3144921
time step continuity errors : sum local = 3.91666e-10, global = -1.97712e-20, cumulative = -1.44596e-20
ExecutionTime = 31.66 s  ClockTime = 32 s

Time = 0.00588235

Courant Number mean: 0.191429 max: 0.963457
DILUPBiCGStab:  Solving for Ux, Initial residual = 0.000869829, Final residual = 3.81742e-06, No Iterations 5
DILUPBiCGStab:  Solving for Uy, Initial residual = 0.00226523, Final residual = 9.96125e-06, No Iterations 5
DILUPBiCGStab:  Solving for Uz, Initial residual = 0.0070081, Final residual = 5.76983e-05, No Iterations 5
linear solve U 565705
DICPCG:  Solving for p, Initial residual = 0.153476, Final residual = 8.11568e-07, No Iterations 219
linear solve p 3138803
time step continuity errors : sum local = 3.57359e-10, global = -1.98341e-21, cumulative = -1.6443e-20
DICPCG:  Solving for p, Initial residual = 0.114955, Final residual = 9.07026e-07, No Iterations 218
linear solve p 3125634
time step continuity errors : sum local = 3.97094e-10, global = -3.71238e-20, cumulative = -5.35668e-20
ExecutionTime = 38.8 s  ClockTime = 39 s

Time = 0.00705882

Courant Number mean: 0.191444 max: 0.963475
DILUPBiCGStab:  Solving for Ux, Initial residual = 0.000604672, Final residual = 2.21896e-06, No Iterations 5
DILUPBiCGStab:  Solving for Uy, Initial residual = 0.00154539, Final residual = 6.55397e-06, No Iterations 5
DILUPBiCGStab:  Solving for Uz, Initial residual = 0.00501611, Final residual = 3.50437e-05, No Iterations 5
linear solve U 574379
DICPCG:  Solving for p, Initial residual = 0.118892, Final residual = 9.82778e-07, No Iterations 217
linear solve p 3088564
time step continuity errors : sum local = 4.14076e-10, global = -9.46966e-21, cumulative = -6.30364e-20
DICPCG:  Solving for p, Initial residual = 0.091799, Final residual = 8.5857e-07, No Iterations 217
linear solve p 3117811
time step continuity errors : sum local = 3.60297e-10, global = 6.78368e-21, cumulative = -5.62527e-20
ExecutionTime = 45.91 s  ClockTime = 46 s

Time = 0.00823529

Courant Number mean: 0.191456 max: 0.963473
DILUPBiCGStab:  Solving for Ux, Initial residual = 0.000439871, Final residual = 1.83287e-06, No Iterations 5
DILUPBiCGStab:  Solving for Uy, Initial residual = 0.0011034, Final residual = 5.58442e-06, No Iterations 5
DILUPBiCGStab:  Solving for Uz, Initial residual = 0.00387181, Final residual = 2.9998e-05, No Iterations 5
linear solve U 569480
DICPCG:  Solving for p, Initial residual = 0.0929397, Final residual = 8.95118e-07, No Iterations 215
linear solve p 3114369
time step continuity errors : sum local = 3.7221e-10, global = 7.84582e-21, cumulative = -4.84069e-20
DICPCG:  Solving for p, Initial residual = 0.0731218, Final residual = 9.17569e-07, No Iterations 214
linear solve p 3063057
time step continuity errors : sum local = 3.81067e-10, global = -3.04288e-20, cumulative = -7.88357e-20
ExecutionTime = 52.97 s  ClockTime = 53 s

Time = 0.00941176

Courant Number mean: 0.191468 max: 0.963471
DILUPBiCGStab:  Solving for Ux, Initial residual = 0.000331934, Final residual = 1.53028e-06, No Iterations 5
DILUPBiCGStab:  Solving for Uy, Initial residual = 0.000829624, Final residual = 3.74321e-06, No Iterations 5
DILUPBiCGStab:  Solving for Uz, Initial residual = 0.00286583, Final residual = 1.89667e-05, No Iterations 5
linear solve U 571633
DICPCG:  Solving for p, Initial residual = 0.0748711, Final residual = 9.36011e-07, No Iterations 210
linear solve p 2981946
time step continuity errors : sum local = 3.82522e-10, global = -1.66006e-21, cumulative = -8.04958e-20
DICPCG:  Solving for p, Initial residual = 0.059774, Final residual = 8.52374e-07, No Iterations 210
linear solve p 2988769
time step continuity errors : sum local = 3.47813e-10, global = 3.44278e-20, cumulative = -4.60679e-20
ExecutionTime = 59.82 s  ClockTime = 60 s

Time = 0.0105882

Courant Number mean: 0.191478 max: 0.963481
DILUPBiCGStab:  Solving for Ux, Initial residual = 0.000259169, Final residual = 1.16357e-06, No Iterations 5
DILUPBiCGStab:  Solving for Uy, Initial residual = 0.00063961, Final residual = 4.0869e-06, No Iterations 5
DILUPBiCGStab:  Solving for Uz, Initial residual = 0.00223463, Final residual = 1.59811e-05, No Iterations 5
linear solve U 574186
DICPCG:  Solving for p, Initial residual = 0.0608096, Final residual = 9.74778e-07, No Iterations 205
linear solve p 2910399
time step continuity errors : sum local = 3.9548e-10, global = -2.81511e-20, cumulative = -7.4219e-20
DICPCG:  Solving for p, Initial residual = 0.0489397, Final residual = 8.9962e-07, No Iterations 205
linear solve p 2923488
time step continuity errors : sum local = 3.64945e-10, global = -1.55718e-20, cumulative = -8.97908e-20
ExecutionTime = 66.55 s  ClockTime = 67 s

Time = 0.0117647

Courant Number mean: 0.191488 max: 0.963475
DILUPBiCGStab:  Solving for Ux, Initial residual = 0.000206741, Final residual = 1.13158e-06, No Iterations 5
DILUPBiCGStab:  Solving for Uy, Initial residual = 0.000508437, Final residual = 2.726e-06, No Iterations 5
DILUPBiCGStab:  Solving for Uz, Initial residual = 0.00169909, Final residual = 1.12776e-05, No Iterations 5
linear solve U 567004
DICPCG:  Solving for p, Initial residual = 0.0500076, Final residual = 8.33174e-07, No Iterations 191
linear solve p 2746425
time step continuity errors : sum local = 3.35378e-10, global = -1.33458e-20, cumulative = -1.03137e-19
DICPCG:  Solving for p, Initial residual = 0.0405307, Final residual = 9.04958e-07, No Iterations 190
linear solve p 2738533
time step continuity errors : sum local = 3.63976e-10, global = -1.72654e-20, cumulative = -1.20402e-19
ExecutionTime = 72.92 s  ClockTime = 73 s

End

