/*---------------------------------------------------------------------------*\
  =========                 |
  \\      /  F ield         | OpenFOAM: The Open Source CFD Toolbox
   \\    /   O peration     | Website:  https://openfoam.org
    \\  /    A nd           | Version:  8
     \\/     M anipulation  |
\*---------------------------------------------------------------------------*/
Build  : 8-ef60d22ea792
Exec   : icoFoam
Date   : Sep 11 2021
Time   : 13:38:20
Host   : "uc2n442.localdomain"
PID    : 3705672
I/O    : uncollated
Case   : /pfs/data5/home/kit/scc/nq7776/data/code/OBR/lidDrivenCavity3D/Variation_init/100/Variation_mesh/90/Variation_matrix_solver/BiCGStab_DIC_Serial/1631360264
nProcs : 1
sigFpe : Enabling floating point exception trapping (FOAM_SIGFPE).
fileModificationChecking : Monitoring run-time modified files using timeStampMaster (fileModificationSkew 10)
allowSystemOperations : Allowing user-supplied system call operations

// * * * * * * * * * * * * * * * * * * * * * * * * * * * * * * * * * * * * * //
Create time

Create mesh for time = 0

Reading transportProperties

Reading field p

Reading field U

Reading/calculating face flux field phi


Starting time loop

Time = 0.00111111

Courant Number mean: 0.191271 max: 0.964262
DILUPBiCGStab:  Solving for Ux, Initial residual = 0.0815126, Final residual = 3.69664e-05, No Iterations 5
DILUPBiCGStab:  Solving for Uy, Initial residual = 0.160779, Final residual = 9.81773e-05, No Iterations 5
DILUPBiCGStab:  Solving for Uz, Initial residual = 0.229936, Final residual = 0.000233997, No Iterations 5
linear solve U 759864
DICPBiCGStab:  Solving for p, Initial residual = 0.624561, Final residual = 9.05225e-07, No Iterations 179
linear solve p 6409358
time step continuity errors : sum local = 8.63681e-10, global = -6.81261e-21, cumulative = -6.81261e-21
DICPBiCGStab:  Solving for p, Initial residual = 0.406686, Final residual = 8.84992e-07, No Iterations 198
linear solve p 7105831
time step continuity errors : sum local = 6.38856e-10, global = -1.88982e-20, cumulative = -2.57108e-20
ExecutionTime = 17.91 s  ClockTime = 18 s

Time = 0.00222222

Courant Number mean: 0.191576 max: 0.966096
DILUPBiCGStab:  Solving for Ux, Initial residual = 0.00592339, Final residual = 4.09187e-05, No Iterations 5
DILUPBiCGStab:  Solving for Uy, Initial residual = 0.0150642, Final residual = 9.78032e-05, No Iterations 5
DILUPBiCGStab:  Solving for Uz, Initial residual = 0.0371633, Final residual = 0.000287107, No Iterations 5
linear solve U 695182
DICPBiCGStab:  Solving for p, Initial residual = 0.505789, Final residual = 5.78036e-07, No Iterations 199
linear solve p 7128654
time step continuity errors : sum local = 5.70143e-10, global = 2.0522e-21, cumulative = -2.36586e-20
DICPBiCGStab:  Solving for p, Initial residual = 0.413245, Final residual = 9.46437e-07, No Iterations 190
linear solve p 6918099
time step continuity errors : sum local = 1.10989e-09, global = 3.2724e-21, cumulative = -2.03862e-20
ExecutionTime = 33.02 s  ClockTime = 33 s

Time = 0.00333333

Courant Number mean: 0.191547 max: 0.965831
DILUPBiCGStab:  Solving for Ux, Initial residual = 0.00295611, Final residual = 1.93865e-05, No Iterations 5
DILUPBiCGStab:  Solving for Uy, Initial residual = 0.00830264, Final residual = 4.49556e-05, No Iterations 5
DILUPBiCGStab:  Solving for Uz, Initial residual = 0.023927, Final residual = 0.000207357, No Iterations 5
linear solve U 702005
DICPBiCGStab:  Solving for p, Initial residual = 0.418925, Final residual = 8.70734e-07, No Iterations 184
linear solve p 6603097
time step continuity errors : sum local = 7.95736e-10, global = 1.76056e-20, cumulative = -2.7806e-21
DICPBiCGStab:  Solving for p, Initial residual = 0.332375, Final residual = 9.29085e-07, No Iterations 179
linear solve p 6423768
time step continuity errors : sum local = 6.38837e-10, global = 1.01831e-20, cumulative = 7.40253e-21
ExecutionTime = 47.1 s  ClockTime = 47 s

Time = 0.00444444

Courant Number mean: 0.191511 max: 0.965614
DILUPBiCGStab:  Solving for Ux, Initial residual = 0.00214716, Final residual = 8.20419e-06, No Iterations 5
DILUPBiCGStab:  Solving for Uy, Initial residual = 0.00587271, Final residual = 2.3225e-05, No Iterations 5
DILUPBiCGStab:  Solving for Uz, Initial residual = 0.0164521, Final residual = 0.000121617, No Iterations 5
linear solve U 695011
DICPBiCGStab:  Solving for p, Initial residual = 0.361188, Final residual = 8.26469e-07, No Iterations 194
linear solve p 6960569
time step continuity errors : sum local = 4.35572e-10, global = -1.55392e-21, cumulative = 5.84861e-21
DICPBiCGStab:  Solving for p, Initial residual = 0.29119, Final residual = 9.15982e-07, No Iterations 194
linear solve p 6942394
time step continuity errors : sum local = 4.75272e-10, global = 1.88053e-20, cumulative = 2.4654e-20
ExecutionTime = 62.07 s  ClockTime = 62 s

Time = 0.00555556

Courant Number mean: 0.191518 max: 0.965517
DILUPBiCGStab:  Solving for Ux, Initial residual = 0.00169408, Final residual = 5.91744e-06, No Iterations 5
DILUPBiCGStab:  Solving for Uy, Initial residual = 0.00442363, Final residual = 1.36811e-05, No Iterations 5
DILUPBiCGStab:  Solving for Uz, Initial residual = 0.0133528, Final residual = 9.49016e-05, No Iterations 5
linear solve U 700242
DICPBiCGStab:  Solving for p, Initial residual = 0.30659, Final residual = 8.45187e-07, No Iterations 185
linear solve p 6634898
time step continuity errors : sum local = 4.2775e-10, global = 9.35394e-21, cumulative = 3.40079e-20
DICPBiCGStab:  Solving for p, Initial residual = 0.245971, Final residual = 9.62529e-07, No Iterations 164
linear solve p 5879356
time step continuity errors : sum local = 7.7401e-10, global = -2.66249e-20, cumulative = 7.38299e-21
ExecutionTime = 75.64 s  ClockTime = 76 s

Time = 0.00666667

Courant Number mean: 0.191517 max: 0.965551
DILUPBiCGStab:  Solving for Ux, Initial residual = 0.00138624, Final residual = 3.33856e-06, No Iterations 5
DILUPBiCGStab:  Solving for Uy, Initial residual = 0.00349209, Final residual = 8.61992e-06, No Iterations 5
DILUPBiCGStab:  Solving for Uz, Initial residual = 0.0104115, Final residual = 6.78135e-05, No Iterations 5
linear solve U 702116
DICPBiCGStab:  Solving for p, Initial residual = 0.266601, Final residual = 3.90202e-07, No Iterations 168
linear solve p 6038961
time step continuity errors : sum local = 3.07578e-10, global = 1.96723e-20, cumulative = 2.70553e-20
DICPBiCGStab:  Solving for p, Initial residual = 0.214417, Final residual = 9.51115e-07, No Iterations 158
linear solve p 5641801
time step continuity errors : sum local = 6.13465e-10, global = 9.7038e-21, cumulative = 3.67591e-20
ExecutionTime = 88.4 s  ClockTime = 88 s

Time = 0.00777778

Courant Number mean: 0.191524 max: 0.965514
DILUPBiCGStab:  Solving for Ux, Initial residual = 0.00115006, Final residual = 2.54808e-06, No Iterations 5
DILUPBiCGStab:  Solving for Uy, Initial residual = 0.00283089, Final residual = 6.49176e-06, No Iterations 5
DILUPBiCGStab:  Solving for Uz, Initial residual = 0.00849039, Final residual = 5.32708e-05, No Iterations 5
linear solve U 701621
DICPBiCGStab:  Solving for p, Initial residual = 0.230286, Final residual = 4.89531e-07, No Iterations 160
linear solve p 5727080
time step continuity errors : sum local = 2.91778e-10, global = -8.82759e-21, cumulative = 2.79315e-20
DICPBiCGStab:  Solving for p, Initial residual = 0.18527, Final residual = 8.83937e-07, No Iterations 183
linear solve p 6608339
time step continuity errors : sum local = 3.89545e-10, global = -9.56466e-21, cumulative = 1.83669e-20
ExecutionTime = 101.8 s  ClockTime = 102 s

Time = 0.00888889

Courant Number mean: 0.191529 max: 0.965517
DILUPBiCGStab:  Solving for Ux, Initial residual = 0.000963332, Final residual = 2.0225e-06, No Iterations 5
DILUPBiCGStab:  Solving for Uy, Initial residual = 0.00232754, Final residual = 4.31194e-06, No Iterations 5
DILUPBiCGStab:  Solving for Uz, Initial residual = 0.00674134, Final residual = 3.79526e-05, No Iterations 5
linear solve U 718327
DICPBiCGStab:  Solving for p, Initial residual = 0.199676, Final residual = 9.88455e-07, No Iterations 158
linear solve p 5798691
time step continuity errors : sum local = 4.65056e-10, global = -1.01756e-20, cumulative = 8.19127e-21
DICPBiCGStab:  Solving for p, Initial residual = 0.160502, Final residual = 8.14438e-07, No Iterations 172
linear solve p 6278666
time step continuity errors : sum local = 3.52592e-10, global = -9.21515e-21, cumulative = -1.02389e-21
ExecutionTime = 114.95 s  ClockTime = 115 s

Time = 0.01

Courant Number mean: 0.191535 max: 0.96552
DILUPBiCGStab:  Solving for Ux, Initial residual = 0.000812084, Final residual = 1.44543e-06, No Iterations 5
DILUPBiCGStab:  Solving for Uy, Initial residual = 0.00193491, Final residual = 4.0431e-06, No Iterations 5
DILUPBiCGStab:  Solving for Uz, Initial residual = 0.00550311, Final residual = 3.03967e-05, No Iterations 5
linear solve U 712352
DICPBiCGStab:  Solving for p, Initial residual = 0.173303, Final residual = 3.48404e-07, No Iterations 150
linear solve p 5504999
time step continuity errors : sum local = 2.82456e-10, global = 2.811e-21, cumulative = 1.78712e-21
DICPBiCGStab:  Solving for p, Initial residual = 0.13949, Final residual = 4.70233e-07, No Iterations 169
linear solve p 6180991
time step continuity errors : sum local = 2.02048e-10, global = -4.62e-21, cumulative = -2.83288e-21
ExecutionTime = 127.73 s  ClockTime = 128 s

Time = 0.0111111

Courant Number mean: 0.19154 max: 0.965506
DILUPBiCGStab:  Solving for Ux, Initial residual = 0.000687161, Final residual = 1.4358e-06, No Iterations 5
DILUPBiCGStab:  Solving for Uy, Initial residual = 0.00161589, Final residual = 2.86641e-06, No Iterations 5
DILUPBiCGStab:  Solving for Uz, Initial residual = 0.00443548, Final residual = 2.26765e-05, No Iterations 5
linear solve U 716634
DICPBiCGStab:  Solving for p, Initial residual = 0.149792, Final residual = 9.66957e-07, No Iterations 77
linear solve p 2812164
time step continuity errors : sum local = 4.08299e-10, global = -1.13764e-21, cumulative = -3.97052e-21
DICPBiCGStab:  Solving for p, Initial residual = 0.120425, Final residual = 8.43155e-07, No Iterations 72
linear solve p 2634473
time step continuity errors : sum local = 3.61641e-10, global = -2.88567e-20, cumulative = -3.28272e-20
ExecutionTime = 134.29 s  ClockTime = 134 s

End

