/*---------------------------------------------------------------------------*\
  =========                 |
  \\      /  F ield         | OpenFOAM: The Open Source CFD Toolbox
   \\    /   O peration     | Website:  https://openfoam.org
    \\  /    A nd           | Version:  8
     \\/     M anipulation  |
\*---------------------------------------------------------------------------*/
Build  : 8-ef60d22ea792
Exec   : icoFoam
Date   : Sep 11 2021
Time   : 14:53:45
Host   : "uc2n442.localdomain"
PID    : 3723670
I/O    : uncollated
Case   : /pfs/data5/home/kit/scc/nq7776/data/code/OBR/lidDrivenCavity3D/Variation_init/100/Variation_mesh/10/Variation_matrix_solver/BiCGStab_DIC_Serial/1631364825
nProcs : 1
sigFpe : Enabling floating point exception trapping (FOAM_SIGFPE).
fileModificationChecking : Monitoring run-time modified files using timeStampMaster (fileModificationSkew 10)
allowSystemOperations : Allowing user-supplied system call operations

// * * * * * * * * * * * * * * * * * * * * * * * * * * * * * * * * * * * * * //
Create time

Create mesh for time = 0

Reading transportProperties

Reading field p

Reading field U

Reading/calculating face flux field phi


Starting time loop

Time = 0.01

Courant Number mean: 0.184879 max: 0.722295
DILUPBiCGStab:  Solving for Ux, Initial residual = 0.138471, Final residual = 2.65068e-09, No Iterations 5
DILUPBiCGStab:  Solving for Uy, Initial residual = 0.150118, Final residual = 5.88061e-10, No Iterations 5
DILUPBiCGStab:  Solving for Uz, Initial residual = 0.278898, Final residual = 3.06847e-09, No Iterations 5
linear solve U 749
DICPBiCGStab:  Solving for p, Initial residual = 0.615468, Final residual = 8.75993e-07, No Iterations 17
linear solve p 564
time step continuity errors : sum local = 3.59949e-08, global = 9.77972e-19, cumulative = 9.77972e-19
DICPBiCGStab:  Solving for p, Initial residual = 0.309181, Final residual = 6.35046e-07, No Iterations 20
linear solve p 646
time step continuity errors : sum local = 1.15244e-08, global = -1.9671e-19, cumulative = 7.81262e-19
ExecutionTime = 0.04 s  ClockTime = 0 s

Time = 0.02

Courant Number mean: 0.181259 max: 0.69519
DILUPBiCGStab:  Solving for Ux, Initial residual = 0.0298073, Final residual = 1.18559e-09, No Iterations 5
DILUPBiCGStab:  Solving for Uy, Initial residual = 0.0402523, Final residual = 4.76508e-09, No Iterations 5
DILUPBiCGStab:  Solving for Uz, Initial residual = 0.094003, Final residual = 1.11391e-09, No Iterations 5
linear solve U 600
DICPBiCGStab:  Solving for p, Initial residual = 0.144606, Final residual = 3.10088e-07, No Iterations 20
linear solve p 609
time step continuity errors : sum local = 6.33357e-09, global = 5.87205e-20, cumulative = 8.39982e-19
DICPBiCGStab:  Solving for p, Initial residual = 0.0646505, Final residual = 3.513e-07, No Iterations 18
linear solve p 551
time step continuity errors : sum local = 1.43976e-08, global = 1.21296e-19, cumulative = 9.61278e-19
ExecutionTime = 0.04 s  ClockTime = 0 s

Time = 0.03

Courant Number mean: 0.179525 max: 0.686067
DILUPBiCGStab:  Solving for Ux, Initial residual = 0.00445706, Final residual = 1.12653e-10, No Iterations 5
DILUPBiCGStab:  Solving for Uy, Initial residual = 0.00705013, Final residual = 7.88028e-10, No Iterations 5
DILUPBiCGStab:  Solving for Uz, Initial residual = 0.0284051, Final residual = 1.45634e-09, No Iterations 5
linear solve U 603
DICPBiCGStab:  Solving for p, Initial residual = 0.0147553, Final residual = 4.17649e-07, No Iterations 17
linear solve p 543
time step continuity errors : sum local = 1.39963e-08, global = 4.33455e-19, cumulative = 1.39473e-18
DICPBiCGStab:  Solving for p, Initial residual = 0.00674536, Final residual = 8.93443e-07, No Iterations 16
linear solve p 493
time step continuity errors : sum local = 3.58339e-08, global = -6.0152e-19, cumulative = 7.93213e-19
ExecutionTime = 0.04 s  ClockTime = 0 s

Time = 0.04

Courant Number mean: 0.178874 max: 0.68312
DILUPBiCGStab:  Solving for Ux, Initial residual = 0.00128831, Final residual = 3.60689e-11, No Iterations 5
DILUPBiCGStab:  Solving for Uy, Initial residual = 0.00194366, Final residual = 2.03096e-09, No Iterations 5
DILUPBiCGStab:  Solving for Uz, Initial residual = 0.00914677, Final residual = 3.86781e-10, No Iterations 5
linear solve U 554
DICPBiCGStab:  Solving for p, Initial residual = 0.00288324, Final residual = 8.44199e-07, No Iterations 14
linear solve p 418
time step continuity errors : sum local = 3.03444e-08, global = -1.58399e-19, cumulative = 6.34815e-19
DICPBiCGStab:  Solving for p, Initial residual = 0.00179635, Final residual = 7.14769e-07, No Iterations 14
linear solve p 413
time step continuity errors : sum local = 2.86683e-08, global = -5.74943e-19, cumulative = 5.98713e-20
ExecutionTime = 0.04 s  ClockTime = 0 s

Time = 0.05

Courant Number mean: 0.178608 max: 0.682129
DILUPBiCGStab:  Solving for Ux, Initial residual = 0.000452715, Final residual = 9.80339e-12, No Iterations 5
DILUPBiCGStab:  Solving for Uy, Initial residual = 0.000695214, Final residual = 2.02984e-09, No Iterations 5
DILUPBiCGStab:  Solving for Uz, Initial residual = 0.00436493, Final residual = 1.43977e-10, No Iterations 5
linear solve U 567
DICPBiCGStab:  Solving for p, Initial residual = 0.00105553, Final residual = 8.75837e-07, No Iterations 13
linear solve p 430
time step continuity errors : sum local = 2.62958e-08, global = -1.37155e-19, cumulative = -7.72835e-20
DICPBiCGStab:  Solving for p, Initial residual = 0.000627294, Final residual = 9.877e-07, No Iterations 7
linear solve p 220
time step continuity errors : sum local = 3.97314e-08, global = -1.65598e-19, cumulative = -2.42882e-19
ExecutionTime = 0.06 s  ClockTime = 0 s

Time = 0.06

Courant Number mean: 0.178489 max: 0.681723
DILUPBiCGStab:  Solving for Ux, Initial residual = 0.000194478, Final residual = 3.43837e-12, No Iterations 5
DILUPBiCGStab:  Solving for Uy, Initial residual = 0.000278789, Final residual = 6.10665e-11, No Iterations 5
DILUPBiCGStab:  Solving for Uz, Initial residual = 0.00218772, Final residual = 5.18218e-11, No Iterations 5
linear solve U 545
DICPBiCGStab:  Solving for p, Initial residual = 0.000425594, Final residual = 3.56639e-07, No Iterations 7
linear solve p 219
time step continuity errors : sum local = 7.99261e-09, global = -3.44569e-19, cumulative = -5.87451e-19
DICPBiCGStab:  Solving for p, Initial residual = 0.000264399, Final residual = 9.51575e-07, No Iterations 6
linear solve p 207
time step continuity errors : sum local = 3.35945e-08, global = 3.21694e-19, cumulative = -2.65758e-19
ExecutionTime = 0.06 s  ClockTime = 0 s

Time = 0.07

Courant Number mean: 0.178434 max: 0.681555
DILUPBiCGStab:  Solving for Ux, Initial residual = 9.20061e-05, Final residual = 1.04103e-12, No Iterations 5
DILUPBiCGStab:  Solving for Uy, Initial residual = 0.000124531, Final residual = 3.41125e-10, No Iterations 5
DILUPBiCGStab:  Solving for Uz, Initial residual = 0.00112551, Final residual = 2.47754e-11, No Iterations 5
linear solve U 564
DICPBiCGStab:  Solving for p, Initial residual = 0.000191723, Final residual = 8.65472e-07, No Iterations 6
linear solve p 202
time step continuity errors : sum local = 2.00295e-08, global = -5.3711e-19, cumulative = -8.02867e-19
DICPBiCGStab:  Solving for p, Initial residual = 0.000117291, Final residual = 5.97956e-07, No Iterations 6
linear solve p 202
time step continuity errors : sum local = 2.20068e-08, global = -2.94288e-19, cumulative = -1.09715e-18
ExecutionTime = 0.06 s  ClockTime = 0 s

Time = 0.08

Courant Number mean: 0.178408 max: 0.68148
DILUPBiCGStab:  Solving for Ux, Initial residual = 4.56321e-05, Final residual = 3.563e-13, No Iterations 5
DILUPBiCGStab:  Solving for Uy, Initial residual = 5.90518e-05, Final residual = 1.06152e-11, No Iterations 5
DILUPBiCGStab:  Solving for Uz, Initial residual = 0.000589352, Final residual = 1.17348e-11, No Iterations 5
linear solve U 553
DICPBiCGStab:  Solving for p, Initial residual = 9.31714e-05, Final residual = 4.52611e-07, No Iterations 6
linear solve p 197
time step continuity errors : sum local = 1.24445e-08, global = -2.50205e-19, cumulative = -1.34736e-18
DICPBiCGStab:  Solving for p, Initial residual = 5.70981e-05, Final residual = 9.57107e-07, No Iterations 5
linear solve p 165
time step continuity errors : sum local = 2.63817e-08, global = 4.63924e-20, cumulative = -1.30097e-18
ExecutionTime = 0.06 s  ClockTime = 0 s

Time = 0.09

Courant Number mean: 0.178395 max: 0.681446
DILUPBiCGStab:  Solving for Ux, Initial residual = 2.30868e-05, Final residual = 1.29591e-13, No Iterations 5
DILUPBiCGStab:  Solving for Uy, Initial residual = 2.89761e-05, Final residual = 1.71224e-12, No Iterations 5
DILUPBiCGStab:  Solving for Uz, Initial residual = 0.000309135, Final residual = 5.97596e-12, No Iterations 5
linear solve U 547
DICPBiCGStab:  Solving for p, Initial residual = 4.54038e-05, Final residual = 6.90687e-07, No Iterations 5
linear solve p 170
time step continuity errors : sum local = 1.80736e-08, global = -3.7118e-19, cumulative = -1.67215e-18
DICPBiCGStab:  Solving for p, Initial residual = 2.73569e-05, Final residual = 9.15006e-07, No Iterations 4
linear solve p 151
time step continuity errors : sum local = 2.3937e-08, global = 3.04303e-19, cumulative = -1.36784e-18
ExecutionTime = 0.06 s  ClockTime = 0 s

Time = 0.1

Courant Number mean: 0.178389 max: 0.681429
DILUPBiCGStab:  Solving for Ux, Initial residual = 1.18587e-05, Final residual = 5.24296e-14, No Iterations 5
DILUPBiCGStab:  Solving for Uy, Initial residual = 1.46305e-05, Final residual = 1.00289e-12, No Iterations 5
DILUPBiCGStab:  Solving for Uz, Initial residual = 0.000163098, Final residual = 3.14506e-12, No Iterations 5
linear solve U 568
DICPBiCGStab:  Solving for p, Initial residual = 2.25136e-05, Final residual = 8.8262e-07, No Iterations 4
linear solve p 149
time step continuity errors : sum local = 2.23569e-08, global = -7.09339e-19, cumulative = -2.07718e-18
DICPBiCGStab:  Solving for p, Initial residual = 1.30787e-05, Final residual = 6.28691e-07, No Iterations 4
linear solve p 138
time step continuity errors : sum local = 1.72929e-08, global = 1.09246e-19, cumulative = -1.96794e-18
ExecutionTime = 0.06 s  ClockTime = 0 s

End

