/*---------------------------------------------------------------------------*\
  =========                 |
  \\      /  F ield         | OpenFOAM: The Open Source CFD Toolbox
   \\    /   O peration     | Website:  https://openfoam.org
    \\  /    A nd           | Version:  8
     \\/     M anipulation  |
\*---------------------------------------------------------------------------*/
Build  : 8-ef60d22ea792
Exec   : icoFoam
Date   : Sep 11 2021
Time   : 14:42:29
Host   : "uc2n442.localdomain"
PID    : 3722726
I/O    : uncollated
Case   : /pfs/data5/home/kit/scc/nq7776/data/code/OBR/lidDrivenCavity3D/Variation_init/100/Variation_mesh/80/Variation_matrix_solver/CG_NoPrecond_Serial/1631364126
nProcs : 1
sigFpe : Enabling floating point exception trapping (FOAM_SIGFPE).
fileModificationChecking : Monitoring run-time modified files using timeStampMaster (fileModificationSkew 10)
allowSystemOperations : Allowing user-supplied system call operations

// * * * * * * * * * * * * * * * * * * * * * * * * * * * * * * * * * * * * * //
Create time

Create mesh for time = 0

Reading transportProperties

Reading field p

Reading field U

Reading/calculating face flux field phi


Starting time loop

Time = 0.00125

Courant Number mean: 0.191396 max: 0.961531
DILUPBiCGStab:  Solving for Ux, Initial residual = 0.0903312, Final residual = 1.56905e-05, No Iterations 5
DILUPBiCGStab:  Solving for Uy, Initial residual = 0.170741, Final residual = 4.42871e-05, No Iterations 5
DILUPBiCGStab:  Solving for Uz, Initial residual = 0.209354, Final residual = 0.0001275, No Iterations 5
linear solve U 512890
nonePCG:  Solving for p, Initial residual = 0.614031, Final residual = 9.88837e-07, No Iterations 650
linear solve p 4080996
time step continuity errors : sum local = 8.02729e-10, global = -2.71774e-20, cumulative = -2.71774e-20
nonePCG:  Solving for p, Initial residual = 0.278622, Final residual = 9.40567e-07, No Iterations 653
linear solve p 4437702
time step continuity errors : sum local = 6.0857e-10, global = 9.47702e-21, cumulative = -1.77004e-20
ExecutionTime = 11.49 s  ClockTime = 12 s

Time = 0.0025

Courant Number mean: 0.19147 max: 0.961377
DILUPBiCGStab:  Solving for Ux, Initial residual = 0.00522743, Final residual = 1.34965e-05, No Iterations 5
DILUPBiCGStab:  Solving for Uy, Initial residual = 0.011848, Final residual = 4.13038e-05, No Iterations 5
DILUPBiCGStab:  Solving for Uz, Initial residual = 0.0160839, Final residual = 8.98725e-05, No Iterations 5
linear solve U 472440
nonePCG:  Solving for p, Initial residual = 0.280795, Final residual = 9.26672e-07, No Iterations 653
linear solve p 4508599
time step continuity errors : sum local = 4.93328e-10, global = 1.12171e-21, cumulative = -1.65786e-20
nonePCG:  Solving for p, Initial residual = 0.149926, Final residual = 9.43956e-07, No Iterations 651
linear solve p 4365125
time step continuity errors : sum local = 4.691e-10, global = -1.68789e-22, cumulative = -1.67474e-20
ExecutionTime = 21.08 s  ClockTime = 21 s

Time = 0.00375

Courant Number mean: 0.19147 max: 0.961236
DILUPBiCGStab:  Solving for Ux, Initial residual = 0.00110796, Final residual = 5.95408e-06, No Iterations 5
DILUPBiCGStab:  Solving for Uy, Initial residual = 0.00325807, Final residual = 1.71411e-05, No Iterations 5
DILUPBiCGStab:  Solving for Uz, Initial residual = 0.00573295, Final residual = 4.75715e-05, No Iterations 5
linear solve U 480941
nonePCG:  Solving for p, Initial residual = 0.13994, Final residual = 9.4146e-07, No Iterations 648
linear solve p 4375885
time step continuity errors : sum local = 4.52076e-10, global = 3.67993e-21, cumulative = -1.30675e-20
nonePCG:  Solving for p, Initial residual = 0.0905437, Final residual = 9.57451e-07, No Iterations 645
linear solve p 4405706
time step continuity errors : sum local = 4.54099e-10, global = 2.4421e-21, cumulative = -1.06254e-20
ExecutionTime = 30.59 s  ClockTime = 31 s

Time = 0.005

Courant Number mean: 0.191473 max: 0.961205
DILUPBiCGStab:  Solving for Ux, Initial residual = 0.000493701, Final residual = 2.42526e-06, No Iterations 5
DILUPBiCGStab:  Solving for Uy, Initial residual = 0.00163682, Final residual = 9.14983e-06, No Iterations 5
DILUPBiCGStab:  Solving for Uz, Initial residual = 0.00336338, Final residual = 2.52747e-05, No Iterations 5
linear solve U 472199
nonePCG:  Solving for p, Initial residual = 0.0901018, Final residual = 9.5007e-07, No Iterations 641
linear solve p 4320671
time step continuity errors : sum local = 4.31992e-10, global = 5.91962e-21, cumulative = -4.70579e-21
nonePCG:  Solving for p, Initial residual = 0.0667968, Final residual = 9.38924e-07, No Iterations 639
linear solve p 4313821
time step continuity errors : sum local = 4.24069e-10, global = 4.23396e-20, cumulative = 3.76338e-20
ExecutionTime = 39.95 s  ClockTime = 40 s

Time = 0.00625

Courant Number mean: 0.191476 max: 0.961192
DILUPBiCGStab:  Solving for Ux, Initial residual = 0.000286397, Final residual = 1.82049e-06, No Iterations 5
DILUPBiCGStab:  Solving for Uy, Initial residual = 0.00102451, Final residual = 5.35096e-06, No Iterations 5
DILUPBiCGStab:  Solving for Uz, Initial residual = 0.00244298, Final residual = 1.96096e-05, No Iterations 5
linear solve U 469530
nonePCG:  Solving for p, Initial residual = 0.0650549, Final residual = 9.88172e-07, No Iterations 634
linear solve p 4379558
time step continuity errors : sum local = 4.48592e-10, global = 7.07465e-21, cumulative = 4.47085e-20
nonePCG:  Solving for p, Initial residual = 0.05039, Final residual = 9.60994e-07, No Iterations 632
linear solve p 4239138
time step continuity errors : sum local = 4.37302e-10, global = 1.04213e-20, cumulative = 5.51298e-20
ExecutionTime = 49.29 s  ClockTime = 50 s

Time = 0.0075

Courant Number mean: 0.191483 max: 0.961209
DILUPBiCGStab:  Solving for Ux, Initial residual = 0.000201114, Final residual = 1.22927e-06, No Iterations 5
DILUPBiCGStab:  Solving for Uy, Initial residual = 0.000728373, Final residual = 2.99287e-06, No Iterations 5
DILUPBiCGStab:  Solving for Uz, Initial residual = 0.00170342, Final residual = 1.1721e-05, No Iterations 5
linear solve U 475699
nonePCG:  Solving for p, Initial residual = 0.0505948, Final residual = 9.35681e-07, No Iterations 626
linear solve p 4233773
time step continuity errors : sum local = 4.19854e-10, global = 1.76075e-20, cumulative = 7.27374e-20
nonePCG:  Solving for p, Initial residual = 0.0403234, Final residual = 9.88683e-07, No Iterations 623
linear solve p 4254246
time step continuity errors : sum local = 4.42729e-10, global = -6.69714e-22, cumulative = 7.20676e-20
ExecutionTime = 58.5 s  ClockTime = 59 s

Time = 0.00875

Courant Number mean: 0.191486 max: 0.961199
DILUPBiCGStab:  Solving for Ux, Initial residual = 0.000149334, Final residual = 8.30534e-07, No Iterations 5
DILUPBiCGStab:  Solving for Uy, Initial residual = 0.000560315, Final residual = 2.91429e-06, No Iterations 5
DILUPBiCGStab:  Solving for Uz, Initial residual = 0.0013178, Final residual = 1.00311e-05, No Iterations 5
linear solve U 476551
nonePCG:  Solving for p, Initial residual = 0.0400484, Final residual = 9.97326e-07, No Iterations 612
linear solve p 4123114
time step continuity errors : sum local = 4.4731e-10, global = 1.06071e-20, cumulative = 8.26748e-20
nonePCG:  Solving for p, Initial residual = 0.0321748, Final residual = 9.93541e-07, No Iterations 610
linear solve p 4118290
time step continuity errors : sum local = 4.46163e-10, global = -3.93447e-20, cumulative = 4.33301e-20
ExecutionTime = 67.47 s  ClockTime = 68 s

Time = 0.01

Courant Number mean: 0.191493 max: 0.961207
DILUPBiCGStab:  Solving for Ux, Initial residual = 0.000118764, Final residual = 8.13519e-07, No Iterations 5
DILUPBiCGStab:  Solving for Uy, Initial residual = 0.000428044, Final residual = 1.69476e-06, No Iterations 5
DILUPBiCGStab:  Solving for Uz, Initial residual = 0.000955239, Final residual = 6.05118e-06, No Iterations 5
linear solve U 468774
nonePCG:  Solving for p, Initial residual = 0.0323039, Final residual = 9.67475e-07, No Iterations 596
linear solve p 4118894
time step continuity errors : sum local = 4.31692e-10, global = 8.03003e-21, cumulative = 5.13602e-20
nonePCG:  Solving for p, Initial residual = 0.026169, Final residual = 9.43773e-07, No Iterations 595
linear solve p 3988882
time step continuity errors : sum local = 4.20706e-10, global = -3.53004e-21, cumulative = 4.78301e-20
ExecutionTime = 76.3 s  ClockTime = 77 s

Time = 0.01125

Courant Number mean: 0.191496 max: 0.961203
DILUPBiCGStab:  Solving for Ux, Initial residual = 9.23829e-05, Final residual = 5.44296e-07, No Iterations 5
DILUPBiCGStab:  Solving for Uy, Initial residual = 0.000347702, Final residual = 1.98196e-06, No Iterations 5
DILUPBiCGStab:  Solving for Uz, Initial residual = 0.000751973, Final residual = 5.49793e-06, No Iterations 5
linear solve U 480025
nonePCG:  Solving for p, Initial residual = 0.0261757, Final residual = 9.48534e-07, No Iterations 561
linear solve p 3787828
time step continuity errors : sum local = 4.22757e-10, global = -2.1798e-20, cumulative = 2.60321e-20
nonePCG:  Solving for p, Initial residual = 0.0212462, Final residual = 9.98276e-07, No Iterations 556
linear solve p 3803138
time step continuity errors : sum local = 4.4516e-10, global = 5.10406e-20, cumulative = 7.70727e-20
ExecutionTime = 84.62 s  ClockTime = 85 s

Time = 0.0125

Courant Number mean: 0.191501 max: 0.961206
DILUPBiCGStab:  Solving for Ux, Initial residual = 7.52764e-05, Final residual = 5.28302e-07, No Iterations 5
DILUPBiCGStab:  Solving for Uy, Initial residual = 0.000273735, Final residual = 1.26174e-06, No Iterations 5
DILUPBiCGStab:  Solving for Uz, Initial residual = 0.000568358, Final residual = 3.48309e-06, No Iterations 5
linear solve U 472526
nonePCG:  Solving for p, Initial residual = 0.0213456, Final residual = 9.79235e-07, No Iterations 588
linear solve p 3963828
time step continuity errors : sum local = 4.35403e-10, global = 1.76971e-20, cumulative = 9.47698e-20
nonePCG:  Solving for p, Initial residual = 0.0173882, Final residual = 8.7418e-07, No Iterations 588
linear solve p 3972657
time step continuity errors : sum local = 3.88496e-10, global = 3.00408e-21, cumulative = 9.77739e-20
ExecutionTime = 93.29 s  ClockTime = 94 s

End

