/*---------------------------------------------------------------------------*\
  =========                 |
  \\      /  F ield         | OpenFOAM: The Open Source CFD Toolbox
   \\    /   O peration     | Website:  https://openfoam.org
    \\  /    A nd           | Version:  8
     \\/     M anipulation  |
\*---------------------------------------------------------------------------*/
Build  : 8-ef60d22ea792
Exec   : icoFoam
Date   : Sep 11 2021
Time   : 14:56:38
Host   : "uc2n442.localdomain"
PID    : 3724790
I/O    : uncollated
Case   : /pfs/data5/home/kit/scc/nq7776/data/code/OBR/lidDrivenCavity3D/Variation_init/100/Variation_mesh/20/Variation_matrix_solver/CG_DIC_Serial/1631364997
nProcs : 1
sigFpe : Enabling floating point exception trapping (FOAM_SIGFPE).
fileModificationChecking : Monitoring run-time modified files using timeStampMaster (fileModificationSkew 10)
allowSystemOperations : Allowing user-supplied system call operations

// * * * * * * * * * * * * * * * * * * * * * * * * * * * * * * * * * * * * * //
Create time

Create mesh for time = 0

Reading transportProperties

Reading field p

Reading field U

Reading/calculating face flux field phi


Starting time loop

Time = 0.005

Courant Number mean: 0.189426 max: 0.847077
DILUPBiCGStab:  Solving for Ux, Initial residual = 0.0520863, Final residual = 1.93382e-07, No Iterations 5
DILUPBiCGStab:  Solving for Uy, Initial residual = 0.0827593, Final residual = 3.95798e-07, No Iterations 5
DILUPBiCGStab:  Solving for Uz, Initial residual = 0.0638903, Final residual = 5.63531e-07, No Iterations 5
linear solve U 5456
DICPCG:  Solving for p, Initial residual = 0.518631, Final residual = 6.34477e-07, No Iterations 52
linear solve p 6662
time step continuity errors : sum local = 5.14611e-09, global = 2.35724e-19, cumulative = 2.35724e-19
DICPCG:  Solving for p, Initial residual = 0.286623, Final residual = 4.85881e-07, No Iterations 52
linear solve p 6349
time step continuity errors : sum local = 2.93069e-09, global = -7.33749e-20, cumulative = 1.62349e-19
ExecutionTime = 0.09 s  ClockTime = 0 s

Time = 0.01

Courant Number mean: 0.188529 max: 0.846325
DILUPBiCGStab:  Solving for Ux, Initial residual = 0.0110583, Final residual = 2.88337e-07, No Iterations 5
DILUPBiCGStab:  Solving for Uy, Initial residual = 0.0195296, Final residual = 2.7634e-07, No Iterations 5
DILUPBiCGStab:  Solving for Uz, Initial residual = 0.0446961, Final residual = 4.31754e-07, No Iterations 5
linear solve U 4599
DICPCG:  Solving for p, Initial residual = 0.129827, Final residual = 5.96841e-07, No Iterations 51
linear solve p 6225
time step continuity errors : sum local = 3.62026e-09, global = -1.97536e-19, cumulative = -3.51874e-20
DICPCG:  Solving for p, Initial residual = 0.082539, Final residual = 8.64933e-07, No Iterations 50
linear solve p 6070
time step continuity errors : sum local = 5.38426e-09, global = 8.09822e-20, cumulative = 4.57948e-20
ExecutionTime = 0.11 s  ClockTime = 0 s

Time = 0.015

Courant Number mean: 0.188052 max: 0.844689
DILUPBiCGStab:  Solving for Ux, Initial residual = 0.00147353, Final residual = 1.16599e-08, No Iterations 5
DILUPBiCGStab:  Solving for Uy, Initial residual = 0.00300942, Final residual = 2.28334e-08, No Iterations 5
DILUPBiCGStab:  Solving for Uz, Initial residual = 0.00692768, Final residual = 6.22182e-08, No Iterations 5
linear solve U 4587
DICPCG:  Solving for p, Initial residual = 0.0277583, Final residual = 7.5997e-07, No Iterations 48
linear solve p 5998
time step continuity errors : sum local = 4.68917e-09, global = 3.29278e-21, cumulative = 4.90876e-20
DICPCG:  Solving for p, Initial residual = 0.0179797, Final residual = 8.3555e-07, No Iterations 47
linear solve p 5802
time step continuity errors : sum local = 5.16532e-09, global = 8.1212e-20, cumulative = 1.303e-19
ExecutionTime = 0.13 s  ClockTime = 0 s

Time = 0.02

Courant Number mean: 0.187909 max: 0.844511
DILUPBiCGStab:  Solving for Ux, Initial residual = 0.000567398, Final residual = 1.23232e-08, No Iterations 5
DILUPBiCGStab:  Solving for Uy, Initial residual = 0.000652492, Final residual = 1.26114e-08, No Iterations 5
DILUPBiCGStab:  Solving for Uz, Initial residual = 0.00324593, Final residual = 2.6238e-08, No Iterations 5
linear solve U 4588
DICPCG:  Solving for p, Initial residual = 0.00920687, Final residual = 8.32342e-07, No Iterations 45
linear solve p 5628
time step continuity errors : sum local = 5.12405e-09, global = 1.26345e-19, cumulative = 2.56644e-19
DICPCG:  Solving for p, Initial residual = 0.00619287, Final residual = 5.84108e-07, No Iterations 45
linear solve p 5553
time step continuity errors : sum local = 3.59217e-09, global = 2.97158e-19, cumulative = 5.53802e-19
ExecutionTime = 0.14 s  ClockTime = 0 s

Time = 0.025

Courant Number mean: 0.187822 max: 0.844405
DILUPBiCGStab:  Solving for Ux, Initial residual = 0.000229948, Final residual = 3.64827e-09, No Iterations 5
DILUPBiCGStab:  Solving for Uy, Initial residual = 0.000348917, Final residual = 5.96434e-09, No Iterations 5
DILUPBiCGStab:  Solving for Uz, Initial residual = 0.00156252, Final residual = 1.09759e-08, No Iterations 5
linear solve U 4589
DICPCG:  Solving for p, Initial residual = 0.00375749, Final residual = 7.78032e-07, No Iterations 22
linear solve p 2786
time step continuity errors : sum local = 5.81662e-09, global = 3.65835e-20, cumulative = 5.90385e-19
DICPCG:  Solving for p, Initial residual = 0.00257996, Final residual = 5.35607e-07, No Iterations 22
linear solve p 2810
time step continuity errors : sum local = 3.58488e-09, global = 2.39497e-19, cumulative = 8.29883e-19
ExecutionTime = 0.16 s  ClockTime = 0 s

Time = 0.03

Courant Number mean: 0.18777 max: 0.84431
DILUPBiCGStab:  Solving for Ux, Initial residual = 0.000125243, Final residual = 1.78614e-09, No Iterations 5
DILUPBiCGStab:  Solving for Uy, Initial residual = 0.000162057, Final residual = 2.88215e-09, No Iterations 5
DILUPBiCGStab:  Solving for Uz, Initial residual = 0.000993893, Final residual = 7.21747e-09, No Iterations 5
linear solve U 4614
DICPCG:  Solving for p, Initial residual = 0.00159393, Final residual = 8.57775e-07, No Iterations 21
linear solve p 2701
time step continuity errors : sum local = 7.94988e-09, global = 1.29298e-19, cumulative = 9.5918e-19
DICPCG:  Solving for p, Initial residual = 0.00108367, Final residual = 7.05816e-07, No Iterations 20
linear solve p 2547
time step continuity errors : sum local = 5.28106e-09, global = -7.49887e-20, cumulative = 8.84192e-19
ExecutionTime = 0.17 s  ClockTime = 0 s

Time = 0.035

Courant Number mean: 0.18774 max: 0.84426
DILUPBiCGStab:  Solving for Ux, Initial residual = 6.79413e-05, Final residual = 5.43899e-10, No Iterations 5
DILUPBiCGStab:  Solving for Uy, Initial residual = 9.91425e-05, Final residual = 1.89298e-09, No Iterations 5
DILUPBiCGStab:  Solving for Uz, Initial residual = 0.000654512, Final residual = 4.80733e-09, No Iterations 5
linear solve U 4587
DICPCG:  Solving for p, Initial residual = 0.000710921, Final residual = 9.41868e-07, No Iterations 19
linear solve p 2445
time step continuity errors : sum local = 6.91942e-09, global = 2.06398e-19, cumulative = 1.09059e-18
DICPCG:  Solving for p, Initial residual = 0.000495662, Final residual = 6.81428e-07, No Iterations 19
linear solve p 2483
time step continuity errors : sum local = 4.9198e-09, global = -3.68663e-20, cumulative = 1.05372e-18
ExecutionTime = 0.18 s  ClockTime = 0 s

Time = 0.04

Courant Number mean: 0.187722 max: 0.84423
DILUPBiCGStab:  Solving for Ux, Initial residual = 4.14355e-05, Final residual = 3.13493e-10, No Iterations 5
DILUPBiCGStab:  Solving for Uy, Initial residual = 5.83931e-05, Final residual = 4.91908e-10, No Iterations 5
DILUPBiCGStab:  Solving for Uz, Initial residual = 0.00043278, Final residual = 2.83061e-09, No Iterations 5
linear solve U 4791
DICPCG:  Solving for p, Initial residual = 0.000326431, Final residual = 8.5563e-07, No Iterations 18
linear solve p 2437
time step continuity errors : sum local = 7.15352e-09, global = -5.77578e-20, cumulative = 9.95965e-19
DICPCG:  Solving for p, Initial residual = 0.00022589, Final residual = 9.59967e-07, No Iterations 17
linear solve p 2187
time step continuity errors : sum local = 6.96123e-09, global = 1.00664e-19, cumulative = 1.09663e-18
ExecutionTime = 0.2 s  ClockTime = 0 s

Time = 0.045

Courant Number mean: 0.187711 max: 0.844211
DILUPBiCGStab:  Solving for Ux, Initial residual = 2.55379e-05, Final residual = 1.07849e-10, No Iterations 5
DILUPBiCGStab:  Solving for Uy, Initial residual = 3.69822e-05, Final residual = 4.59155e-10, No Iterations 5
DILUPBiCGStab:  Solving for Uz, Initial residual = 0.000293472, Final residual = 1.97096e-09, No Iterations 5
linear solve U 4796
DICPCG:  Solving for p, Initial residual = 0.000154267, Final residual = 8.90764e-07, No Iterations 16
linear solve p 2143
time step continuity errors : sum local = 6.70607e-09, global = 5.83608e-20, cumulative = 1.15499e-18
DICPCG:  Solving for p, Initial residual = 0.000110512, Final residual = 7.22275e-07, No Iterations 16
linear solve p 2101
time step continuity errors : sum local = 5.41494e-09, global = -1.60047e-20, cumulative = 1.13899e-18
ExecutionTime = 0.21 s  ClockTime = 0 s

Time = 0.05

Courant Number mean: 0.187704 max: 0.8442
DILUPBiCGStab:  Solving for Ux, Initial residual = 1.65178e-05, Final residual = 7.23414e-11, No Iterations 5
DILUPBiCGStab:  Solving for Uy, Initial residual = 2.35146e-05, Final residual = 1.21562e-10, No Iterations 5
DILUPBiCGStab:  Solving for Uz, Initial residual = 0.000197869, Final residual = 1.1467e-09, No Iterations 5
linear solve U 4694
DICPCG:  Solving for p, Initial residual = 7.54538e-05, Final residual = 8.99155e-07, No Iterations 15
linear solve p 2008
time step continuity errors : sum local = 7.00781e-09, global = 1.91622e-19, cumulative = 1.33061e-18
DICPCG:  Solving for p, Initial residual = 5.44377e-05, Final residual = 6.72442e-07, No Iterations 15
linear solve p 1951
time step continuity errors : sum local = 5.23641e-09, global = 1.18377e-21, cumulative = 1.33179e-18
ExecutionTime = 0.22 s  ClockTime = 0 s

End

