/*---------------------------------------------------------------------------*\
  =========                 |
  \\      /  F ield         | OpenFOAM: The Open Source CFD Toolbox
   \\    /   O peration     | Website:  https://openfoam.org
    \\  /    A nd           | Version:  8
     \\/     M anipulation  |
\*---------------------------------------------------------------------------*/
Build  : 8-ef60d22ea792
Exec   : icoFoam
Date   : Sep 11 2021
Time   : 14:43:57
Host   : "uc2n513.localdomain"
PID    : 233590
I/O    : uncollated
Case   : /pfs/data5/home/kit/scc/nq7776/data/code/OBR/lidDrivenCavity3D/Variation_init/100/Variation_mesh/45/Variation_matrix_solver/CG_BJ_CUDA/1631364232
nProcs : 1
sigFpe : Enabling floating point exception trapping (FOAM_SIGFPE).
fileModificationChecking : Monitoring run-time modified files using timeStampMaster (fileModificationSkew 10)
allowSystemOperations : Allowing user-supplied system call operations

// * * * * * * * * * * * * * * * * * * * * * * * * * * * * * * * * * * * * * //
Create time

Create mesh for time = 0

Reading transportProperties

Reading field p

Reading field U

Reading/calculating face flux field phi


Starting time loop

Time = 0.00222222

Courant Number mean: 0.190928 max: 0.914047
DILUPBiCGStab:  Solving for Ux, Initial residual = 0.0595792, Final residual = 4.86933e-06, No Iterations 5
DILUPBiCGStab:  Solving for Uy, Initial residual = 0.0975024, Final residual = 1.18416e-05, No Iterations 5
DILUPBiCGStab:  Solving for Uz, Initial residual = 0.125234, Final residual = 3.53848e-05, No Iterations 5
linear solve U 77985
[OGL LOG] init_host_sparsity_pattern : 25 ms
[OGL LOG] matrix not stored update host matrix
[OGL LOG] update_host_mtx : 13 ms
[OGL LOG] matrix is not yet sorted, compute sorting idxs
[OGL LOG] compute_sort : 708 ms
[OGL LOG] matrix is not yet sorted, sorting host matrix
[OGL LOG] sort_host_mtx_sparsity_pattern : 16 ms
[OGL LOG] sort_host_mtx : 9 ms
[OGL LOG] init_preconditioner : 10 ms
[OGL LOG] solve : 52 ms
BJcudaGKOCG:  Solving for p, Initial residual = 0.429284, Final residual = 9.46657e-07, No Iterations 315
linear solve p 1573114
time step continuity errors : sum local = 1.81516e-09, global = -5.7366e-20, cumulative = -5.7366e-20
[OGL LOG] init_preconditioner : 0 ms
[OGL LOG] solve : 51 ms
BJcudaGKOCG:  Solving for p, Initial residual = 0.201177, Final residual = 9.42448e-07, No Iterations 313
linear solve p 54115
time step continuity errors : sum local = 1.69683e-09, global = 2.82912e-20, cumulative = -2.90748e-20
ExecutionTime = 2.18 s  ClockTime = 2 s

Time = 0.00444444

Courant Number mean: 0.190905 max: 0.929693
DILUPBiCGStab:  Solving for Ux, Initial residual = 0.00558483, Final residual = 5.75146e-06, No Iterations 5
DILUPBiCGStab:  Solving for Uy, Initial residual = 0.0107013, Final residual = 1.18917e-05, No Iterations 5
DILUPBiCGStab:  Solving for Uz, Initial residual = 0.0268264, Final residual = 2.93043e-05, No Iterations 5
linear solve U 70166
[OGL LOG] init_preconditioner : 0 ms
[OGL LOG] solve : 51 ms
BJcudaGKOCG:  Solving for p, Initial residual = 0.22631, Final residual = 8.63255e-07, No Iterations 314
linear solve p 54280
time step continuity errors : sum local = 4.85144e-07, global = 3.50672e-20, cumulative = 5.9924e-21
[OGL LOG] init_preconditioner : 0 ms
[OGL LOG] solve : 52 ms
BJcudaGKOCG:  Solving for p, Initial residual = 0.154084, Final residual = 9.84163e-07, No Iterations 312
linear solve p 55065
time step continuity errors : sum local = 4.50457e-07, global = -4.27563e-20, cumulative = -3.67639e-20
ExecutionTime = 2.41 s  ClockTime = 2 s

Time = 0.00666667

Courant Number mean: 0.190867 max: 0.930874
DILUPBiCGStab:  Solving for Ux, Initial residual = 0.00160085, Final residual = 1.9697e-06, No Iterations 5
DILUPBiCGStab:  Solving for Uy, Initial residual = 0.00403773, Final residual = 4.80778e-06, No Iterations 5
DILUPBiCGStab:  Solving for Uz, Initial residual = 0.011652, Final residual = 1.17163e-05, No Iterations 5
linear solve U 70869
[OGL LOG] init_preconditioner : 0 ms
[OGL LOG] solve : 48 ms
BJcudaGKOCG:  Solving for p, Initial residual = 0.101694, Final residual = 9.70805e-07, No Iterations 295
linear solve p 51111
time step continuity errors : sum local = 4.37079e-07, global = 1.0008e-20, cumulative = -2.67559e-20
[OGL LOG] init_preconditioner : 0 ms
[OGL LOG] solve : 47 ms
BJcudaGKOCG:  Solving for p, Initial residual = 0.0701939, Final residual = 9.93478e-07, No Iterations 291
linear solve p 50471
time step continuity errors : sum local = 4.49118e-07, global = -6.08208e-20, cumulative = -8.75767e-20
ExecutionTime = 2.63 s  ClockTime = 3 s

Time = 0.00888889

Courant Number mean: 0.190895 max: 0.931103
DILUPBiCGStab:  Solving for Ux, Initial residual = 0.000646269, Final residual = 9.83079e-07, No Iterations 5
DILUPBiCGStab:  Solving for Uy, Initial residual = 0.00163882, Final residual = 1.63703e-06, No Iterations 5
DILUPBiCGStab:  Solving for Uz, Initial residual = 0.00471912, Final residual = 4.58433e-06, No Iterations 5
linear solve U 70509
[OGL LOG] init_preconditioner : 0 ms
[OGL LOG] solve : 46 ms
BJcudaGKOCG:  Solving for p, Initial residual = 0.0528981, Final residual = 9.34841e-07, No Iterations 284
linear solve p 49422
time step continuity errors : sum local = 4.54044e-07, global = -5.65284e-20, cumulative = -1.44105e-19
[OGL LOG] init_preconditioner : 0 ms
[OGL LOG] solve : 47 ms
BJcudaGKOCG:  Solving for p, Initial residual = 0.0383974, Final residual = 8.69092e-07, No Iterations 283
linear solve p 50823
time step continuity errors : sum local = 4.49447e-07, global = -5.25657e-20, cumulative = -1.96671e-19
ExecutionTime = 2.85 s  ClockTime = 3 s

Time = 0.0111111

Courant Number mean: 0.190873 max: 0.931033
DILUPBiCGStab:  Solving for Ux, Initial residual = 0.000313637, Final residual = 3.36185e-07, No Iterations 5
DILUPBiCGStab:  Solving for Uy, Initial residual = 0.000835143, Final residual = 8.23512e-07, No Iterations 5
DILUPBiCGStab:  Solving for Uz, Initial residual = 0.00234984, Final residual = 2.20902e-06, No Iterations 5
linear solve U 70214
[OGL LOG] init_preconditioner : 0 ms
[OGL LOG] solve : 45 ms
BJcudaGKOCG:  Solving for p, Initial residual = 0.0293675, Final residual = 9.67088e-07, No Iterations 276
linear solve p 48002
time step continuity errors : sum local = 4.47749e-07, global = 1.4975e-20, cumulative = -1.81696e-19
[OGL LOG] init_preconditioner : 0 ms
[OGL LOG] solve : 45 ms
BJcudaGKOCG:  Solving for p, Initial residual = 0.0215248, Final residual = 9.5302e-07, No Iterations 274
linear solve p 47822
time step continuity errors : sum local = 4.4934e-07, global = -1.49877e-19, cumulative = -3.31573e-19
ExecutionTime = 3.07 s  ClockTime = 3 s

Time = 0.0133333

Courant Number mean: 0.190876 max: 0.931058
DILUPBiCGStab:  Solving for Ux, Initial residual = 0.000178964, Final residual = 2.32345e-07, No Iterations 5
DILUPBiCGStab:  Solving for Uy, Initial residual = 0.000452391, Final residual = 4.23137e-07, No Iterations 5
DILUPBiCGStab:  Solving for Uz, Initial residual = 0.00128971, Final residual = 1.17798e-06, No Iterations 5
linear solve U 70692
[OGL LOG] init_preconditioner : 0 ms
[OGL LOG] solve : 44 ms
BJcudaGKOCG:  Solving for p, Initial residual = 0.0175497, Final residual = 9.98851e-07, No Iterations 268
linear solve p 46898
time step continuity errors : sum local = 4.50114e-07, global = -1.53967e-19, cumulative = -4.8554e-19
[OGL LOG] init_preconditioner : 0 ms
[OGL LOG] solve : 43 ms
BJcudaGKOCG:  Solving for p, Initial residual = 0.0130404, Final residual = 9.753e-07, No Iterations 265
linear solve p 46538
time step continuity errors : sum local = 4.49414e-07, global = 3.7085e-20, cumulative = -4.48455e-19
ExecutionTime = 3.28 s  ClockTime = 3 s

Time = 0.0155556

Courant Number mean: 0.190871 max: 0.931023
DILUPBiCGStab:  Solving for Ux, Initial residual = 0.000105812, Final residual = 1.10669e-07, No Iterations 5
DILUPBiCGStab:  Solving for Uy, Initial residual = 0.000276283, Final residual = 2.7804e-07, No Iterations 5
DILUPBiCGStab:  Solving for Uz, Initial residual = 0.000765473, Final residual = 5.56989e-07, No Iterations 5
linear solve U 71643
[OGL LOG] init_preconditioner : 0 ms
[OGL LOG] solve : 42 ms
BJcudaGKOCG:  Solving for p, Initial residual = 0.0108838, Final residual = 9.92835e-07, No Iterations 260
linear solve p 45655
time step continuity errors : sum local = 4.49177e-07, global = 9.43491e-21, cumulative = -4.3902e-19
[OGL LOG] init_preconditioner : 0 ms
[OGL LOG] solve : 22 ms
BJcudaGKOCG:  Solving for p, Initial residual = 0.00813664, Final residual = 9.96039e-07, No Iterations 133
linear solve p 25474
time step continuity errors : sum local = 4.49738e-07, global = 3.3925e-20, cumulative = -4.05095e-19
ExecutionTime = 3.47 s  ClockTime = 3 s

Time = 0.0177778

Courant Number mean: 0.190873 max: 0.931034
DILUPBiCGStab:  Solving for Ux, Initial residual = 6.80165e-05, Final residual = 6.23683e-08, No Iterations 5
DILUPBiCGStab:  Solving for Uy, Initial residual = 0.000175518, Final residual = 1.38529e-07, No Iterations 5
DILUPBiCGStab:  Solving for Uz, Initial residual = 0.000492428, Final residual = 4.51303e-07, No Iterations 5
linear solve U 69843
[OGL LOG] init_preconditioner : 0 ms
[OGL LOG] solve : 41 ms
BJcudaGKOCG:  Solving for p, Initial residual = 0.00693709, Final residual = 9.73361e-07, No Iterations 253
linear solve p 44453
time step continuity errors : sum local = 4.49514e-07, global = -3.7267e-20, cumulative = -4.42362e-19
[OGL LOG] init_preconditioner : 0 ms
[OGL LOG] solve : 41 ms
BJcudaGKOCG:  Solving for p, Initial residual = 0.00521555, Final residual = 9.90581e-07, No Iterations 252
linear solve p 44191
time step continuity errors : sum local = 4.49418e-07, global = 6.38273e-20, cumulative = -3.78534e-19
ExecutionTime = 3.67 s  ClockTime = 4 s

Time = 0.02

Courant Number mean: 0.190873 max: 0.931017
DILUPBiCGStab:  Solving for Ux, Initial residual = 4.47338e-05, Final residual = 3.33299e-08, No Iterations 5
DILUPBiCGStab:  Solving for Uy, Initial residual = 0.000118513, Final residual = 8.65046e-08, No Iterations 5
DILUPBiCGStab:  Solving for Uz, Initial residual = 0.000332326, Final residual = 2.57318e-07, No Iterations 5
linear solve U 71810
[OGL LOG] init_preconditioner : 0 ms
[OGL LOG] solve : 38 ms
BJcudaGKOCG:  Solving for p, Initial residual = 0.00450021, Final residual = 9.65644e-07, No Iterations 232
linear solve p 41355
time step continuity errors : sum local = 4.49381e-07, global = -6.63459e-20, cumulative = -4.4488e-19
[OGL LOG] init_preconditioner : 0 ms
[OGL LOG] solve : 19 ms
BJcudaGKOCG:  Solving for p, Initial residual = 0.00339366, Final residual = 9.91575e-07, No Iterations 109
linear solve p 21700
time step continuity errors : sum local = 4.49666e-07, global = 5.03289e-20, cumulative = -3.94551e-19
ExecutionTime = 3.85 s  ClockTime = 4 s

Time = 0.0222222

Courant Number mean: 0.190876 max: 0.931022
DILUPBiCGStab:  Solving for Ux, Initial residual = 3.07779e-05, Final residual = 1.92969e-08, No Iterations 5
DILUPBiCGStab:  Solving for Uy, Initial residual = 8.11031e-05, Final residual = 4.38532e-08, No Iterations 5
DILUPBiCGStab:  Solving for Uz, Initial residual = 0.000237373, Final residual = 2.23549e-07, No Iterations 5
linear solve U 70482
[OGL LOG] init_preconditioner : 0 ms
[OGL LOG] solve : 38 ms
BJcudaGKOCG:  Solving for p, Initial residual = 0.00294931, Final residual = 9.52988e-07, No Iterations 231
linear solve p 41145
time step continuity errors : sum local = 4.49423e-07, global = 6.59957e-20, cumulative = -3.28556e-19
[OGL LOG] init_preconditioner : 0 ms
[OGL LOG] solve : 38 ms
BJcudaGKOCG:  Solving for p, Initial residual = 0.00222761, Final residual = 9.96448e-07, No Iterations 229
linear solve p 40731
time step continuity errors : sum local = 4.49424e-07, global = 3.85489e-21, cumulative = -3.24701e-19
ExecutionTime = 4.05 s  ClockTime = 4 s

End

