/*---------------------------------------------------------------------------*\
  =========                 |
  \\      /  F ield         | OpenFOAM: The Open Source CFD Toolbox
   \\    /   O peration     | Website:  https://openfoam.org
    \\  /    A nd           | Version:  8
     \\/     M anipulation  |
\*---------------------------------------------------------------------------*/
Build  : 8-ef60d22ea792
Exec   : icoFoam
Date   : Sep 11 2021
Time   : 14:36:26
Host   : "uc2n513.localdomain"
PID    : 229085
I/O    : uncollated
Case   : /pfs/data5/home/kit/scc/nq7776/data/code/OBR/lidDrivenCavity3D/Variation_init/100/Variation_mesh/10/Variation_matrix_solver/CG_BJ_CUDA/1631363784
nProcs : 1
sigFpe : Enabling floating point exception trapping (FOAM_SIGFPE).
fileModificationChecking : Monitoring run-time modified files using timeStampMaster (fileModificationSkew 10)
allowSystemOperations : Allowing user-supplied system call operations

// * * * * * * * * * * * * * * * * * * * * * * * * * * * * * * * * * * * * * //
Create time

Create mesh for time = 0

Reading transportProperties

Reading field p

Reading field U

Reading/calculating face flux field phi


Starting time loop

Time = 0.01

Courant Number mean: 0.184879 max: 0.722295
DILUPBiCGStab:  Solving for Ux, Initial residual = 0.138471, Final residual = 2.65068e-09, No Iterations 5
DILUPBiCGStab:  Solving for Uy, Initial residual = 0.150118, Final residual = 5.88061e-10, No Iterations 5
DILUPBiCGStab:  Solving for Uz, Initial residual = 0.278898, Final residual = 3.06847e-09, No Iterations 5
linear solve U 789
[OGL LOG] init_host_sparsity_pattern : 0 ms
[OGL LOG] matrix not stored update host matrix
[OGL LOG] update_host_mtx : 0 ms
[OGL LOG] matrix is not yet sorted, compute sorting idxs
[OGL LOG] compute_sort : 5 ms
[OGL LOG] matrix is not yet sorted, sorting host matrix
[OGL LOG] sort_host_mtx_sparsity_pattern : 0 ms
[OGL LOG] sort_host_mtx : 0 ms
[OGL LOG] init_preconditioner : 0 ms
[OGL LOG] solve : 9 ms
BJcudaGKOCG:  Solving for p, Initial residual = 0.615468, Final residual = 8.7698e-07, No Iterations 63
linear solve p 741965
time step continuity errors : sum local = 2.70169e-08, global = 3.70701e-20, cumulative = 3.70701e-20
[OGL LOG] init_preconditioner : 0 ms
[OGL LOG] solve : 8 ms
BJcudaGKOCG:  Solving for p, Initial residual = 0.309181, Final residual = 8.30314e-07, No Iterations 62
linear solve p 9183
time step continuity errors : sum local = 1.4508e-08, global = 8.17937e-20, cumulative = 1.18864e-19
ExecutionTime = 0.78 s  ClockTime = 1 s

Time = 0.02

Courant Number mean: 0.181259 max: 0.69519
DILUPBiCGStab:  Solving for Ux, Initial residual = 0.0298072, Final residual = 1.18556e-09, No Iterations 5
DILUPBiCGStab:  Solving for Uy, Initial residual = 0.0402524, Final residual = 4.76376e-09, No Iterations 5
DILUPBiCGStab:  Solving for Uz, Initial residual = 0.0940024, Final residual = 1.11661e-09, No Iterations 5
linear solve U 555
[OGL LOG] init_preconditioner : 0 ms
[OGL LOG] solve : 8 ms
BJcudaGKOCG:  Solving for p, Initial residual = 0.144568, Final residual = 8.49982e-07, No Iterations 61
linear solve p 9017
time step continuity errors : sum local = 2.73968e-05, global = 4.36884e-19, cumulative = 5.55747e-19
[OGL LOG] init_preconditioner : 0 ms
[OGL LOG] solve : 8 ms
BJcudaGKOCG:  Solving for p, Initial residual = 0.0646378, Final residual = 6.36139e-07, No Iterations 60
linear solve p 8832
time step continuity errors : sum local = 2.45275e-05, global = -3.11086e-19, cumulative = 2.44661e-19
ExecutionTime = 0.8 s  ClockTime = 1 s

Time = 0.03

Courant Number mean: 0.179525 max: 0.686072
DILUPBiCGStab:  Solving for Ux, Initial residual = 0.00445948, Final residual = 1.13207e-10, No Iterations 5
DILUPBiCGStab:  Solving for Uy, Initial residual = 0.00704943, Final residual = 8.17616e-10, No Iterations 5
DILUPBiCGStab:  Solving for Uz, Initial residual = 0.0284285, Final residual = 1.45627e-09, No Iterations 5
linear solve U 549
[OGL LOG] init_preconditioner : 0 ms
[OGL LOG] solve : 7 ms
BJcudaGKOCG:  Solving for p, Initial residual = 0.0147301, Final residual = 7.32099e-07, No Iterations 54
linear solve p 8005
time step continuity errors : sum local = 2.44088e-05, global = -1.76355e-19, cumulative = 6.83065e-20
[OGL LOG] init_preconditioner : 0 ms
[OGL LOG] solve : 7 ms
BJcudaGKOCG:  Solving for p, Initial residual = 0.00672056, Final residual = 9.37411e-07, No Iterations 52
linear solve p 7763
time step continuity errors : sum local = 2.44022e-05, global = 4.18487e-19, cumulative = 4.86794e-19
ExecutionTime = 0.81 s  ClockTime = 1 s

Time = 0.04

Courant Number mean: 0.178874 max: 0.683124
DILUPBiCGStab:  Solving for Ux, Initial residual = 0.00128751, Final residual = 3.61081e-11, No Iterations 5
DILUPBiCGStab:  Solving for Uy, Initial residual = 0.00194449, Final residual = 2.41793e-09, No Iterations 5
DILUPBiCGStab:  Solving for Uz, Initial residual = 0.00913882, Final residual = 3.83034e-10, No Iterations 5
linear solve U 550
[OGL LOG] init_preconditioner : 0 ms
[OGL LOG] solve : 7 ms
BJcudaGKOCG:  Solving for p, Initial residual = 0.00287197, Final residual = 9.09392e-07, No Iterations 51
linear solve p 7618
time step continuity errors : sum local = 2.44722e-05, global = -6.99662e-19, cumulative = -2.12869e-19
[OGL LOG] init_preconditioner : 0 ms
[OGL LOG] solve : 7 ms
BJcudaGKOCG:  Solving for p, Initial residual = 0.00179622, Final residual = 7.58872e-07, No Iterations 50
linear solve p 7463
time step continuity errors : sum local = 2.44203e-05, global = 5.63078e-19, cumulative = 3.5021e-19
ExecutionTime = 0.83 s  ClockTime = 1 s

Time = 0.05

Courant Number mean: 0.178608 max: 0.682133
DILUPBiCGStab:  Solving for Ux, Initial residual = 0.00045224, Final residual = 9.80857e-12, No Iterations 5
DILUPBiCGStab:  Solving for Uy, Initial residual = 0.000695788, Final residual = 2.0636e-09, No Iterations 5
DILUPBiCGStab:  Solving for Uz, Initial residual = 0.00435356, Final residual = 1.52314e-10, No Iterations 5
linear solve U 550
[OGL LOG] init_preconditioner : 0 ms
[OGL LOG] solve : 6 ms
BJcudaGKOCG:  Solving for p, Initial residual = 0.0010537, Final residual = 9.83625e-07, No Iterations 47
linear solve p 7062
time step continuity errors : sum local = 2.44366e-05, global = 1.031e-19, cumulative = 4.53309e-19
[OGL LOG] init_preconditioner : 0 ms
[OGL LOG] solve : 6 ms
BJcudaGKOCG:  Solving for p, Initial residual = 0.000625812, Final residual = 8.29344e-07, No Iterations 46
linear solve p 6915
time step continuity errors : sum local = 2.4423e-05, global = 2.15133e-19, cumulative = 6.68443e-19
ExecutionTime = 0.85 s  ClockTime = 1 s

Time = 0.06

Courant Number mean: 0.178489 max: 0.681727
DILUPBiCGStab:  Solving for Ux, Initial residual = 0.000193844, Final residual = 3.42724e-12, No Iterations 5
DILUPBiCGStab:  Solving for Uy, Initial residual = 0.00027924, Final residual = 8.35549e-11, No Iterations 5
DILUPBiCGStab:  Solving for Uz, Initial residual = 0.00217515, Final residual = 5.89187e-11, No Iterations 5
linear solve U 543
[OGL LOG] init_preconditioner : 0 ms
[OGL LOG] solve : 6 ms
BJcudaGKOCG:  Solving for p, Initial residual = 0.00042343, Final residual = 8.38761e-07, No Iterations 43
linear solve p 6536
time step continuity errors : sum local = 2.44319e-05, global = -1.3129e-19, cumulative = 5.37152e-19
[OGL LOG] init_preconditioner : 0 ms
[OGL LOG] solve : 6 ms
BJcudaGKOCG:  Solving for p, Initial residual = 0.000263122, Final residual = 9.59106e-07, No Iterations 41
linear solve p 6224
time step continuity errors : sum local = 2.44244e-05, global = -1.81252e-19, cumulative = 3.55901e-19
ExecutionTime = 0.86 s  ClockTime = 1 s

Time = 0.07

Courant Number mean: 0.178435 max: 0.68156
DILUPBiCGStab:  Solving for Ux, Initial residual = 9.15583e-05, Final residual = 1.03968e-12, No Iterations 5
DILUPBiCGStab:  Solving for Uy, Initial residual = 0.000124806, Final residual = 9.9863e-10, No Iterations 5
DILUPBiCGStab:  Solving for Uz, Initial residual = 0.00112512, Final residual = 2.65244e-11, No Iterations 5
linear solve U 544
[OGL LOG] init_preconditioner : 0 ms
[OGL LOG] solve : 6 ms
BJcudaGKOCG:  Solving for p, Initial residual = 0.000192508, Final residual = 7.29294e-07, No Iterations 41
linear solve p 6227
time step continuity errors : sum local = 2.44271e-05, global = 2.01832e-19, cumulative = 5.57733e-19
[OGL LOG] init_preconditioner : 0 ms
[OGL LOG] solve : 5 ms
BJcudaGKOCG:  Solving for p, Initial residual = 0.000117589, Final residual = 6.73174e-07, No Iterations 40
linear solve p 6134
time step continuity errors : sum local = 2.44256e-05, global = 2.20758e-19, cumulative = 7.78491e-19
ExecutionTime = 0.88 s  ClockTime = 1 s

Time = 0.08

Courant Number mean: 0.178409 max: 0.681485
DILUPBiCGStab:  Solving for Ux, Initial residual = 4.53213e-05, Final residual = 3.55041e-13, No Iterations 5
DILUPBiCGStab:  Solving for Uy, Initial residual = 5.92056e-05, Final residual = 8.283e-12, No Iterations 5
DILUPBiCGStab:  Solving for Uz, Initial residual = 0.000588421, Final residual = 1.23284e-11, No Iterations 5
linear solve U 576
[OGL LOG] init_preconditioner : 0 ms
[OGL LOG] solve : 5 ms
BJcudaGKOCG:  Solving for p, Initial residual = 9.35077e-05, Final residual = 7.58666e-07, No Iterations 39
linear solve p 6023
time step continuity errors : sum local = 2.44257e-05, global = -7.43073e-19, cumulative = 3.54178e-20
[OGL LOG] init_preconditioner : 0 ms
[OGL LOG] solve : 2 ms
BJcudaGKOCG:  Solving for p, Initial residual = 5.76564e-05, Final residual = 9.49195e-07, No Iterations 18
linear solve p 3140
time step continuity errors : sum local = 2.4434e-05, global = 5.3469e-19, cumulative = 5.70107e-19
ExecutionTime = 0.89 s  ClockTime = 1 s

Time = 0.09

Courant Number mean: 0.178396 max: 0.681452
DILUPBiCGStab:  Solving for Ux, Initial residual = 2.3028e-05, Final residual = 1.3173e-13, No Iterations 5
DILUPBiCGStab:  Solving for Uy, Initial residual = 2.89566e-05, Final residual = 1.45968e-12, No Iterations 5
DILUPBiCGStab:  Solving for Uz, Initial residual = 0.000308771, Final residual = 5.46582e-12, No Iterations 5
linear solve U 547
[OGL LOG] init_preconditioner : 0 ms
[OGL LOG] solve : 2 ms
BJcudaGKOCG:  Solving for p, Initial residual = 4.65247e-05, Final residual = 8.23542e-07, No Iterations 17
linear solve p 2956
time step continuity errors : sum local = 2.44342e-05, global = 1.35724e-19, cumulative = 7.05831e-19
[OGL LOG] init_preconditioner : 0 ms
[OGL LOG] solve : 2 ms
BJcudaGKOCG:  Solving for p, Initial residual = 2.83598e-05, Final residual = 9.8274e-07, No Iterations 15
linear solve p 2725
time step continuity errors : sum local = 2.4434e-05, global = -5.83526e-19, cumulative = 1.22305e-19
ExecutionTime = 0.89 s  ClockTime = 1 s

Time = 0.1

Courant Number mean: 0.17839 max: 0.681436
DILUPBiCGStab:  Solving for Ux, Initial residual = 1.16427e-05, Final residual = 4.96878e-14, No Iterations 5
DILUPBiCGStab:  Solving for Uy, Initial residual = 1.45637e-05, Final residual = 7.54995e-13, No Iterations 5
DILUPBiCGStab:  Solving for Uz, Initial residual = 0.000161054, Final residual = 3.23427e-12, No Iterations 5
linear solve U 544
[OGL LOG] init_preconditioner : 0 ms
[OGL LOG] solve : 2 ms
BJcudaGKOCG:  Solving for p, Initial residual = 2.36089e-05, Final residual = 7.77725e-07, No Iterations 15
linear solve p 2672
time step continuity errors : sum local = 2.44318e-05, global = 1.45749e-19, cumulative = 2.68054e-19
[OGL LOG] init_preconditioner : 0 ms
[OGL LOG] solve : 2 ms
BJcudaGKOCG:  Solving for p, Initial residual = 1.46883e-05, Final residual = 8.16195e-07, No Iterations 14
linear solve p 2585
time step continuity errors : sum local = 2.44328e-05, global = -6.10128e-20, cumulative = 2.07041e-19
ExecutionTime = 0.9 s  ClockTime = 1 s

End

