/*---------------------------------------------------------------------------*\
  =========                 |
  \\      /  F ield         | OpenFOAM: The Open Source CFD Toolbox
   \\    /   O peration     | Website:  https://openfoam.org
    \\  /    A nd           | Version:  8
     \\/     M anipulation  |
\*---------------------------------------------------------------------------*/
Build  : 8-ef60d22ea792
Exec   : icoFoam
Date   : Sep 11 2021
Time   : 13:36:32
Host   : "uc2n513.localdomain"
PID    : 214911
I/O    : uncollated
Case   : /pfs/data5/home/kit/scc/nq7776/data/code/OBR/lidDrivenCavity3D/Variation_init/100/Variation_mesh/15/Variation_matrix_solver/BiCGStab_ILU_CUDA/1631360190
nProcs : 1
sigFpe : Enabling floating point exception trapping (FOAM_SIGFPE).
fileModificationChecking : Monitoring run-time modified files using timeStampMaster (fileModificationSkew 10)
allowSystemOperations : Allowing user-supplied system call operations

// * * * * * * * * * * * * * * * * * * * * * * * * * * * * * * * * * * * * * //
Create time

Create mesh for time = 0

Reading transportProperties

Reading field p

Reading field U

Reading/calculating face flux field phi


Starting time loop

Time = 0.00666667

Courant Number mean: 0.187217 max: 0.790057
DILUPBiCGStab:  Solving for Ux, Initial residual = 0.0835146, Final residual = 3.83698e-08, No Iterations 5
DILUPBiCGStab:  Solving for Uy, Initial residual = 0.111321, Final residual = 3.87051e-08, No Iterations 5
DILUPBiCGStab:  Solving for Uz, Initial residual = 0.145849, Final residual = 7.53903e-08, No Iterations 5
linear solve U 2433
[OGL LOG] init_host_sparsity_pattern : 0 ms
[OGL LOG] matrix not stored update host matrix
[OGL LOG] update_host_mtx : 0 ms
[OGL LOG] matrix is not yet sorted, compute sorting idxs
[OGL LOG] compute_sort : 19 ms
[OGL LOG] matrix is not yet sorted, sorting host matrix
[OGL LOG] sort_host_mtx_sparsity_pattern : 0 ms
[OGL LOG] sort_host_mtx : 0 ms
[OGL LOG] init_preconditioner : 4 ms
[OGL LOG] solve : 18 ms
ILUcudaGKOBiCGStab:  Solving for p, Initial residual = 0.518065, Final residual = 9.79955e-07, No Iterations 30
linear solve p 777030
time step continuity errors : sum local = 1.38575e-08, global = 1.56441e-20, cumulative = 1.56441e-20
[OGL LOG] init_preconditioner : 0 ms
[OGL LOG] solve : 16 ms
ILUcudaGKOBiCGStab:  Solving for p, Initial residual = 0.278332, Final residual = 5.52669e-07, No Iterations 28
linear solve p 17122
time step continuity errors : sum local = 5.82076e-09, global = -2.773e-19, cumulative = -2.61656e-19
ExecutionTime = 0.85 s  ClockTime = 1 s

Time = 0.0133333

Courant Number mean: 0.185914 max: 0.794343
DILUPBiCGStab:  Solving for Ux, Initial residual = 0.016242, Final residual = 5.6933e-08, No Iterations 5
DILUPBiCGStab:  Solving for Uy, Initial residual = 0.0262103, Final residual = 4.98198e-08, No Iterations 5
DILUPBiCGStab:  Solving for Uz, Initial residual = 0.0639928, Final residual = 6.17549e-08, No Iterations 5
linear solve U 1856
[OGL LOG] init_preconditioner : 0 ms
[OGL LOG] solve : 17 ms
ILUcudaGKOBiCGStab:  Solving for p, Initial residual = 0.140651, Final residual = 4.22173e-07, No Iterations 30
linear solve p 18128
time step continuity errors : sum local = 1.33193e-05, global = -2.88984e-19, cumulative = -5.5064e-19
[OGL LOG] init_preconditioner : 0 ms
[OGL LOG] solve : 16 ms
ILUcudaGKOBiCGStab:  Solving for p, Initial residual = 0.0811022, Final residual = 8.77908e-07, No Iterations 28
linear solve p 16763
time step continuity errors : sum local = 1.20517e-05, global = -1.4018e-19, cumulative = -6.90819e-19
ExecutionTime = 0.88 s  ClockTime = 1 s

Time = 0.02

Courant Number mean: 0.185268 max: 0.792426
DILUPBiCGStab:  Solving for Ux, Initial residual = 0.0020022, Final residual = 2.67393e-09, No Iterations 5
DILUPBiCGStab:  Solving for Uy, Initial residual = 0.00389607, Final residual = 2.46623e-09, No Iterations 5
DILUPBiCGStab:  Solving for Uz, Initial residual = 0.0127568, Final residual = 2.71904e-08, No Iterations 5
linear solve U 1834
[OGL LOG] init_preconditioner : 0 ms
[OGL LOG] solve : 12 ms
ILUcudaGKOBiCGStab:  Solving for p, Initial residual = 0.0223149, Final residual = 4.56338e-07, No Iterations 21
linear solve p 12707
time step continuity errors : sum local = 1.18979e-05, global = -2.44801e-19, cumulative = -9.35621e-19
[OGL LOG] init_preconditioner : 0 ms
[OGL LOG] solve : 14 ms
ILUcudaGKOBiCGStab:  Solving for p, Initial residual = 0.0134723, Final residual = 9.75162e-07, No Iterations 25
linear solve p 14995
time step continuity errors : sum local = 1.19883e-05, global = 1.90891e-19, cumulative = -7.44729e-19
ExecutionTime = 0.92 s  ClockTime = 1 s

Time = 0.0266667

Courant Number mean: 0.185122 max: 0.79228
DILUPBiCGStab:  Solving for Ux, Initial residual = 0.00063449, Final residual = 1.1955e-09, No Iterations 5
DILUPBiCGStab:  Solving for Uy, Initial residual = 0.000907404, Final residual = 1.54486e-09, No Iterations 5
DILUPBiCGStab:  Solving for Uz, Initial residual = 0.00476227, Final residual = 6.82057e-09, No Iterations 5
linear solve U 1831
[OGL LOG] init_preconditioner : 0 ms
[OGL LOG] solve : 12 ms
ILUcudaGKOBiCGStab:  Solving for p, Initial residual = 0.00545586, Final residual = 8.50261e-07, No Iterations 21
linear solve p 13052
time step continuity errors : sum local = 1.20088e-05, global = -4.72927e-20, cumulative = -7.92022e-19
[OGL LOG] init_preconditioner : 0 ms
[OGL LOG] solve : 13 ms
ILUcudaGKOBiCGStab:  Solving for p, Initial residual = 0.00358322, Final residual = 7.57219e-07, No Iterations 22
linear solve p 13591
time step continuity errors : sum local = 1.19924e-05, global = 6.67259e-20, cumulative = -7.25296e-19
ExecutionTime = 0.95 s  ClockTime = 1 s

Time = 0.0333333

Courant Number mean: 0.185036 max: 0.792187
DILUPBiCGStab:  Solving for Ux, Initial residual = 0.000241831, Final residual = 3.28037e-10, No Iterations 5
DILUPBiCGStab:  Solving for Uy, Initial residual = 0.000421269, Final residual = 7.8841e-10, No Iterations 5
DILUPBiCGStab:  Solving for Uz, Initial residual = 0.00230225, Final residual = 4.12234e-09, No Iterations 5
linear solve U 1825
[OGL LOG] init_preconditioner : 0 ms
[OGL LOG] solve : 6 ms
ILUcudaGKOBiCGStab:  Solving for p, Initial residual = 0.00188205, Final residual = 8.82395e-07, No Iterations 10
linear solve p 6501
time step continuity errors : sum local = 1.19962e-05, global = -1.90715e-19, cumulative = -9.16011e-19
[OGL LOG] init_preconditioner : 0 ms
[OGL LOG] solve : 5 ms
ILUcudaGKOBiCGStab:  Solving for p, Initial residual = 0.00125013, Final residual = 7.29561e-07, No Iterations 9
linear solve p 6190
time step continuity errors : sum local = 1.19935e-05, global = -3.21145e-19, cumulative = -1.23716e-18
ExecutionTime = 0.97 s  ClockTime = 1 s

Time = 0.04

Courant Number mean: 0.18499 max: 0.792067
DILUPBiCGStab:  Solving for Ux, Initial residual = 0.000128157, Final residual = 1.49492e-10, No Iterations 5
DILUPBiCGStab:  Solving for Uy, Initial residual = 0.000187849, Final residual = 2.51691e-10, No Iterations 5
DILUPBiCGStab:  Solving for Uz, Initial residual = 0.001353, Final residual = 2.48122e-09, No Iterations 5
linear solve U 1871
[OGL LOG] init_preconditioner : 0 ms
[OGL LOG] solve : 6 ms
ILUcudaGKOBiCGStab:  Solving for p, Initial residual = 0.000628964, Final residual = 7.65543e-07, No Iterations 10
linear solve p 6748
time step continuity errors : sum local = 1.19987e-05, global = -2.82852e-19, cumulative = -1.52001e-18
[OGL LOG] init_preconditioner : 0 ms
[OGL LOG] solve : 6 ms
ILUcudaGKOBiCGStab:  Solving for p, Initial residual = 0.000411554, Final residual = 6.21799e-07, No Iterations 9
linear solve p 6265
time step continuity errors : sum local = 1.19949e-05, global = 9.8997e-20, cumulative = -1.42101e-18
ExecutionTime = 0.98 s  ClockTime = 1 s

Time = 0.0466667

Courant Number mean: 0.184967 max: 0.792015
DILUPBiCGStab:  Solving for Ux, Initial residual = 6.80352e-05, Final residual = 6.5183e-11, No Iterations 5
DILUPBiCGStab:  Solving for Uy, Initial residual = 0.000104287, Final residual = 1.2458e-10, No Iterations 5
DILUPBiCGStab:  Solving for Uz, Initial residual = 0.000802713, Final residual = 1.46268e-09, No Iterations 5
linear solve U 1972
[OGL LOG] init_preconditioner : 0 ms
[OGL LOG] solve : 5 ms
ILUcudaGKOBiCGStab:  Solving for p, Initial residual = 0.000261305, Final residual = 6.83307e-07, No Iterations 8
linear solve p 5658
time step continuity errors : sum local = 1.19963e-05, global = -1.73333e-19, cumulative = -1.59434e-18
[OGL LOG] init_preconditioner : 0 ms
[OGL LOG] solve : 5 ms
ILUcudaGKOBiCGStab:  Solving for p, Initial residual = 0.000180148, Final residual = 6.9408e-07, No Iterations 8
linear solve p 5621
time step continuity errors : sum local = 1.19951e-05, global = 1.27628e-19, cumulative = -1.46671e-18
ExecutionTime = 0.99 s  ClockTime = 1 s

Time = 0.0533333

Courant Number mean: 0.184956 max: 0.791982
DILUPBiCGStab:  Solving for Ux, Initial residual = 3.97889e-05, Final residual = 3.25643e-11, No Iterations 5
DILUPBiCGStab:  Solving for Uy, Initial residual = 5.70039e-05, Final residual = 2.74377e-11, No Iterations 5
DILUPBiCGStab:  Solving for Uz, Initial residual = 0.00049418, Final residual = 7.1528e-10, No Iterations 5
linear solve U 1822
[OGL LOG] init_preconditioner : 0 ms
[OGL LOG] solve : 5 ms
ILUcudaGKOBiCGStab:  Solving for p, Initial residual = 0.000113768, Final residual = 8.96409e-07, No Iterations 8
linear solve p 5581
time step continuity errors : sum local = 1.19974e-05, global = 5.17043e-20, cumulative = -1.41501e-18
[OGL LOG] init_preconditioner : 0 ms
[OGL LOG] solve : 5 ms
ILUcudaGKOBiCGStab:  Solving for p, Initial residual = 7.93808e-05, Final residual = 9.57152e-07, No Iterations 8
linear solve p 5292
time step continuity errors : sum local = 1.19966e-05, global = 2.77558e-19, cumulative = -1.13745e-18
ExecutionTime = 1.01 s  ClockTime = 1 s

Time = 0.06

Courant Number mean: 0.18495 max: 0.791965
DILUPBiCGStab:  Solving for Ux, Initial residual = 2.37229e-05, Final residual = 2.10722e-11, No Iterations 5
DILUPBiCGStab:  Solving for Uy, Initial residual = 3.28964e-05, Final residual = 1.53611e-11, No Iterations 5
DILUPBiCGStab:  Solving for Uz, Initial residual = 0.000303872, Final residual = 4.00807e-10, No Iterations 5
linear solve U 1823
[OGL LOG] init_preconditioner : 0 ms
[OGL LOG] solve : 4 ms
ILUcudaGKOBiCGStab:  Solving for p, Initial residual = 5.71679e-05, Final residual = 8.52217e-07, No Iterations 7
linear solve p 5016
time step continuity errors : sum local = 1.19964e-05, global = -8.23872e-20, cumulative = -1.21984e-18
[OGL LOG] init_preconditioner : 0 ms
[OGL LOG] solve : 4 ms
ILUcudaGKOBiCGStab:  Solving for p, Initial residual = 4.07306e-05, Final residual = 9.93144e-07, No Iterations 6
linear solve p 4429
time step continuity errors : sum local = 1.19969e-05, global = -9.85338e-20, cumulative = -1.31837e-18
ExecutionTime = 1.02 s  ClockTime = 1 s

Time = 0.0666667

Courant Number mean: 0.184948 max: 0.791956
DILUPBiCGStab:  Solving for Ux, Initial residual = 1.44423e-05, Final residual = 1.27478e-11, No Iterations 5
DILUPBiCGStab:  Solving for Uy, Initial residual = 1.94366e-05, Final residual = 8.76882e-12, No Iterations 5
DILUPBiCGStab:  Solving for Uz, Initial residual = 0.000190041, Final residual = 2.1584e-10, No Iterations 5
linear solve U 1836
[OGL LOG] init_preconditioner : 0 ms
[OGL LOG] solve : 4 ms
ILUcudaGKOBiCGStab:  Solving for p, Initial residual = 3.20883e-05, Final residual = 9.7076e-07, No Iterations 6
linear solve p 4513
time step continuity errors : sum local = 1.19967e-05, global = -7.16228e-20, cumulative = -1.39e-18
[OGL LOG] init_preconditioner : 0 ms
[OGL LOG] solve : 3 ms
ILUcudaGKOBiCGStab:  Solving for p, Initial residual = 2.31902e-05, Final residual = 9.87374e-07, No Iterations 5
linear solve p 3900
time step continuity errors : sum local = 1.19965e-05, global = -2.90329e-19, cumulative = -1.68033e-18
ExecutionTime = 1.04 s  ClockTime = 1 s

End

