/*---------------------------------------------------------------------------*\
  =========                 |
  \\      /  F ield         | OpenFOAM: The Open Source CFD Toolbox
   \\    /   O peration     | Website:  https://openfoam.org
    \\  /    A nd           | Version:  8
     \\/     M anipulation  |
\*---------------------------------------------------------------------------*/
Build  : 8-ef60d22ea792
Exec   : icoFoam
Date   : Sep 11 2021
Time   : 14:14:13
Host   : "uc2n442.localdomain"
PID    : 3720409
I/O    : uncollated
Case   : /pfs/data5/home/kit/scc/nq7776/data/code/OBR/lidDrivenCavity3D/Variation_init/100/Variation_mesh/30/Variation_matrix_solver/BiCGStab_DIC_Serial/1631362452
nProcs : 1
sigFpe : Enabling floating point exception trapping (FOAM_SIGFPE).
fileModificationChecking : Monitoring run-time modified files using timeStampMaster (fileModificationSkew 10)
allowSystemOperations : Allowing user-supplied system call operations

// * * * * * * * * * * * * * * * * * * * * * * * * * * * * * * * * * * * * * //
Create time

Create mesh for time = 0

Reading transportProperties

Reading field p

Reading field U

Reading/calculating face flux field phi


Starting time loop

Time = 0.00333333

Courant Number mean: 0.190329 max: 0.906243
DILUPBiCGStab:  Solving for Ux, Initial residual = 0.0900001, Final residual = 1.98559e-06, No Iterations 5
DILUPBiCGStab:  Solving for Uy, Initial residual = 0.151485, Final residual = 4.47204e-06, No Iterations 5
DILUPBiCGStab:  Solving for Uz, Initial residual = 0.230061, Final residual = 9.55411e-06, No Iterations 5
linear solve U 19859
DICPBiCGStab:  Solving for p, Initial residual = 0.532173, Final residual = 9.9452e-07, No Iterations 59
linear solve p 55854
time step continuity errors : sum local = 4.84405e-09, global = -3.32165e-22, cumulative = -3.32165e-22
DICPBiCGStab:  Solving for p, Initial residual = 0.319499, Final residual = 2.67098e-07, No Iterations 56
linear solve p 52166
time step continuity errors : sum local = 1.0078e-09, global = 2.69432e-20, cumulative = 2.6611e-20
ExecutionTime = 0.3 s  ClockTime = 1 s

Time = 0.00666667

Courant Number mean: 0.190231 max: 0.898516
DILUPBiCGStab:  Solving for Ux, Initial residual = 0.00891591, Final residual = 1.50306e-06, No Iterations 5
DILUPBiCGStab:  Solving for Uy, Initial residual = 0.0168194, Final residual = 2.62212e-06, No Iterations 5
DILUPBiCGStab:  Solving for Uz, Initial residual = 0.0471891, Final residual = 5.57708e-06, No Iterations 5
linear solve U 17870
DICPBiCGStab:  Solving for p, Initial residual = 0.154329, Final residual = 9.97365e-07, No Iterations 34
linear solve p 31458
time step continuity errors : sum local = 3.23123e-09, global = 2.11078e-20, cumulative = 4.77189e-20
DICPBiCGStab:  Solving for p, Initial residual = 0.094158, Final residual = 7.55674e-07, No Iterations 58
linear solve p 53589
time step continuity errors : sum local = 2.48918e-09, global = -1.59853e-19, cumulative = -1.12135e-19
ExecutionTime = 0.41 s  ClockTime = 1 s

Time = 0.01

Courant Number mean: 0.190017 max: 0.896754
DILUPBiCGStab:  Solving for Ux, Initial residual = 0.00114138, Final residual = 3.28677e-07, No Iterations 5
DILUPBiCGStab:  Solving for Uy, Initial residual = 0.0026389, Final residual = 3.36493e-07, No Iterations 5
DILUPBiCGStab:  Solving for Uz, Initial residual = 0.0129683, Final residual = 1.52158e-06, No Iterations 5
linear solve U 17647
DICPBiCGStab:  Solving for p, Initial residual = 0.0505173, Final residual = 3.79173e-07, No Iterations 56
linear solve p 51685
time step continuity errors : sum local = 1.1543e-09, global = -1.17884e-19, cumulative = -2.30019e-19
DICPBiCGStab:  Solving for p, Initial residual = 0.0335399, Final residual = 9.97787e-07, No Iterations 47
linear solve p 43838
time step continuity errors : sum local = 5.91678e-09, global = -2.1275e-19, cumulative = -4.42769e-19
ExecutionTime = 0.53 s  ClockTime = 1 s

Time = 0.0133333

Courant Number mean: 0.189923 max: 0.896669
DILUPBiCGStab:  Solving for Ux, Initial residual = 0.000491062, Final residual = 9.847e-08, No Iterations 5
DILUPBiCGStab:  Solving for Uy, Initial residual = 0.000979264, Final residual = 1.12117e-07, No Iterations 5
DILUPBiCGStab:  Solving for Uz, Initial residual = 0.00354152, Final residual = 4.02605e-07, No Iterations 5
linear solve U 17714
DICPBiCGStab:  Solving for p, Initial residual = 0.0231828, Final residual = 9.00564e-07, No Iterations 42
linear solve p 38978
time step continuity errors : sum local = 5.25096e-09, global = 4.25959e-20, cumulative = -4.00173e-19
DICPBiCGStab:  Solving for p, Initial residual = 0.0159572, Final residual = 5.56769e-07, No Iterations 23
linear solve p 21339
time step continuity errors : sum local = 2.26608e-09, global = 2.4854e-20, cumulative = -3.75319e-19
ExecutionTime = 0.62 s  ClockTime = 1 s

Time = 0.0166667

Courant Number mean: 0.189872 max: 0.896515
DILUPBiCGStab:  Solving for Ux, Initial residual = 0.000223295, Final residual = 4.39491e-08, No Iterations 5
DILUPBiCGStab:  Solving for Uy, Initial residual = 0.000483624, Final residual = 4.70215e-08, No Iterations 5
DILUPBiCGStab:  Solving for Uz, Initial residual = 0.00174214, Final residual = 2.3241e-07, No Iterations 5
linear solve U 17667
DICPBiCGStab:  Solving for p, Initial residual = 0.0115015, Final residual = 9.41587e-07, No Iterations 27
linear solve p 24940
time step continuity errors : sum local = 5.4693e-09, global = -1.7126e-19, cumulative = -5.46579e-19
DICPBiCGStab:  Solving for p, Initial residual = 0.00800066, Final residual = 8.92781e-07, No Iterations 24
linear solve p 22381
time step continuity errors : sum local = 3.55306e-09, global = -5.50199e-20, cumulative = -6.01599e-19
ExecutionTime = 0.7 s  ClockTime = 1 s

Time = 0.02

Courant Number mean: 0.189842 max: 0.896522
DILUPBiCGStab:  Solving for Ux, Initial residual = 0.000133576, Final residual = 2.23285e-08, No Iterations 5
DILUPBiCGStab:  Solving for Uy, Initial residual = 0.000257259, Final residual = 2.49131e-08, No Iterations 5
DILUPBiCGStab:  Solving for Uz, Initial residual = 0.000898944, Final residual = 1.11815e-07, No Iterations 5
linear solve U 17606
DICPBiCGStab:  Solving for p, Initial residual = 0.00603634, Final residual = 4.7864e-07, No Iterations 22
linear solve p 20487
time step continuity errors : sum local = 2.55523e-09, global = -1.65662e-20, cumulative = -6.18165e-19
DICPBiCGStab:  Solving for p, Initial residual = 0.0042427, Final residual = 4.46974e-07, No Iterations 23
linear solve p 21554
time step continuity errors : sum local = 1.41026e-09, global = 9.11694e-20, cumulative = -5.26996e-19
ExecutionTime = 0.77 s  ClockTime = 1 s

Time = 0.0233333

Courant Number mean: 0.189822 max: 0.896474
DILUPBiCGStab:  Solving for Ux, Initial residual = 7.51243e-05, Final residual = 1.08757e-08, No Iterations 5
DILUPBiCGStab:  Solving for Uy, Initial residual = 0.000145587, Final residual = 1.23787e-08, No Iterations 5
DILUPBiCGStab:  Solving for Uz, Initial residual = 0.000593716, Final residual = 6.89218e-08, No Iterations 5
linear solve U 17703
DICPBiCGStab:  Solving for p, Initial residual = 0.00319042, Final residual = 9.03996e-07, No Iterations 21
linear solve p 19655
time step continuity errors : sum local = 4.26827e-09, global = -1.76731e-20, cumulative = -5.44669e-19
DICPBiCGStab:  Solving for p, Initial residual = 0.00224799, Final residual = 9.86599e-07, No Iterations 20
linear solve p 18671
time step continuity errors : sum local = 3.55213e-09, global = -1.09671e-19, cumulative = -6.5434e-19
ExecutionTime = 0.84 s  ClockTime = 1 s

Time = 0.0266667

Courant Number mean: 0.18981 max: 0.89647
DILUPBiCGStab:  Solving for Ux, Initial residual = 4.91554e-05, Final residual = 6.21079e-09, No Iterations 5
DILUPBiCGStab:  Solving for Uy, Initial residual = 8.38261e-05, Final residual = 6.90365e-09, No Iterations 5
DILUPBiCGStab:  Solving for Uz, Initial residual = 0.000383473, Final residual = 4.81786e-08, No Iterations 5
linear solve U 17756
DICPBiCGStab:  Solving for p, Initial residual = 0.00173885, Final residual = 5.23888e-07, No Iterations 20
linear solve p 18685
time step continuity errors : sum local = 2.15143e-09, global = 5.75818e-20, cumulative = -5.96758e-19
DICPBiCGStab:  Solving for p, Initial residual = 0.00123192, Final residual = 5.97152e-07, No Iterations 20
linear solve p 18668
time step continuity errors : sum local = 1.77151e-09, global = 9.43027e-21, cumulative = -5.87327e-19
ExecutionTime = 0.91 s  ClockTime = 1 s

Time = 0.03

Courant Number mean: 0.189802 max: 0.896454
DILUPBiCGStab:  Solving for Ux, Initial residual = 3.03886e-05, Final residual = 3.00271e-09, No Iterations 5
DILUPBiCGStab:  Solving for Uy, Initial residual = 5.43598e-05, Final residual = 3.07776e-09, No Iterations 5
DILUPBiCGStab:  Solving for Uz, Initial residual = 0.000288964, Final residual = 2.52727e-08, No Iterations 5
linear solve U 17826
DICPBiCGStab:  Solving for p, Initial residual = 0.000943011, Final residual = 9.16117e-07, No Iterations 19
linear solve p 17756
time step continuity errors : sum local = 4.00437e-09, global = 5.18402e-20, cumulative = -5.35487e-19
DICPBiCGStab:  Solving for p, Initial residual = 0.000671589, Final residual = 8.74811e-07, No Iterations 18
linear solve p 16861
time step continuity errors : sum local = 3.15088e-09, global = 6.17972e-20, cumulative = -4.7369e-19
ExecutionTime = 0.97 s  ClockTime = 1 s

Time = 0.0333333

Courant Number mean: 0.189797 max: 0.896449
DILUPBiCGStab:  Solving for Ux, Initial residual = 2.14225e-05, Final residual = 1.77214e-09, No Iterations 5
DILUPBiCGStab:  Solving for Uy, Initial residual = 3.25463e-05, Final residual = 1.86248e-09, No Iterations 5
DILUPBiCGStab:  Solving for Uz, Initial residual = 0.00020206, Final residual = 2.04078e-08, No Iterations 5
linear solve U 17980
DICPBiCGStab:  Solving for p, Initial residual = 0.000524385, Final residual = 8.29173e-07, No Iterations 20
linear solve p 18695
time step continuity errors : sum local = 2.91528e-09, global = 3.3101e-20, cumulative = -4.40589e-19
DICPBiCGStab:  Solving for p, Initial residual = 0.000375166, Final residual = 4.42733e-07, No Iterations 20
linear solve p 18754
time step continuity errors : sum local = 1.3821e-09, global = -4.61706e-20, cumulative = -4.8676e-19
ExecutionTime = 1.04 s  ClockTime = 1 s

End

