/*---------------------------------------------------------------------------*\
  =========                 |
  \\      /  F ield         | OpenFOAM: The Open Source CFD Toolbox
   \\    /   O peration     | Website:  https://openfoam.org
    \\  /    A nd           | Version:  8
     \\/     M anipulation  |
\*---------------------------------------------------------------------------*/
Build  : 8-ef60d22ea792
Exec   : icoFoam
Date   : Sep 11 2021
Time   : 14:58:54
Host   : "uc2n442.localdomain"
PID    : 3725432
I/O    : uncollated
Case   : /pfs/data5/home/kit/scc/nq7776/data/code/OBR/lidDrivenCavity3D/Variation_init/100/Variation_mesh/45/Variation_matrix_solver/CG_DIC_Serial/1631365131
nProcs : 1
sigFpe : Enabling floating point exception trapping (FOAM_SIGFPE).
fileModificationChecking : Monitoring run-time modified files using timeStampMaster (fileModificationSkew 10)
allowSystemOperations : Allowing user-supplied system call operations

// * * * * * * * * * * * * * * * * * * * * * * * * * * * * * * * * * * * * * //
Create time

Create mesh for time = 0

Reading transportProperties

Reading field p

Reading field U

Reading/calculating face flux field phi


Starting time loop

Time = 0.00222222

Courant Number mean: 0.190928 max: 0.914047
DILUPBiCGStab:  Solving for Ux, Initial residual = 0.0595792, Final residual = 4.86933e-06, No Iterations 5
DILUPBiCGStab:  Solving for Uy, Initial residual = 0.0975024, Final residual = 1.18416e-05, No Iterations 5
DILUPBiCGStab:  Solving for Uz, Initial residual = 0.125234, Final residual = 3.53848e-05, No Iterations 5
linear solve U 78756
DICPCG:  Solving for p, Initial residual = 0.429284, Final residual = 8.74398e-07, No Iterations 117
linear solve p 201285
time step continuity errors : sum local = 1.6766e-09, global = -5.05073e-20, cumulative = -5.05073e-20
DICPCG:  Solving for p, Initial residual = 0.201177, Final residual = 6.7688e-07, No Iterations 117
linear solve p 200064
time step continuity errors : sum local = 1.21869e-09, global = 6.00888e-20, cumulative = 9.58155e-21
ExecutionTime = 0.96 s  ClockTime = 1 s

Time = 0.00444444

Courant Number mean: 0.190905 max: 0.929693
DILUPBiCGStab:  Solving for Ux, Initial residual = 0.00558483, Final residual = 5.75157e-06, No Iterations 5
DILUPBiCGStab:  Solving for Uy, Initial residual = 0.0107013, Final residual = 1.18917e-05, No Iterations 5
DILUPBiCGStab:  Solving for Uz, Initial residual = 0.0268263, Final residual = 2.92473e-05, No Iterations 5
linear solve U 70251
DICPCG:  Solving for p, Initial residual = 0.226316, Final residual = 7.05952e-07, No Iterations 117
linear solve p 199431
time step continuity errors : sum local = 1.08221e-09, global = -2.42769e-20, cumulative = -1.46953e-20
DICPCG:  Solving for p, Initial residual = 0.154087, Final residual = 8.45438e-07, No Iterations 116
linear solve p 197430
time step continuity errors : sum local = 1.22622e-09, global = -2.27685e-20, cumulative = -3.74639e-20
ExecutionTime = 1.47 s  ClockTime = 1 s

Time = 0.00666667

Courant Number mean: 0.190867 max: 0.930874
DILUPBiCGStab:  Solving for Ux, Initial residual = 0.00160088, Final residual = 1.97004e-06, No Iterations 5
DILUPBiCGStab:  Solving for Uy, Initial residual = 0.00403765, Final residual = 4.8098e-06, No Iterations 5
DILUPBiCGStab:  Solving for Uz, Initial residual = 0.0116513, Final residual = 1.17e-05, No Iterations 5
linear solve U 69873
DICPCG:  Solving for p, Initial residual = 0.101694, Final residual = 8.69842e-07, No Iterations 114
linear solve p 195228
time step continuity errors : sum local = 1.24474e-09, global = 3.0447e-20, cumulative = -7.01685e-21
DICPCG:  Solving for p, Initial residual = 0.0701923, Final residual = 8.27577e-07, No Iterations 113
linear solve p 193456
time step continuity errors : sum local = 1.1926e-09, global = -1.68342e-20, cumulative = -2.38511e-20
ExecutionTime = 1.97 s  ClockTime = 2 s

Time = 0.00888889

Courant Number mean: 0.190895 max: 0.931103
DILUPBiCGStab:  Solving for Ux, Initial residual = 0.000646283, Final residual = 9.83058e-07, No Iterations 5
DILUPBiCGStab:  Solving for Uy, Initial residual = 0.00163889, Final residual = 1.63725e-06, No Iterations 5
DILUPBiCGStab:  Solving for Uz, Initial residual = 0.00471968, Final residual = 4.57829e-06, No Iterations 5
linear solve U 69755
DICPCG:  Solving for p, Initial residual = 0.0528936, Final residual = 6.93974e-07, No Iterations 112
linear solve p 192086
time step continuity errors : sum local = 9.48342e-10, global = -5.07488e-21, cumulative = -2.89259e-20
DICPCG:  Solving for p, Initial residual = 0.0383933, Final residual = 8.46936e-07, No Iterations 111
linear solve p 190162
time step continuity errors : sum local = 1.14925e-09, global = -1.73109e-20, cumulative = -4.62368e-20
ExecutionTime = 2.47 s  ClockTime = 2 s

Time = 0.0111111

Courant Number mean: 0.190873 max: 0.931033
DILUPBiCGStab:  Solving for Ux, Initial residual = 0.000313637, Final residual = 3.36121e-07, No Iterations 5
DILUPBiCGStab:  Solving for Uy, Initial residual = 0.000835219, Final residual = 8.23338e-07, No Iterations 5
DILUPBiCGStab:  Solving for Uz, Initial residual = 0.00234942, Final residual = 2.20906e-06, No Iterations 5
linear solve U 69143
DICPCG:  Solving for p, Initial residual = 0.0293647, Final residual = 8.41869e-07, No Iterations 109
linear solve p 187549
time step continuity errors : sum local = 1.14827e-09, global = 4.3988e-20, cumulative = -2.24878e-21
DICPCG:  Solving for p, Initial residual = 0.0215211, Final residual = 8.5272e-07, No Iterations 108
linear solve p 184955
time step continuity errors : sum local = 1.16591e-09, global = -1.43004e-20, cumulative = -1.65492e-20
ExecutionTime = 2.95 s  ClockTime = 3 s

Time = 0.0133333

Courant Number mean: 0.190876 max: 0.931058
DILUPBiCGStab:  Solving for Ux, Initial residual = 0.000178939, Final residual = 2.32258e-07, No Iterations 5
DILUPBiCGStab:  Solving for Uy, Initial residual = 0.000452408, Final residual = 4.23281e-07, No Iterations 5
DILUPBiCGStab:  Solving for Uz, Initial residual = 0.00128994, Final residual = 1.18244e-06, No Iterations 5
linear solve U 70387
DICPCG:  Solving for p, Initial residual = 0.0175472, Final residual = 9.99974e-07, No Iterations 104
linear solve p 178111
time step continuity errors : sum local = 1.35167e-09, global = -2.98076e-20, cumulative = -4.63568e-20
DICPCG:  Solving for p, Initial residual = 0.0130377, Final residual = 8.53278e-07, No Iterations 104
linear solve p 179338
time step continuity errors : sum local = 1.15183e-09, global = -3.96299e-20, cumulative = -8.59867e-20
ExecutionTime = 3.42 s  ClockTime = 3 s

Time = 0.0155556

Courant Number mean: 0.190871 max: 0.931023
DILUPBiCGStab:  Solving for Ux, Initial residual = 0.000105788, Final residual = 1.10562e-07, No Iterations 5
DILUPBiCGStab:  Solving for Uy, Initial residual = 0.000276315, Final residual = 2.78265e-07, No Iterations 5
DILUPBiCGStab:  Solving for Uz, Initial residual = 0.000765097, Final residual = 5.55624e-07, No Iterations 5
linear solve U 69393
DICPCG:  Solving for p, Initial residual = 0.0108809, Final residual = 9.54417e-07, No Iterations 52
linear solve p 90539
time step continuity errors : sum local = 1.69337e-09, global = -4.99531e-20, cumulative = -1.3594e-19
DICPCG:  Solving for p, Initial residual = 0.00813367, Final residual = 9.13858e-07, No Iterations 49
linear solve p 85272
time step continuity errors : sum local = 1.38765e-09, global = -3.36396e-20, cumulative = -1.69579e-19
ExecutionTime = 3.71 s  ClockTime = 4 s

Time = 0.0177778

Courant Number mean: 0.190873 max: 0.931034
DILUPBiCGStab:  Solving for Ux, Initial residual = 6.80073e-05, Final residual = 6.22739e-08, No Iterations 5
DILUPBiCGStab:  Solving for Uy, Initial residual = 0.000175347, Final residual = 1.38531e-07, No Iterations 5
DILUPBiCGStab:  Solving for Uz, Initial residual = 0.000489545, Final residual = 4.46435e-07, No Iterations 5
linear solve U 69740
DICPCG:  Solving for p, Initial residual = 0.00693444, Final residual = 9.76182e-07, No Iterations 49
linear solve p 85339
time step continuity errors : sum local = 1.68346e-09, global = -3.51101e-20, cumulative = -2.04689e-19
DICPCG:  Solving for p, Initial residual = 0.00521252, Final residual = 9.16134e-07, No Iterations 47
linear solve p 82754
time step continuity errors : sum local = 1.30873e-09, global = 3.62352e-20, cumulative = -1.68454e-19
ExecutionTime = 3.99 s  ClockTime = 4 s

Time = 0.02

Courant Number mean: 0.190873 max: 0.931017
DILUPBiCGStab:  Solving for Ux, Initial residual = 4.47462e-05, Final residual = 3.31464e-08, No Iterations 5
DILUPBiCGStab:  Solving for Uy, Initial residual = 0.000118391, Final residual = 8.64279e-08, No Iterations 5
DILUPBiCGStab:  Solving for Uz, Initial residual = 0.000332509, Final residual = 2.5923e-07, No Iterations 5
linear solve U 69824
DICPCG:  Solving for p, Initial residual = 0.00450031, Final residual = 7.08448e-07, No Iterations 92
linear solve p 157882
time step continuity errors : sum local = 9.5639e-10, global = 1.83258e-20, cumulative = -1.50128e-19
DICPCG:  Solving for p, Initial residual = 0.00339361, Final residual = 8.6143e-07, No Iterations 91
linear solve p 156190
time step continuity errors : sum local = 1.16314e-09, global = -1.78518e-20, cumulative = -1.6798e-19
ExecutionTime = 4.42 s  ClockTime = 4 s

Time = 0.0222222

Courant Number mean: 0.190876 max: 0.931022
DILUPBiCGStab:  Solving for Ux, Initial residual = 3.08294e-05, Final residual = 1.91523e-08, No Iterations 5
DILUPBiCGStab:  Solving for Uy, Initial residual = 8.09693e-05, Final residual = 4.37355e-08, No Iterations 5
DILUPBiCGStab:  Solving for Uz, Initial residual = 0.00023338, Final residual = 2.18079e-07, No Iterations 5
linear solve U 69130
DICPCG:  Solving for p, Initial residual = 0.00294692, Final residual = 9.1626e-07, No Iterations 43
linear solve p 75511
time step continuity errors : sum local = 1.4423e-09, global = 1.27448e-20, cumulative = -1.55235e-19
DICPCG:  Solving for p, Initial residual = 0.00222515, Final residual = 8.96633e-07, No Iterations 42
linear solve p 73669
time step continuity errors : sum local = 1.28813e-09, global = -8.80854e-20, cumulative = -2.43321e-19
ExecutionTime = 4.68 s  ClockTime = 5 s

End

