/*---------------------------------------------------------------------------*\
  =========                 |
  \\      /  F ield         | OpenFOAM: The Open Source CFD Toolbox
   \\    /   O peration     | Website:  https://openfoam.org
    \\  /    A nd           | Version:  8
     \\/     M anipulation  |
\*---------------------------------------------------------------------------*/
Build  : 8-ef60d22ea792
Exec   : icoFoam
Date   : Sep 11 2021
Time   : 13:51:36
Host   : "uc2n513.localdomain"
PID    : 221628
I/O    : uncollated
Case   : /pfs/data5/home/kit/scc/nq7776/data/code/OBR/lidDrivenCavity3D/Variation_init/100/Variation_mesh/25/Variation_matrix_solver/IR_NoPrecond_CUDA/1631361094
nProcs : 1
sigFpe : Enabling floating point exception trapping (FOAM_SIGFPE).
fileModificationChecking : Monitoring run-time modified files using timeStampMaster (fileModificationSkew 10)
allowSystemOperations : Allowing user-supplied system call operations

// * * * * * * * * * * * * * * * * * * * * * * * * * * * * * * * * * * * * * //
Create time

Create mesh for time = 0

Reading transportProperties

Reading field p

Reading field U

Reading/calculating face flux field phi


Starting time loop

Time = 0.004

Courant Number mean: 0.190206 max: 0.902763
DILUPBiCGStab:  Solving for Ux, Initial residual = 0.141566, Final residual = 7.19632e-07, No Iterations 5
DILUPBiCGStab:  Solving for Uy, Initial residual = 0.199843, Final residual = 1.48111e-06, No Iterations 5
DILUPBiCGStab:  Solving for Uz, Initial residual = 0.419047, Final residual = 6.53558e-06, No Iterations 5
linear solve U 11378
[OGL LOG] init_host_sparsity_pattern : 4 ms
[OGL LOG] matrix not stored update host matrix
[OGL LOG] update_host_mtx : 2 ms
[OGL LOG] matrix is not yet sorted, compute sorting idxs
[OGL LOG] compute_sort : 105 ms
[OGL LOG] matrix is not yet sorted, sorting host matrix
[OGL LOG] sort_host_mtx_sparsity_pattern : 2 ms
[OGL LOG] sort_host_mtx : 1 ms
[OGL LOG] init_preconditioner : 0 ms
[OGL LOG] solve : 38 ms
nonecudaGKOIR:  Solving for p, Initial residual = 0.573274, Final residual = 2.20248e-08, No Iterations 4
linear solve p 891008
time step continuity errors : sum local = 1.56698e-10, global = 1.58382e-20, cumulative = 1.58382e-20
[OGL LOG] init_preconditioner : 0 ms
[OGL LOG] solve : 32 ms
nonecudaGKOIR:  Solving for p, Initial residual = 0.2807, Final residual = 8.22538e-07, No Iterations 3
linear solve p 32892
time step continuity errors : sum local = 3.81996e-09, global = -6.78206e-20, cumulative = -5.19824e-20
ExecutionTime = 1.04 s  ClockTime = 2 s

Time = 0.008

Courant Number mean: 0.189744 max: 0.879561
DILUPBiCGStab:  Solving for Ux, Initial residual = 0.0127396, Final residual = 6.89214e-07, No Iterations 5
DILUPBiCGStab:  Solving for Uy, Initial residual = 0.0199775, Final residual = 1.2741e-06, No Iterations 5
DILUPBiCGStab:  Solving for Uz, Initial residual = 0.073961, Final residual = 3.65613e-06, No Iterations 5
linear solve U 9848
[OGL LOG] init_preconditioner : 0 ms
[OGL LOG] solve : 32 ms
nonecudaGKOIR:  Solving for p, Initial residual = 0.180371, Final residual = 3.04502e-07, No Iterations 3
linear solve p 33352
time step continuity errors : sum local = 3.31237e-06, global = 4.4863e-20, cumulative = -7.11941e-21
[OGL LOG] init_preconditioner : 0 ms
[OGL LOG] solve : 32 ms
nonecudaGKOIR:  Solving for p, Initial residual = 0.106368, Final residual = 1.56531e-07, No Iterations 3
linear solve p 33328
time step continuity errors : sum local = 3.06201e-06, global = -3.22981e-20, cumulative = -3.94175e-20
ExecutionTime = 1.12 s  ClockTime = 2 s

Time = 0.012

Courant Number mean: 0.189395 max: 0.876756
DILUPBiCGStab:  Solving for Ux, Initial residual = 0.00162358, Final residual = 1.27724e-07, No Iterations 5
DILUPBiCGStab:  Solving for Uy, Initial residual = 0.00313324, Final residual = 2.48446e-07, No Iterations 5
DILUPBiCGStab:  Solving for Uz, Initial residual = 0.0223445, Final residual = 1.00572e-06, No Iterations 5
linear solve U 9893
[OGL LOG] init_preconditioner : 0 ms
[OGL LOG] solve : 33 ms
nonecudaGKOIR:  Solving for p, Initial residual = 0.0483506, Final residual = 6.92439e-08, No Iterations 3
linear solve p 34507
time step continuity errors : sum local = 3.02661e-06, global = 6.6411e-20, cumulative = 2.69935e-20
[OGL LOG] init_preconditioner : 0 ms
[OGL LOG] solve : 34 ms
nonecudaGKOIR:  Solving for p, Initial residual = 0.0318371, Final residual = 4.40322e-08, No Iterations 3
linear solve p 34672
time step continuity errors : sum local = 3.04731e-06, global = -7.79502e-20, cumulative = -5.09567e-20
ExecutionTime = 1.21 s  ClockTime = 2 s

Time = 0.016

Courant Number mean: 0.189204 max: 0.876129
DILUPBiCGStab:  Solving for Ux, Initial residual = 0.000629524, Final residual = 5.06147e-08, No Iterations 5
DILUPBiCGStab:  Solving for Uy, Initial residual = 0.000837464, Final residual = 5.05385e-08, No Iterations 5
DILUPBiCGStab:  Solving for Uz, Initial residual = 0.00466345, Final residual = 2.20281e-07, No Iterations 5
linear solve U 9887
[OGL LOG] init_preconditioner : 0 ms
[OGL LOG] solve : 32 ms
nonecudaGKOIR:  Solving for p, Initial residual = 0.0180274, Final residual = 2.26022e-08, No Iterations 3
linear solve p 32956
time step continuity errors : sum local = 3.05821e-06, global = 1.01196e-19, cumulative = 5.02389e-20
[OGL LOG] init_preconditioner : 0 ms
[OGL LOG] solve : 33 ms
nonecudaGKOIR:  Solving for p, Initial residual = 0.0122886, Final residual = 1.62243e-08, No Iterations 3
linear solve p 34210
time step continuity errors : sum local = 3.05019e-06, global = 1.10659e-19, cumulative = 1.60898e-19
ExecutionTime = 1.29 s  ClockTime = 2 s

Time = 0.02

Courant Number mean: 0.189124 max: 0.875978
DILUPBiCGStab:  Solving for Ux, Initial residual = 0.000281043, Final residual = 1.95177e-08, No Iterations 5
DILUPBiCGStab:  Solving for Uy, Initial residual = 0.00037762, Final residual = 2.36862e-08, No Iterations 5
DILUPBiCGStab:  Solving for Uz, Initial residual = 0.00229847, Final residual = 1.0657e-07, No Iterations 5
linear solve U 9900
[OGL LOG] init_preconditioner : 0 ms
[OGL LOG] solve : 20 ms
nonecudaGKOIR:  Solving for p, Initial residual = 0.0078428, Final residual = 9.78096e-07, No Iterations 2
linear solve p 20889
time step continuity errors : sum local = 3.05097e-06, global = -4.69359e-20, cumulative = 1.13962e-19
[OGL LOG] init_preconditioner : 0 ms
[OGL LOG] solve : 16 ms
nonecudaGKOIR:  Solving for p, Initial residual = 0.00548012, Final residual = 6.39136e-07, No Iterations 2
linear solve p 17504
time step continuity errors : sum local = 3.05021e-06, global = 5.37949e-20, cumulative = 1.67756e-19
ExecutionTime = 1.35 s  ClockTime = 2 s

Time = 0.024

Courant Number mean: 0.189076 max: 0.875913
DILUPBiCGStab:  Solving for Ux, Initial residual = 0.000154648, Final residual = 9.96465e-09, No Iterations 5
DILUPBiCGStab:  Solving for Uy, Initial residual = 0.000191792, Final residual = 1.16028e-08, No Iterations 5
DILUPBiCGStab:  Solving for Uz, Initial residual = 0.00111563, Final residual = 6.05009e-08, No Iterations 5
linear solve U 9722
[OGL LOG] init_preconditioner : 0 ms
[OGL LOG] solve : 16 ms
nonecudaGKOIR:  Solving for p, Initial residual = 0.00361654, Final residual = 3.73864e-07, No Iterations 2
linear solve p 16609
time step continuity errors : sum local = 3.051e-06, global = 1.58968e-20, cumulative = 1.83653e-19
[OGL LOG] init_preconditioner : 0 ms
[OGL LOG] solve : 16 ms
nonecudaGKOIR:  Solving for p, Initial residual = 0.0025532, Final residual = 2.64182e-07, No Iterations 2
linear solve p 16876
time step continuity errors : sum local = 3.05006e-06, global = -6.56914e-20, cumulative = 1.17962e-19
ExecutionTime = 1.39 s  ClockTime = 2 s

Time = 0.028

Courant Number mean: 0.189051 max: 0.875862
DILUPBiCGStab:  Solving for Ux, Initial residual = 8.74235e-05, Final residual = 5.10857e-09, No Iterations 5
DILUPBiCGStab:  Solving for Uy, Initial residual = 0.000121607, Final residual = 6.86453e-09, No Iterations 5
DILUPBiCGStab:  Solving for Uz, Initial residual = 0.000702624, Final residual = 2.84293e-08, No Iterations 5
linear solve U 9835
[OGL LOG] init_preconditioner : 0 ms
[OGL LOG] solve : 16 ms
nonecudaGKOIR:  Solving for p, Initial residual = 0.00171993, Final residual = 1.95859e-07, No Iterations 2
linear solve p 16690
time step continuity errors : sum local = 3.05041e-06, global = 7.46646e-20, cumulative = 1.92627e-19
[OGL LOG] init_preconditioner : 0 ms
[OGL LOG] solve : 16 ms
nonecudaGKOIR:  Solving for p, Initial residual = 0.00122556, Final residual = 1.27196e-07, No Iterations 2
linear solve p 16572
time step continuity errors : sum local = 3.05005e-06, global = -6.06869e-20, cumulative = 1.3194e-19
ExecutionTime = 1.45 s  ClockTime = 2 s

Time = 0.032

Courant Number mean: 0.189036 max: 0.875836
DILUPBiCGStab:  Solving for Ux, Initial residual = 5.39056e-05, Final residual = 2.37275e-09, No Iterations 5
DILUPBiCGStab:  Solving for Uy, Initial residual = 7.75417e-05, Final residual = 3.08136e-09, No Iterations 5
DILUPBiCGStab:  Solving for Uz, Initial residual = 0.000463086, Final residual = 1.93873e-08, No Iterations 5
linear solve U 9795
[OGL LOG] init_preconditioner : 0 ms
[OGL LOG] solve : 24 ms
nonecudaGKOIR:  Solving for p, Initial residual = 0.000855778, Final residual = 8.05415e-08, No Iterations 2
linear solve p 25521
time step continuity errors : sum local = 3.05025e-06, global = 6.46061e-20, cumulative = 1.96546e-19
[OGL LOG] init_preconditioner : 0 ms
[OGL LOG] solve : 24 ms
nonecudaGKOIR:  Solving for p, Initial residual = 0.000611657, Final residual = 7.13959e-08, No Iterations 2
linear solve p 25366
time step continuity errors : sum local = 3.05002e-06, global = 1.70116e-19, cumulative = 3.66662e-19
ExecutionTime = 1.51 s  ClockTime = 2 s

Time = 0.036

Courant Number mean: 0.189028 max: 0.875816
DILUPBiCGStab:  Solving for Ux, Initial residual = 3.43108e-05, Final residual = 1.32204e-09, No Iterations 5
DILUPBiCGStab:  Solving for Uy, Initial residual = 5.32425e-05, Final residual = 2.64282e-09, No Iterations 5
DILUPBiCGStab:  Solving for Uz, Initial residual = 0.00032647, Final residual = 1.1794e-08, No Iterations 5
linear solve U 9870
[OGL LOG] init_preconditioner : 0 ms
[OGL LOG] solve : 25 ms
nonecudaGKOIR:  Solving for p, Initial residual = 0.000423233, Final residual = 4.65376e-08, No Iterations 2
linear solve p 25669
time step continuity errors : sum local = 3.05014e-06, global = 2.54011e-20, cumulative = 3.92063e-19
[OGL LOG] init_preconditioner : 0 ms
[OGL LOG] solve : 25 ms
nonecudaGKOIR:  Solving for p, Initial residual = 0.000303077, Final residual = 2.80263e-08, No Iterations 2
linear solve p 26278
time step continuity errors : sum local = 3.05002e-06, global = -7.46812e-20, cumulative = 3.17382e-19
ExecutionTime = 1.58 s  ClockTime = 2 s

Time = 0.04

Courant Number mean: 0.189023 max: 0.875804
DILUPBiCGStab:  Solving for Ux, Initial residual = 2.27161e-05, Final residual = 7.7851e-10, No Iterations 5
DILUPBiCGStab:  Solving for Uy, Initial residual = 3.65362e-05, Final residual = 9.91225e-10, No Iterations 5
DILUPBiCGStab:  Solving for Uz, Initial residual = 0.000232815, Final residual = 8.20502e-09, No Iterations 5
linear solve U 9857
[OGL LOG] init_preconditioner : 0 ms
[OGL LOG] solve : 25 ms
nonecudaGKOIR:  Solving for p, Initial residual = 0.000221051, Final residual = 2.41619e-08, No Iterations 2
linear solve p 26180
time step continuity errors : sum local = 3.05012e-06, global = 3.04237e-21, cumulative = 3.20424e-19
[OGL LOG] init_preconditioner : 0 ms
[OGL LOG] solve : 26 ms
nonecudaGKOIR:  Solving for p, Initial residual = 0.000159398, Final residual = 1.56195e-08, No Iterations 2
linear solve p 27282
time step continuity errors : sum local = 3.05003e-06, global = -1.54253e-20, cumulative = 3.04999e-19
ExecutionTime = 1.65 s  ClockTime = 2 s

End

