/*---------------------------------------------------------------------------*\
  =========                 |
  \\      /  F ield         | OpenFOAM: The Open Source CFD Toolbox
   \\    /   O peration     | Website:  https://openfoam.org
    \\  /    A nd           | Version:  8
     \\/     M anipulation  |
\*---------------------------------------------------------------------------*/
Build  : 8-ef60d22ea792
Exec   : icoFoam
Date   : Sep 11 2021
Time   : 14:38:57
Host   : "uc2n513.localdomain"
PID    : 230783
I/O    : uncollated
Case   : /pfs/data5/home/kit/scc/nq7776/data/code/OBR/lidDrivenCavity3D/Variation_init/100/Variation_mesh/55/Variation_matrix_solver/BiCGStab_NoPrecond_CUDA/1631363929
nProcs : 1
sigFpe : Enabling floating point exception trapping (FOAM_SIGFPE).
fileModificationChecking : Monitoring run-time modified files using timeStampMaster (fileModificationSkew 10)
allowSystemOperations : Allowing user-supplied system call operations

// * * * * * * * * * * * * * * * * * * * * * * * * * * * * * * * * * * * * * //
Create time

Create mesh for time = 0

Reading transportProperties

Reading field p

Reading field U

Reading/calculating face flux field phi


Starting time loop

Time = 0.00181818

Courant Number mean: 0.191368 max: 0.957571
DILUPBiCGStab:  Solving for Ux, Initial residual = 0.060281, Final residual = 1.19981e-05, No Iterations 5
DILUPBiCGStab:  Solving for Uy, Initial residual = 0.121009, Final residual = 2.40294e-05, No Iterations 5
DILUPBiCGStab:  Solving for Uz, Initial residual = 0.150024, Final residual = 8.14301e-05, No Iterations 5
linear solve U 162775
[OGL LOG] init_host_sparsity_pattern : 44 ms
[OGL LOG] matrix not stored update host matrix
[OGL LOG] update_host_mtx : 23 ms
[OGL LOG] matrix is not yet sorted, compute sorting idxs
[OGL LOG] compute_sort : 1353 ms
[OGL LOG] matrix is not yet sorted, sorting host matrix
[OGL LOG] sort_host_mtx_sparsity_pattern : 31 ms
[OGL LOG] sort_host_mtx : 17 ms
[OGL LOG] init_preconditioner : 0 ms
[OGL LOG] solve : 254 ms
nonecudaGKOBiCGStab:  Solving for p, Initial residual = 0.606676, Final residual = 6.33095e-07, No Iterations 397
linear solve p 2473223
time step continuity errors : sum local = 1.95409e-07, global = 4.21561e-21, cumulative = 4.21561e-21
[OGL LOG] init_preconditioner : 0 ms
[OGL LOG] solve : 219 ms
nonecudaGKOBiCGStab:  Solving for p, Initial residual = 0.416253, Final residual = 9.0424e-07, No Iterations 343
linear solve p 224530
time step continuity errors : sum local = 1.20224e-06, global = -1.82356e-20, cumulative = -1.402e-20
ExecutionTime = 3.71 s  ClockTime = 4 s

Time = 0.00363636

Courant Number mean: 0.191352 max: 0.944825
DILUPBiCGStab:  Solving for Ux, Initial residual = 0.00670436, Final residual = 6.34139e-06, No Iterations 5
DILUPBiCGStab:  Solving for Uy, Initial residual = 0.0143969, Final residual = 1.50109e-05, No Iterations 5
DILUPBiCGStab:  Solving for Uz, Initial residual = 0.0292333, Final residual = 5.25767e-05, No Iterations 5
linear solve U 148109
[OGL LOG] init_preconditioner : 0 ms
[OGL LOG] solve : 240 ms
nonecudaGKOBiCGStab:  Solving for p, Initial residual = 0.306639, Final residual = 9.93154e-07, No Iterations 371
linear solve p 245280
time step continuity errors : sum local = 9.33236e-07, global = 7.82738e-21, cumulative = -6.19262e-21
[OGL LOG] init_preconditioner : 0 ms
[OGL LOG] solve : 215 ms
nonecudaGKOBiCGStab:  Solving for p, Initial residual = 0.191681, Final residual = 2.00294e-07, No Iterations 336
linear solve p 220483
time step continuity errors : sum local = 3.84698e-05, global = 2.94536e-20, cumulative = 2.3261e-20
ExecutionTime = 4.42 s  ClockTime = 4 s

Time = 0.00545455

Courant Number mean: 0.191309 max: 0.943842
DILUPBiCGStab:  Solving for Ux, Initial residual = 0.00199623, Final residual = 3.94775e-06, No Iterations 5
DILUPBiCGStab:  Solving for Uy, Initial residual = 0.00445245, Final residual = 8.43428e-06, No Iterations 5
DILUPBiCGStab:  Solving for Uz, Initial residual = 0.0616514, Final residual = 0.000184029, No Iterations 5
linear solve U 148929
[OGL LOG] init_preconditioner : 0 ms
[OGL LOG] solve : 223 ms
nonecudaGKOBiCGStab:  Solving for p, Initial residual = 0.24919, Final residual = 9.89037e-07, No Iterations 349
linear solve p 227984
time step continuity errors : sum local = 1.0767e-06, global = 4.85029e-21, cumulative = 2.81113e-20
[OGL LOG] init_preconditioner : 0 ms
[OGL LOG] solve : 227 ms
nonecudaGKOBiCGStab:  Solving for p, Initial residual = 0.175064, Final residual = 9.06971e-07, No Iterations 351
linear solve p 232871
time step continuity errors : sum local = 1.08808e-06, global = 1.77032e-20, cumulative = 4.58145e-20
ExecutionTime = 5.12 s  ClockTime = 5 s

Time = 0.00727273

Courant Number mean: 0.191242 max: 0.94364
DILUPBiCGStab:  Solving for Ux, Initial residual = 0.00102687, Final residual = 1.33252e-06, No Iterations 5
DILUPBiCGStab:  Solving for Uy, Initial residual = 0.0023377, Final residual = 3.89691e-06, No Iterations 5
DILUPBiCGStab:  Solving for Uz, Initial residual = 0.056866, Final residual = 0.000105394, No Iterations 5
linear solve U 147416
[OGL LOG] init_preconditioner : 0 ms
[OGL LOG] solve : 193 ms
nonecudaGKOBiCGStab:  Solving for p, Initial residual = 0.166352, Final residual = 8.83946e-07, No Iterations 303
linear solve p 198682
time step continuity errors : sum local = 9.64858e-06, global = 4.71042e-20, cumulative = 9.29187e-20
[OGL LOG] init_preconditioner : 0 ms
[OGL LOG] solve : 203 ms
nonecudaGKOBiCGStab:  Solving for p, Initial residual = 0.121944, Final residual = 9.90004e-07, No Iterations 318
linear solve p 208627
time step continuity errors : sum local = 2.21673e-06, global = -2.20782e-20, cumulative = 7.08405e-20
ExecutionTime = 5.77 s  ClockTime = 6 s

Time = 0.00909091

Courant Number mean: 0.191228 max: 0.943572
DILUPBiCGStab:  Solving for Ux, Initial residual = 0.000583606, Final residual = 8.69781e-07, No Iterations 5
DILUPBiCGStab:  Solving for Uy, Initial residual = 0.00130774, Final residual = 2.11215e-06, No Iterations 5
DILUPBiCGStab:  Solving for Uz, Initial residual = 0.0501228, Final residual = 7.82361e-05, No Iterations 5
linear solve U 147835
[OGL LOG] init_preconditioner : 0 ms
[OGL LOG] solve : 207 ms
nonecudaGKOBiCGStab:  Solving for p, Initial residual = 0.135008, Final residual = 6.35258e-07, No Iterations 323
linear solve p 212064
time step continuity errors : sum local = 3.65854e-07, global = -1.33593e-20, cumulative = 5.74811e-20
[OGL LOG] init_preconditioner : 0 ms
[OGL LOG] solve : 214 ms
nonecudaGKOBiCGStab:  Solving for p, Initial residual = 0.103818, Final residual = 7.9674e-07, No Iterations 332
linear solve p 220162
time step continuity errors : sum local = 1.44156e-06, global = -1.83078e-20, cumulative = 3.91733e-20
ExecutionTime = 6.44 s  ClockTime = 6 s

Time = 0.0109091

Courant Number mean: 0.191216 max: 0.943611
DILUPBiCGStab:  Solving for Ux, Initial residual = 0.000360052, Final residual = 5.10653e-07, No Iterations 5
DILUPBiCGStab:  Solving for Uy, Initial residual = 0.000836961, Final residual = 1.52971e-06, No Iterations 5
DILUPBiCGStab:  Solving for Uz, Initial residual = 0.0385598, Final residual = 4.78512e-05, No Iterations 5
linear solve U 148662
[OGL LOG] init_preconditioner : 0 ms
[OGL LOG] solve : 204 ms
nonecudaGKOBiCGStab:  Solving for p, Initial residual = 0.100095, Final residual = 9.72696e-07, No Iterations 319
linear solve p 209164
time step continuity errors : sum local = 7.59861e-07, global = 1.38688e-20, cumulative = 5.30422e-20
[OGL LOG] init_preconditioner : 0 ms
[OGL LOG] solve : 204 ms
nonecudaGKOBiCGStab:  Solving for p, Initial residual = 0.0778894, Final residual = 9.73525e-07, No Iterations 320
linear solve p 209775
time step continuity errors : sum local = 5.43202e-07, global = 5.31415e-20, cumulative = 1.06184e-19
ExecutionTime = 7.1 s  ClockTime = 7 s

Time = 0.0127273

Courant Number mean: 0.191209 max: 0.943562
DILUPBiCGStab:  Solving for Ux, Initial residual = 0.000228687, Final residual = 3.59548e-07, No Iterations 5
DILUPBiCGStab:  Solving for Uy, Initial residual = 0.000527374, Final residual = 9.04126e-07, No Iterations 5
DILUPBiCGStab:  Solving for Uz, Initial residual = 0.0288557, Final residual = 2.48871e-05, No Iterations 5
linear solve U 147494
[OGL LOG] init_preconditioner : 0 ms
[OGL LOG] solve : 213 ms
nonecudaGKOBiCGStab:  Solving for p, Initial residual = 0.0741542, Final residual = 9.51487e-07, No Iterations 333
linear solve p 218090
time step continuity errors : sum local = 3.6453e-07, global = -1.13839e-20, cumulative = 9.47997e-20
[OGL LOG] init_preconditioner : 0 ms
[OGL LOG] solve : 216 ms
nonecudaGKOBiCGStab:  Solving for p, Initial residual = 0.0580235, Final residual = 8.89297e-07, No Iterations 335
linear solve p 221076
time step continuity errors : sum local = 5.85122e-07, global = 1.12789e-20, cumulative = 1.06079e-19
ExecutionTime = 7.78 s  ClockTime = 8 s

Time = 0.0145455

Courant Number mean: 0.191206 max: 0.943589
DILUPBiCGStab:  Solving for Ux, Initial residual = 0.000152398, Final residual = 2.40278e-07, No Iterations 5
DILUPBiCGStab:  Solving for Uy, Initial residual = 0.000353455, Final residual = 5.90548e-07, No Iterations 5
DILUPBiCGStab:  Solving for Uz, Initial residual = 0.0213984, Final residual = 1.29111e-05, No Iterations 5
linear solve U 148341
[OGL LOG] init_preconditioner : 0 ms
[OGL LOG] solve : 204 ms
nonecudaGKOBiCGStab:  Solving for p, Initial residual = 0.0547111, Final residual = 9.97103e-07, No Iterations 319
linear solve p 209197
time step continuity errors : sum local = 3.63994e-07, global = -1.49972e-20, cumulative = 9.10815e-20
[OGL LOG] init_preconditioner : 0 ms
[OGL LOG] solve : 214 ms
nonecudaGKOBiCGStab:  Solving for p, Initial residual = 0.0430578, Final residual = 9.65884e-07, No Iterations 335
linear solve p 218924
time step continuity errors : sum local = 3.64101e-07, global = 7.01976e-20, cumulative = 1.61279e-19
ExecutionTime = 8.45 s  ClockTime = 8 s

Time = 0.0163636

Courant Number mean: 0.191203 max: 0.943562
DILUPBiCGStab:  Solving for Ux, Initial residual = 0.000103776, Final residual = 1.69458e-07, No Iterations 5
DILUPBiCGStab:  Solving for Uy, Initial residual = 0.00023562, Final residual = 3.63459e-07, No Iterations 5
DILUPBiCGStab:  Solving for Uz, Initial residual = 0.0157536, Final residual = 7.37488e-06, No Iterations 5
linear solve U 148090
[OGL LOG] init_preconditioner : 0 ms
[OGL LOG] solve : 171 ms
nonecudaGKOBiCGStab:  Solving for p, Initial residual = 0.0402179, Final residual = 9.52983e-07, No Iterations 267
linear solve p 176671
time step continuity errors : sum local = 3.65004e-07, global = -5.56859e-20, cumulative = 1.05593e-19
[OGL LOG] init_preconditioner : 0 ms
[OGL LOG] solve : 81 ms
nonecudaGKOBiCGStab:  Solving for p, Initial residual = 0.0316908, Final residual = 9.53738e-07, No Iterations 124
linear solve p 86335
time step continuity errors : sum local = 3.64848e-07, global = 2.74824e-20, cumulative = 1.33076e-19
ExecutionTime = 8.95 s  ClockTime = 9 s

Time = 0.0181818

Courant Number mean: 0.191202 max: 0.943576
DILUPBiCGStab:  Solving for Ux, Initial residual = 7.28704e-05, Final residual = 1.2133e-07, No Iterations 5
DILUPBiCGStab:  Solving for Uy, Initial residual = 0.000165829, Final residual = 2.41862e-07, No Iterations 5
DILUPBiCGStab:  Solving for Uz, Initial residual = 0.011628, Final residual = 4.59917e-06, No Iterations 5
linear solve U 149916
[OGL LOG] init_preconditioner : 0 ms
[OGL LOG] solve : 173 ms
nonecudaGKOBiCGStab:  Solving for p, Initial residual = 0.0296209, Final residual = 9.35293e-07, No Iterations 270
linear solve p 178989
time step continuity errors : sum local = 3.64723e-07, global = -7.30387e-20, cumulative = 6.00368e-20
[OGL LOG] init_preconditioner : 0 ms
[OGL LOG] solve : 163 ms
nonecudaGKOBiCGStab:  Solving for p, Initial residual = 0.0234095, Final residual = 9.34079e-07, No Iterations 255
linear solve p 168683
time step continuity errors : sum local = 1.26143e-06, global = 2.77842e-20, cumulative = 8.78211e-20
ExecutionTime = 9.53 s  ClockTime = 10 s

End

