/*---------------------------------------------------------------------------*\
  =========                 |
  \\      /  F ield         | OpenFOAM: The Open Source CFD Toolbox
   \\    /   O peration     | Website:  https://openfoam.org
    \\  /    A nd           | Version:  8
     \\/     M anipulation  |
\*---------------------------------------------------------------------------*/
Build  : 8-ef60d22ea792
Exec   : icoFoam
Date   : Sep 11 2021
Time   : 14:08:29
Host   : "uc2n513.localdomain"
PID    : 225184
I/O    : uncollated
Case   : /pfs/data5/home/kit/scc/nq7776/data/code/OBR/lidDrivenCavity3D/Variation_init/100/Variation_mesh/70/Variation_matrix_solver/CG_NoPrecond_CUDA/1631362095
nProcs : 1
sigFpe : Enabling floating point exception trapping (FOAM_SIGFPE).
fileModificationChecking : Monitoring run-time modified files using timeStampMaster (fileModificationSkew 10)
allowSystemOperations : Allowing user-supplied system call operations

// * * * * * * * * * * * * * * * * * * * * * * * * * * * * * * * * * * * * * //
Create time

Create mesh for time = 0

Reading transportProperties

Reading field p

Reading field U

Reading/calculating face flux field phi


Starting time loop

Time = 0.00142857

Courant Number mean: 0.191369 max: 0.960255
DILUPBiCGStab:  Solving for Ux, Initial residual = 0.123219, Final residual = 1.08625e-05, No Iterations 5
DILUPBiCGStab:  Solving for Uy, Initial residual = 0.236374, Final residual = 2.69981e-05, No Iterations 5
DILUPBiCGStab:  Solving for Uz, Initial residual = 0.30937, Final residual = 0.000142646, No Iterations 5
linear solve U 349727
[OGL LOG] init_host_sparsity_pattern : 97 ms
[OGL LOG] matrix not stored update host matrix
[OGL LOG] update_host_mtx : 51 ms
[OGL LOG] matrix is not yet sorted, compute sorting idxs
[OGL LOG] compute_sort : 2931 ms
[OGL LOG] matrix is not yet sorted, sorting host matrix
[OGL LOG] sort_host_mtx_sparsity_pattern : 65 ms
[OGL LOG] sort_host_mtx : 36 ms
[OGL LOG] init_preconditioner : 0 ms
[OGL LOG] solve : 326 ms
nonecudaGKOCG:  Solving for p, Initial residual = 0.562471, Final residual = 9.56707e-07, No Iterations 573
linear solve p 4263959
time step continuity errors : sum local = 1.1311e-09, global = -2.14831e-20, cumulative = -2.14831e-20
[OGL LOG] init_preconditioner : 0 ms
[OGL LOG] solve : 319 ms
nonecudaGKOCG:  Solving for p, Initial residual = 0.247873, Final residual = 9.56988e-07, No Iterations 575
linear solve p 330323
time step continuity errors : sum local = 6.62892e-10, global = -5.97964e-21, cumulative = -2.74627e-20
ExecutionTime = 6.68 s  ClockTime = 7 s

Time = 0.00285714

Courant Number mean: 0.191442 max: 0.955464
DILUPBiCGStab:  Solving for Ux, Initial residual = 0.00494474, Final residual = 1.88391e-05, No Iterations 5
DILUPBiCGStab:  Solving for Uy, Initial residual = 0.010261, Final residual = 3.24076e-05, No Iterations 5
DILUPBiCGStab:  Solving for Uz, Initial residual = 0.0333877, Final residual = 0.00012408, No Iterations 5
linear solve U 328231
[OGL LOG] init_preconditioner : 0 ms
[OGL LOG] solve : 321 ms
nonecudaGKOCG:  Solving for p, Initial residual = 0.235819, Final residual = 9.55144e-07, No Iterations 575
linear solve p 332069
time step continuity errors : sum local = 2.12994e-07, global = 3.56363e-20, cumulative = 8.17361e-21
[OGL LOG] init_preconditioner : 0 ms
[OGL LOG] solve : 318 ms
nonecudaGKOCG:  Solving for p, Initial residual = 0.161704, Final residual = 9.6868e-07, No Iterations 572
linear solve p 328609
time step continuity errors : sum local = 2.07659e-07, global = 2.80107e-20, cumulative = 3.61843e-20
ExecutionTime = 7.86 s  ClockTime = 8 s

Time = 0.00428571

Courant Number mean: 0.19146 max: 0.955931
DILUPBiCGStab:  Solving for Ux, Initial residual = 0.00112523, Final residual = 4.30613e-06, No Iterations 5
DILUPBiCGStab:  Solving for Uy, Initial residual = 0.00292402, Final residual = 9.89295e-06, No Iterations 5
DILUPBiCGStab:  Solving for Uz, Initial residual = 0.0148883, Final residual = 6.64296e-05, No Iterations 5
linear solve U 326607
[OGL LOG] init_preconditioner : 0 ms
[OGL LOG] solve : 314 ms
nonecudaGKOCG:  Solving for p, Initial residual = 0.144118, Final residual = 9.82011e-07, No Iterations 563
linear solve p 326124
time step continuity errors : sum local = 2.0645e-07, global = -8.95682e-21, cumulative = 2.72275e-20
[OGL LOG] init_preconditioner : 0 ms
[OGL LOG] solve : 312 ms
nonecudaGKOCG:  Solving for p, Initial residual = 0.103387, Final residual = 9.51022e-07, No Iterations 561
linear solve p 322939
time step continuity errors : sum local = 2.07161e-07, global = 2.14975e-20, cumulative = 4.8725e-20
ExecutionTime = 9.05 s  ClockTime = 9 s

Time = 0.00571429

Courant Number mean: 0.191438 max: 0.955696
DILUPBiCGStab:  Solving for Ux, Initial residual = 0.000668728, Final residual = 1.45941e-06, No Iterations 5
DILUPBiCGStab:  Solving for Uy, Initial residual = 0.00178005, Final residual = 4.57909e-06, No Iterations 5
DILUPBiCGStab:  Solving for Uz, Initial residual = 0.00718077, Final residual = 3.08473e-05, No Iterations 5
linear solve U 327345
[OGL LOG] init_preconditioner : 0 ms
[OGL LOG] solve : 310 ms
nonecudaGKOCG:  Solving for p, Initial residual = 0.0999957, Final residual = 9.9938e-07, No Iterations 555
linear solve p 320644
time step continuity errors : sum local = 2.07999e-07, global = 2.25161e-20, cumulative = 7.12411e-20
[OGL LOG] init_preconditioner : 0 ms
[OGL LOG] solve : 308 ms
nonecudaGKOCG:  Solving for p, Initial residual = 0.0728487, Final residual = 9.30344e-07, No Iterations 554
linear solve p 318973
time step continuity errors : sum local = 2.07158e-07, global = 4.49983e-21, cumulative = 7.57409e-20
ExecutionTime = 10.21 s  ClockTime = 10 s

Time = 0.00714286

Courant Number mean: 0.191433 max: 0.95573
DILUPBiCGStab:  Solving for Ux, Initial residual = 0.000437043, Final residual = 1.29952e-06, No Iterations 5
DILUPBiCGStab:  Solving for Uy, Initial residual = 0.00117763, Final residual = 2.93908e-06, No Iterations 5
DILUPBiCGStab:  Solving for Uz, Initial residual = 0.00449451, Final residual = 1.63356e-05, No Iterations 5
linear solve U 325666
[OGL LOG] init_preconditioner : 0 ms
[OGL LOG] solve : 308 ms
nonecudaGKOCG:  Solving for p, Initial residual = 0.0697443, Final residual = 9.71895e-07, No Iterations 546
linear solve p 318742
time step continuity errors : sum local = 2.06963e-07, global = -2.98919e-20, cumulative = 4.5849e-20
[OGL LOG] init_preconditioner : 0 ms
[OGL LOG] solve : 303 ms
nonecudaGKOCG:  Solving for p, Initial residual = 0.0506239, Final residual = 9.79739e-07, No Iterations 543
linear solve p 314093
time step continuity errors : sum local = 2.07194e-07, global = 2.85326e-21, cumulative = 4.87022e-20
ExecutionTime = 11.36 s  ClockTime = 12 s

Time = 0.00857143

Courant Number mean: 0.191428 max: 0.9557
DILUPBiCGStab:  Solving for Ux, Initial residual = 0.000300129, Final residual = 8.36644e-07, No Iterations 5
DILUPBiCGStab:  Solving for Uy, Initial residual = 0.000803473, Final residual = 1.80441e-06, No Iterations 5
DILUPBiCGStab:  Solving for Uz, Initial residual = 0.00284432, Final residual = 8.70298e-06, No Iterations 5
linear solve U 326614
[OGL LOG] init_preconditioner : 0 ms
[OGL LOG] solve : 294 ms
nonecudaGKOCG:  Solving for p, Initial residual = 0.0502842, Final residual = 9.865e-07, No Iterations 530
linear solve p 304465
time step continuity errors : sum local = 2.07394e-07, global = -2.20083e-20, cumulative = 2.66939e-20
[OGL LOG] init_preconditioner : 0 ms
[OGL LOG] solve : 292 ms
nonecudaGKOCG:  Solving for p, Initial residual = 0.0367541, Final residual = 9.72424e-07, No Iterations 523
linear solve p 303465
time step continuity errors : sum local = 2.07153e-07, global = -2.25538e-20, cumulative = 4.14007e-21
ExecutionTime = 12.49 s  ClockTime = 13 s

Time = 0.01

Courant Number mean: 0.191426 max: 0.955692
DILUPBiCGStab:  Solving for Ux, Initial residual = 0.000209856, Final residual = 6.57515e-07, No Iterations 5
DILUPBiCGStab:  Solving for Uy, Initial residual = 0.00056242, Final residual = 1.23087e-06, No Iterations 5
DILUPBiCGStab:  Solving for Uz, Initial residual = 0.00194813, Final residual = 5.97869e-06, No Iterations 5
linear solve U 326697
[OGL LOG] init_preconditioner : 0 ms
[OGL LOG] solve : 293 ms
nonecudaGKOCG:  Solving for p, Initial residual = 0.0362607, Final residual = 9.66992e-07, No Iterations 519
linear solve p 303598
time step continuity errors : sum local = 2.07112e-07, global = -4.3318e-21, cumulative = -1.91736e-22
[OGL LOG] init_preconditioner : 0 ms
[OGL LOG] solve : 290 ms
nonecudaGKOCG:  Solving for p, Initial residual = 0.0265614, Final residual = 9.61226e-07, No Iterations 517
linear solve p 301019
time step continuity errors : sum local = 2.07169e-07, global = 4.48853e-21, cumulative = 4.29679e-21
ExecutionTime = 13.61 s  ClockTime = 14 s

Time = 0.0114286

Courant Number mean: 0.191426 max: 0.955687
DILUPBiCGStab:  Solving for Ux, Initial residual = 0.000148405, Final residual = 4.39203e-07, No Iterations 5
DILUPBiCGStab:  Solving for Uy, Initial residual = 0.000400911, Final residual = 7.44863e-07, No Iterations 5
DILUPBiCGStab:  Solving for Uz, Initial residual = 0.00133516, Final residual = 3.48469e-06, No Iterations 5
linear solve U 326539
[OGL LOG] init_preconditioner : 0 ms
[OGL LOG] solve : 284 ms
nonecudaGKOCG:  Solving for p, Initial residual = 0.0266487, Final residual = 9.99874e-07, No Iterations 511
linear solve p 295286
time step continuity errors : sum local = 2.07218e-07, global = -2.56484e-20, cumulative = -2.13516e-20
[OGL LOG] init_preconditioner : 0 ms
[OGL LOG] solve : 269 ms
nonecudaGKOCG:  Solving for p, Initial residual = 0.0196427, Final residual = 9.70435e-07, No Iterations 483
linear solve p 279896
time step continuity errors : sum local = 2.07143e-07, global = 1.68899e-20, cumulative = -4.46176e-21
ExecutionTime = 14.73 s  ClockTime = 15 s

Time = 0.0128571

Courant Number mean: 0.191427 max: 0.955681
DILUPBiCGStab:  Solving for Ux, Initial residual = 0.000106796, Final residual = 2.65578e-07, No Iterations 5
DILUPBiCGStab:  Solving for Uy, Initial residual = 0.000291503, Final residual = 4.88668e-07, No Iterations 5
DILUPBiCGStab:  Solving for Uz, Initial residual = 0.000961031, Final residual = 2.92668e-06, No Iterations 5
linear solve U 326782
[OGL LOG] init_preconditioner : 0 ms
[OGL LOG] solve : 315 ms
nonecudaGKOCG:  Solving for p, Initial residual = 0.0196471, Final residual = 9.55915e-07, No Iterations 465
linear solve p 326184
time step continuity errors : sum local = 2.07151e-07, global = 1.04341e-20, cumulative = 5.97231e-21
[OGL LOG] init_preconditioner : 0 ms
[OGL LOG] solve : 339 ms
nonecudaGKOCG:  Solving for p, Initial residual = 0.0145482, Final residual = 9.98532e-07, No Iterations 463
linear solve p 350468
time step continuity errors : sum local = 2.07174e-07, global = 2.66073e-20, cumulative = 3.25796e-20
ExecutionTime = 15.91 s  ClockTime = 16 s

Time = 0.0142857

Courant Number mean: 0.191429 max: 0.955681
DILUPBiCGStab:  Solving for Ux, Initial residual = 7.72139e-05, Final residual = 1.49712e-07, No Iterations 5
DILUPBiCGStab:  Solving for Uy, Initial residual = 0.000214051, Final residual = 3.28895e-07, No Iterations 5
DILUPBiCGStab:  Solving for Uz, Initial residual = 0.000687337, Final residual = 1.8471e-06, No Iterations 5
linear solve U 326191
[OGL LOG] init_preconditioner : 0 ms
[OGL LOG] solve : 369 ms
nonecudaGKOCG:  Solving for p, Initial residual = 0.014657, Final residual = 8.96615e-07, No Iterations 503
linear solve p 380483
time step continuity errors : sum local = 2.07142e-07, global = 2.35237e-21, cumulative = 3.4932e-20
[OGL LOG] init_preconditioner : 0 ms
[OGL LOG] solve : 379 ms
nonecudaGKOCG:  Solving for p, Initial residual = 0.0109088, Final residual = 9.74753e-07, No Iterations 501
linear solve p 390795
time step continuity errors : sum local = 2.07162e-07, global = -1.04752e-20, cumulative = 2.44568e-20
ExecutionTime = 17.2 s  ClockTime = 17 s

End

