/*---------------------------------------------------------------------------*\
  =========                 |
  \\      /  F ield         | OpenFOAM: The Open Source CFD Toolbox
   \\    /   O peration     | Website:  https://openfoam.org
    \\  /    A nd           | Version:  8
     \\/     M anipulation  |
\*---------------------------------------------------------------------------*/
Build  : 8-ef60d22ea792
Exec   : icoFoam
Date   : Sep 11 2021
Time   : 14:07:54
Host   : "uc2n513.localdomain"
PID    : 225058
I/O    : uncollated
Case   : /pfs/data5/home/kit/scc/nq7776/data/code/OBR/lidDrivenCavity3D/Variation_init/100/Variation_mesh/70/Variation_matrix_solver/BiCGStab_NoPrecond_CUDA/1631362059
nProcs : 1
sigFpe : Enabling floating point exception trapping (FOAM_SIGFPE).
fileModificationChecking : Monitoring run-time modified files using timeStampMaster (fileModificationSkew 10)
allowSystemOperations : Allowing user-supplied system call operations

// * * * * * * * * * * * * * * * * * * * * * * * * * * * * * * * * * * * * * //
Create time

Create mesh for time = 0

Reading transportProperties

Reading field p

Reading field U

Reading/calculating face flux field phi


Starting time loop

Time = 0.00142857

Courant Number mean: 0.191369 max: 0.960255
DILUPBiCGStab:  Solving for Ux, Initial residual = 0.123219, Final residual = 1.08625e-05, No Iterations 5
DILUPBiCGStab:  Solving for Uy, Initial residual = 0.236374, Final residual = 2.69981e-05, No Iterations 5
DILUPBiCGStab:  Solving for Uz, Initial residual = 0.30937, Final residual = 0.000142646, No Iterations 5
linear solve U 361156
[OGL LOG] init_host_sparsity_pattern : 96 ms
[OGL LOG] matrix not stored update host matrix
[OGL LOG] update_host_mtx : 50 ms
[OGL LOG] matrix is not yet sorted, compute sorting idxs
[OGL LOG] compute_sort : 2929 ms
[OGL LOG] matrix is not yet sorted, sorting host matrix
[OGL LOG] sort_host_mtx_sparsity_pattern : 64 ms
[OGL LOG] sort_host_mtx : 36 ms
[OGL LOG] init_preconditioner : 0 ms
[OGL LOG] solve : 502 ms
nonecudaGKOBiCGStab:  Solving for p, Initial residual = 0.562471, Final residual = 9.49417e-07, No Iterations 437
linear solve p 4441215
time step continuity errors : sum local = 3.13558e-06, global = 1.70546e-20, cumulative = 1.70546e-20
[OGL LOG] init_preconditioner : 0 ms
[OGL LOG] solve : 505 ms
nonecudaGKOBiCGStab:  Solving for p, Initial residual = 0.250318, Final residual = 8.79934e-07, No Iterations 441
linear solve p 515829
time step continuity errors : sum local = 8.47512e-07, global = 1.54757e-20, cumulative = 3.25303e-20
ExecutionTime = 7.06 s  ClockTime = 7 s

Time = 0.00285714

Courant Number mean: 0.191442 max: 0.955481
DILUPBiCGStab:  Solving for Ux, Initial residual = 0.00494502, Final residual = 1.87635e-05, No Iterations 5
DILUPBiCGStab:  Solving for Uy, Initial residual = 0.0102641, Final residual = 3.24347e-05, No Iterations 5
DILUPBiCGStab:  Solving for Uz, Initial residual = 0.0400244, Final residual = 0.000273401, No Iterations 5
linear solve U 337688
[OGL LOG] init_preconditioner : 0 ms
[OGL LOG] solve : 520 ms
nonecudaGKOBiCGStab:  Solving for p, Initial residual = 0.245521, Final residual = 7.78237e-07, No Iterations 452
linear solve p 531289
time step continuity errors : sum local = 0.000345557, global = 2.62406e-19, cumulative = 2.94936e-19
[OGL LOG] init_preconditioner : 0 ms
[OGL LOG] solve : 530 ms
nonecudaGKOBiCGStab:  Solving for p, Initial residual = 0.501405, Final residual = 9.68633e-07, No Iterations 461
linear solve p 541679
time step continuity errors : sum local = 9.64004e-07, global = 3.77681e-20, cumulative = 3.32704e-19
ExecutionTime = 8.67 s  ClockTime = 8 s

Time = 0.00428571

Courant Number mean: 0.191463 max: 0.956614
DILUPBiCGStab:  Solving for Ux, Initial residual = 0.00118424, Final residual = 4.61573e-06, No Iterations 5
DILUPBiCGStab:  Solving for Uy, Initial residual = 0.00361693, Final residual = 2.664e-05, No Iterations 5
DILUPBiCGStab:  Solving for Uz, Initial residual = 0.39944, Final residual = 0.00621729, No Iterations 5
linear solve U 330340
[OGL LOG] init_preconditioner : 0 ms
[OGL LOG] solve : 485 ms
nonecudaGKOBiCGStab:  Solving for p, Initial residual = 0.772362, Final residual = 8.37888e-07, No Iterations 424
linear solve p 496352
time step continuity errors : sum local = 1.0325e-05, global = 1.09156e-20, cumulative = 3.4362e-19
[OGL LOG] init_preconditioner : 0 ms
[OGL LOG] solve : 490 ms
nonecudaGKOBiCGStab:  Solving for p, Initial residual = 0.682962, Final residual = 7.28636e-07, No Iterations 428
linear solve p 500707
time step continuity errors : sum local = 1.10725e-05, global = 1.42729e-21, cumulative = 3.45047e-19
ExecutionTime = 10.2 s  ClockTime = 10 s

Time = 0.00571429

Courant Number mean: 0.191978 max: 0.972119
DILUPBiCGStab:  Solving for Ux, Initial residual = 0.00263139, Final residual = 1.75868e-05, No Iterations 5
DILUPBiCGStab:  Solving for Uy, Initial residual = 0.00844469, Final residual = 5.88646e-05, No Iterations 5
DILUPBiCGStab:  Solving for Uz, Initial residual = 0.457402, Final residual = 0.00361816, No Iterations 5
linear solve U 328335
[OGL LOG] init_preconditioner : 0 ms
[OGL LOG] solve : 481 ms
nonecudaGKOBiCGStab:  Solving for p, Initial residual = 0.704992, Final residual = 9.30499e-07, No Iterations 421
linear solve p 493195
time step continuity errors : sum local = 6.25861e-06, global = -1.34767e-20, cumulative = 3.31571e-19
[OGL LOG] init_preconditioner : 0 ms
[OGL LOG] solve : 491 ms
nonecudaGKOBiCGStab:  Solving for p, Initial residual = 0.62028, Final residual = 6.11906e-07, No Iterations 429
linear solve p 502425
time step continuity errors : sum local = 1.1541e-05, global = -1.60377e-20, cumulative = 3.15533e-19
ExecutionTime = 11.73 s  ClockTime = 11 s

Time = 0.00714286

Courant Number mean: 0.191572 max: 0.963823
DILUPBiCGStab:  Solving for Ux, Initial residual = 0.0016332, Final residual = 1.22768e-05, No Iterations 5
DILUPBiCGStab:  Solving for Uy, Initial residual = 0.00540382, Final residual = 3.96666e-05, No Iterations 5
DILUPBiCGStab:  Solving for Uz, Initial residual = 0.396641, Final residual = 0.00220325, No Iterations 5
linear solve U 333082
[OGL LOG] init_preconditioner : 0 ms
[OGL LOG] solve : 501 ms
nonecudaGKOBiCGStab:  Solving for p, Initial residual = 0.654538, Final residual = 9.9383e-07, No Iterations 440
linear solve p 513041
time step continuity errors : sum local = 2.40456e-06, global = -3.9284e-20, cumulative = 2.76249e-19
[OGL LOG] init_preconditioner : 0 ms
[OGL LOG] solve : 501 ms
nonecudaGKOBiCGStab:  Solving for p, Initial residual = 0.569426, Final residual = 9.95313e-07, No Iterations 438
linear solve p 512411
time step continuity errors : sum local = 5.4913e-07, global = 1.42249e-20, cumulative = 2.90474e-19
ExecutionTime = 13.29 s  ClockTime = 13 s

Time = 0.00857143

Courant Number mean: 0.191535 max: 0.961445
DILUPBiCGStab:  Solving for Ux, Initial residual = 0.00119295, Final residual = 9.01001e-06, No Iterations 5
DILUPBiCGStab:  Solving for Uy, Initial residual = 0.00401395, Final residual = 2.86859e-05, No Iterations 5
DILUPBiCGStab:  Solving for Uz, Initial residual = 0.351166, Final residual = 0.00137805, No Iterations 5
linear solve U 332088
[OGL LOG] init_preconditioner : 0 ms
[OGL LOG] solve : 490 ms
nonecudaGKOBiCGStab:  Solving for p, Initial residual = 0.60183, Final residual = 9.65833e-07, No Iterations 426
linear solve p 501359
time step continuity errors : sum local = 5.12873e-06, global = 7.05467e-21, cumulative = 2.97529e-19
[OGL LOG] init_preconditioner : 0 ms
[OGL LOG] solve : 471 ms
nonecudaGKOBiCGStab:  Solving for p, Initial residual = 0.51272, Final residual = 2.66329e-07, No Iterations 408
linear solve p 482467
time step continuity errors : sum local = 0.000120481, global = 3.65293e-20, cumulative = 3.34058e-19
ExecutionTime = 14.82 s  ClockTime = 15 s

Time = 0.01

Courant Number mean: 0.191517 max: 0.96072
DILUPBiCGStab:  Solving for Ux, Initial residual = 0.000787448, Final residual = 5.25392e-06, No Iterations 5
DILUPBiCGStab:  Solving for Uy, Initial residual = 0.00285115, Final residual = 2.30389e-05, No Iterations 5
DILUPBiCGStab:  Solving for Uz, Initial residual = 0.379904, Final residual = 0.00347214, No Iterations 5
linear solve U 330307
[OGL LOG] init_preconditioner : 0 ms
[OGL LOG] solve : 473 ms
nonecudaGKOBiCGStab:  Solving for p, Initial residual = 0.696709, Final residual = 4.53794e-07, No Iterations 415
linear solve p 484312
time step continuity errors : sum local = 3.65726e-05, global = 1.85363e-20, cumulative = 3.52594e-19
[OGL LOG] init_preconditioner : 0 ms
[OGL LOG] solve : 511 ms
nonecudaGKOBiCGStab:  Solving for p, Initial residual = 0.564065, Final residual = 9.77838e-07, No Iterations 446
linear solve p 521791
time step continuity errors : sum local = 2.11451e-07, global = 3.6977e-20, cumulative = 3.89571e-19
ExecutionTime = 16.34 s  ClockTime = 16 s

Time = 0.0114286

Courant Number mean: 0.191631 max: 0.964712
DILUPBiCGStab:  Solving for Ux, Initial residual = 0.00133986, Final residual = 1.05808e-05, No Iterations 5
DILUPBiCGStab:  Solving for Uy, Initial residual = 0.00461455, Final residual = 3.81759e-05, No Iterations 5
DILUPBiCGStab:  Solving for Uz, Initial residual = 0.412204, Final residual = 0.00277392, No Iterations 5
linear solve U 328216
[OGL LOG] init_preconditioner : 0 ms
[OGL LOG] solve : 502 ms
nonecudaGKOBiCGStab:  Solving for p, Initial residual = 0.665531, Final residual = 6.51776e-07, No Iterations 434
linear solve p 514186
time step continuity errors : sum local = 4.48607e-05, global = -1.19263e-20, cumulative = 3.77645e-19
[OGL LOG] init_preconditioner : 0 ms
[OGL LOG] solve : 480 ms
nonecudaGKOBiCGStab:  Solving for p, Initial residual = 0.545279, Final residual = 5.04124e-07, No Iterations 421
linear solve p 491388
time step continuity errors : sum local = 0.000273714, global = 3.70327e-19, cumulative = 7.47972e-19
ExecutionTime = 17.88 s  ClockTime = 18 s

Time = 0.0128571

Courant Number mean: 0.191633 max: 0.965827
DILUPBiCGStab:  Solving for Ux, Initial residual = 0.00107646, Final residual = 8.62979e-06, No Iterations 5
DILUPBiCGStab:  Solving for Uy, Initial residual = 0.0041564, Final residual = 4.96305e-05, No Iterations 5
DILUPBiCGStab:  Solving for Uz, Initial residual = 0.496333, Final residual = 0.00574937, No Iterations 5
linear solve U 333523
[OGL LOG] init_preconditioner : 0 ms
[OGL LOG] solve : 480 ms
nonecudaGKOBiCGStab:  Solving for p, Initial residual = 0.817863, Final residual = 9.64266e-07, No Iterations 420
linear solve p 492124
time step continuity errors : sum local = 2.90791e-06, global = 4.87977e-21, cumulative = 7.52852e-19
[OGL LOG] init_preconditioner : 0 ms
[OGL LOG] solve : 485 ms
nonecudaGKOBiCGStab:  Solving for p, Initial residual = 0.699442, Final residual = 7.82949e-07, No Iterations 427
linear solve p 496381
time step continuity errors : sum local = 1.41902e-05, global = -2.07587e-20, cumulative = 7.32093e-19
ExecutionTime = 19.4 s  ClockTime = 19 s

Time = 0.0142857

Courant Number mean: 0.192057 max: 0.976493
DILUPBiCGStab:  Solving for Ux, Initial residual = 0.00304779, Final residual = 2.38185e-05, No Iterations 5
DILUPBiCGStab:  Solving for Uy, Initial residual = 0.0102493, Final residual = 8.17959e-05, No Iterations 5
DILUPBiCGStab:  Solving for Uz, Initial residual = 0.556989, Final residual = 0.00364859, No Iterations 5
linear solve U 331750
[OGL LOG] init_preconditioner : 0 ms
[OGL LOG] solve : 480 ms
nonecudaGKOBiCGStab:  Solving for p, Initial residual = 0.781857, Final residual = 1.96901e-07, No Iterations 421
linear solve p 491260
time step continuity errors : sum local = 5.22063e-05, global = 1.00816e-19, cumulative = 8.32909e-19
[OGL LOG] init_preconditioner : 0 ms
[OGL LOG] solve : 522 ms
nonecudaGKOBiCGStab:  Solving for p, Initial residual = 0.656414, Final residual = 6.66974e-07, No Iterations 448
linear solve p 533397
time step continuity errors : sum local = 3.26179e-05, global = -4.98066e-21, cumulative = 8.27928e-19
ExecutionTime = 20.96 s  ClockTime = 21 s

End

