/*---------------------------------------------------------------------------*\
  =========                 |
  \\      /  F ield         | OpenFOAM: The Open Source CFD Toolbox
   \\    /   O peration     | Website:  https://openfoam.org
    \\  /    A nd           | Version:  8
     \\/     M anipulation  |
\*---------------------------------------------------------------------------*/
Build  : 8-ef60d22ea792
Exec   : icoFoam
Date   : Sep 11 2021
Time   : 14:44:07
Host   : "uc2n513.localdomain"
PID    : 233691
I/O    : uncollated
Case   : /pfs/data5/home/kit/scc/nq7776/data/code/OBR/lidDrivenCavity3D/Variation_init/100/Variation_mesh/45/Variation_matrix_solver/BiCGStab_ILU_CUDA/1631364241
nProcs : 1
sigFpe : Enabling floating point exception trapping (FOAM_SIGFPE).
fileModificationChecking : Monitoring run-time modified files using timeStampMaster (fileModificationSkew 10)
allowSystemOperations : Allowing user-supplied system call operations

// * * * * * * * * * * * * * * * * * * * * * * * * * * * * * * * * * * * * * //
Create time

Create mesh for time = 0

Reading transportProperties

Reading field p

Reading field U

Reading/calculating face flux field phi


Starting time loop

Time = 0.00222222

Courant Number mean: 0.190928 max: 0.914047
DILUPBiCGStab:  Solving for Ux, Initial residual = 0.0595792, Final residual = 4.86933e-06, No Iterations 5
DILUPBiCGStab:  Solving for Uy, Initial residual = 0.0975024, Final residual = 1.18416e-05, No Iterations 5
DILUPBiCGStab:  Solving for Uz, Initial residual = 0.125234, Final residual = 3.53848e-05, No Iterations 5
linear solve U 81372
[OGL LOG] init_host_sparsity_pattern : 23 ms
[OGL LOG] matrix not stored update host matrix
[OGL LOG] update_host_mtx : 12 ms
[OGL LOG] matrix is not yet sorted, compute sorting idxs
[OGL LOG] compute_sort : 710 ms
[OGL LOG] matrix is not yet sorted, sorting host matrix
[OGL LOG] sort_host_mtx_sparsity_pattern : 16 ms
[OGL LOG] sort_host_mtx : 10 ms
[OGL LOG] init_preconditioner : 29 ms
[OGL LOG] solve : 163 ms
ILUcudaGKOBiCGStab:  Solving for p, Initial residual = 0.429284, Final residual = 5.08213e-07, No Iterations 88
linear solve p 1716319
time step continuity errors : sum local = 1.27264e-09, global = -7.81667e-20, cumulative = -7.81667e-20
[OGL LOG] init_preconditioner : 0 ms
[OGL LOG] solve : 153 ms
ILUcudaGKOBiCGStab:  Solving for p, Initial residual = 0.201177, Final residual = 8.6566e-07, No Iterations 82
linear solve p 156685
time step continuity errors : sum local = 2.43484e-09, global = -1.9237e-20, cumulative = -9.74037e-20
ExecutionTime = 2.44 s  ClockTime = 2 s

Time = 0.00444444

Courant Number mean: 0.190905 max: 0.929693
DILUPBiCGStab:  Solving for Ux, Initial residual = 0.00558499, Final residual = 5.75057e-06, No Iterations 5
DILUPBiCGStab:  Solving for Uy, Initial residual = 0.0107015, Final residual = 1.18856e-05, No Iterations 5
DILUPBiCGStab:  Solving for Uz, Initial residual = 0.026842, Final residual = 2.96675e-05, No Iterations 5
linear solve U 71951
[OGL LOG] init_preconditioner : 0 ms
[OGL LOG] solve : 172 ms
ILUcudaGKOBiCGStab:  Solving for p, Initial residual = 0.226317, Final residual = 9.73246e-07, No Iterations 93
linear solve p 175046
time step continuity errors : sum local = 4.85508e-07, global = 2.55109e-20, cumulative = -7.18927e-20
[OGL LOG] init_preconditioner : 0 ms
[OGL LOG] solve : 162 ms
ILUcudaGKOBiCGStab:  Solving for p, Initial residual = 0.154088, Final residual = 9.5047e-07, No Iterations 86
linear solve p 165004
time step continuity errors : sum local = 4.51956e-07, global = 5.37045e-20, cumulative = -1.81883e-20
ExecutionTime = 2.89 s  ClockTime = 2 s

Time = 0.00666667

Courant Number mean: 0.190867 max: 0.930874
DILUPBiCGStab:  Solving for Ux, Initial residual = 0.00160094, Final residual = 1.96091e-06, No Iterations 5
DILUPBiCGStab:  Solving for Uy, Initial residual = 0.00403776, Final residual = 4.81654e-06, No Iterations 5
DILUPBiCGStab:  Solving for Uz, Initial residual = 0.0116607, Final residual = 1.17259e-05, No Iterations 5
linear solve U 71499
[OGL LOG] init_preconditioner : 0 ms
[OGL LOG] solve : 180 ms
ILUcudaGKOBiCGStab:  Solving for p, Initial residual = 0.101691, Final residual = 6.8115e-07, No Iterations 97
linear solve p 183010
time step continuity errors : sum local = 4.37116e-07, global = 7.64889e-21, cumulative = -1.05394e-20
[OGL LOG] init_preconditioner : 0 ms
[OGL LOG] solve : 164 ms
ILUcudaGKOBiCGStab:  Solving for p, Initial residual = 0.0701914, Final residual = 4.97843e-07, No Iterations 88
linear solve p 167276
time step continuity errors : sum local = 4.4955e-07, global = -5.3886e-20, cumulative = -6.44253e-20
ExecutionTime = 3.37 s  ClockTime = 3 s

Time = 0.00888889

Courant Number mean: 0.190895 max: 0.931103
DILUPBiCGStab:  Solving for Ux, Initial residual = 0.000646157, Final residual = 9.84675e-07, No Iterations 5
DILUPBiCGStab:  Solving for Uy, Initial residual = 0.00163813, Final residual = 1.63605e-06, No Iterations 5
DILUPBiCGStab:  Solving for Uz, Initial residual = 0.0047008, Final residual = 4.54289e-06, No Iterations 5
linear solve U 71593
[OGL LOG] init_preconditioner : 0 ms
[OGL LOG] solve : 166 ms
ILUcudaGKOBiCGStab:  Solving for p, Initial residual = 0.05289, Final residual = 9.43398e-07, No Iterations 89
linear solve p 168662
time step continuity errors : sum local = 4.54086e-07, global = 1.89695e-20, cumulative = -4.54558e-20
[OGL LOG] init_preconditioner : 0 ms
[OGL LOG] solve : 164 ms
ILUcudaGKOBiCGStab:  Solving for p, Initial residual = 0.0383894, Final residual = 4.37555e-07, No Iterations 88
linear solve p 167260
time step continuity errors : sum local = 4.49511e-07, global = 1.33268e-23, cumulative = -4.54425e-20
ExecutionTime = 3.83 s  ClockTime = 3 s

Time = 0.0111111

Courant Number mean: 0.190873 max: 0.931033
DILUPBiCGStab:  Solving for Ux, Initial residual = 0.000313496, Final residual = 3.35887e-07, No Iterations 5
DILUPBiCGStab:  Solving for Uy, Initial residual = 0.000834747, Final residual = 8.17505e-07, No Iterations 5
DILUPBiCGStab:  Solving for Uz, Initial residual = 0.00233761, Final residual = 2.24667e-06, No Iterations 5
linear solve U 71101
[OGL LOG] init_preconditioner : 0 ms
[OGL LOG] solve : 141 ms
ILUcudaGKOBiCGStab:  Solving for p, Initial residual = 0.0293655, Final residual = 7.86394e-07, No Iterations 76
linear solve p 143832
time step continuity errors : sum local = 4.47873e-07, global = 1.94183e-20, cumulative = -2.60242e-20
[OGL LOG] init_preconditioner : 0 ms
[OGL LOG] solve : 151 ms
ILUcudaGKOBiCGStab:  Solving for p, Initial residual = 0.0215235, Final residual = 6.37653e-07, No Iterations 81
linear solve p 153927
time step continuity errors : sum local = 4.49297e-07, global = -8.58701e-20, cumulative = -1.11894e-19
ExecutionTime = 4.23 s  ClockTime = 4 s

Time = 0.0133333

Courant Number mean: 0.190876 max: 0.931058
DILUPBiCGStab:  Solving for Ux, Initial residual = 0.000178914, Final residual = 2.32296e-07, No Iterations 5
DILUPBiCGStab:  Solving for Uy, Initial residual = 0.000452282, Final residual = 4.23229e-07, No Iterations 5
DILUPBiCGStab:  Solving for Uz, Initial residual = 0.00129202, Final residual = 1.21746e-06, No Iterations 5
linear solve U 71617
[OGL LOG] init_preconditioner : 0 ms
[OGL LOG] solve : 68 ms
ILUcudaGKOBiCGStab:  Solving for p, Initial residual = 0.0175492, Final residual = 9.85454e-07, No Iterations 36
linear solve p 70606
time step continuity errors : sum local = 4.51176e-07, global = 1.01382e-19, cumulative = -1.05125e-20
[OGL LOG] init_preconditioner : 0 ms
[OGL LOG] solve : 74 ms
ILUcudaGKOBiCGStab:  Solving for p, Initial residual = 0.0130401, Final residual = 9.43651e-07, No Iterations 39
linear solve p 76811
time step continuity errors : sum local = 4.49949e-07, global = -6.24558e-20, cumulative = -7.29683e-20
ExecutionTime = 4.51 s  ClockTime = 4 s

Time = 0.0155556

Courant Number mean: 0.190871 max: 0.931023
DILUPBiCGStab:  Solving for Ux, Initial residual = 0.000105764, Final residual = 1.10675e-07, No Iterations 5
DILUPBiCGStab:  Solving for Uy, Initial residual = 0.000276472, Final residual = 2.80453e-07, No Iterations 5
DILUPBiCGStab:  Solving for Uz, Initial residual = 0.000769937, Final residual = 5.40364e-07, No Iterations 5
linear solve U 71583
[OGL LOG] init_preconditioner : 0 ms
[OGL LOG] solve : 100 ms
ILUcudaGKOBiCGStab:  Solving for p, Initial residual = 0.0108867, Final residual = 8.53057e-07, No Iterations 54
linear solve p 103309
time step continuity errors : sum local = 4.49542e-07, global = 1.23397e-20, cumulative = -6.06286e-20
[OGL LOG] init_preconditioner : 0 ms
[OGL LOG] solve : 68 ms
ILUcudaGKOBiCGStab:  Solving for p, Initial residual = 0.00813908, Final residual = 5.30964e-07, No Iterations 35
linear solve p 70593
time step continuity errors : sum local = 4.49204e-07, global = 1.68775e-20, cumulative = -4.37511e-20
ExecutionTime = 4.81 s  ClockTime = 4 s

Time = 0.0177778

Courant Number mean: 0.190873 max: 0.931034
DILUPBiCGStab:  Solving for Ux, Initial residual = 6.81287e-05, Final residual = 6.24363e-08, No Iterations 5
DILUPBiCGStab:  Solving for Uy, Initial residual = 0.000175789, Final residual = 1.38048e-07, No Iterations 5
DILUPBiCGStab:  Solving for Uz, Initial residual = 0.000505006, Final residual = 4.74954e-07, No Iterations 5
linear solve U 71608
[OGL LOG] init_preconditioner : 0 ms
[OGL LOG] solve : 112 ms
ILUcudaGKOBiCGStab:  Solving for p, Initial residual = 0.00694022, Final residual = 9.53636e-07, No Iterations 60
linear solve p 115336
time step continuity errors : sum local = 4.49986e-07, global = 3.92005e-20, cumulative = -4.55057e-21
[OGL LOG] init_preconditioner : 0 ms
[OGL LOG] solve : 63 ms
ILUcudaGKOBiCGStab:  Solving for p, Initial residual = 0.00521789, Final residual = 9.98633e-07, No Iterations 33
linear solve p 65758
time step continuity errors : sum local = 4.49803e-07, global = 2.64406e-20, cumulative = 2.189e-20
ExecutionTime = 5.1 s  ClockTime = 5 s

Time = 0.02

Courant Number mean: 0.190873 max: 0.931017
DILUPBiCGStab:  Solving for Ux, Initial residual = 4.49806e-05, Final residual = 3.39855e-08, No Iterations 5
DILUPBiCGStab:  Solving for Uy, Initial residual = 0.000119101, Final residual = 8.90685e-08, No Iterations 5
DILUPBiCGStab:  Solving for Uz, Initial residual = 0.000355216, Final residual = 3.27315e-07, No Iterations 5
linear solve U 71188
[OGL LOG] init_preconditioner : 0 ms
[OGL LOG] solve : 130 ms
ILUcudaGKOBiCGStab:  Solving for p, Initial residual = 0.00450771, Final residual = 7.74431e-07, No Iterations 70
linear solve p 133546
time step continuity errors : sum local = 4.49275e-07, global = -4.47833e-20, cumulative = -2.28933e-20
[OGL LOG] init_preconditioner : 0 ms
[OGL LOG] solve : 108 ms
ILUcudaGKOBiCGStab:  Solving for p, Initial residual = 0.00340086, Final residual = 9.95851e-07, No Iterations 58
linear solve p 110675
time step continuity errors : sum local = 4.50381e-07, global = 2.65337e-20, cumulative = 3.64036e-21
ExecutionTime = 5.47 s  ClockTime = 5 s

Time = 0.0222222

Courant Number mean: 0.190876 max: 0.931023
DILUPBiCGStab:  Solving for Ux, Initial residual = 3.07873e-05, Final residual = 2.20142e-08, No Iterations 5
DILUPBiCGStab:  Solving for Uy, Initial residual = 8.28768e-05, Final residual = 4.82082e-08, No Iterations 5
DILUPBiCGStab:  Solving for Uz, Initial residual = 0.000301864, Final residual = 3.30959e-07, No Iterations 5
linear solve U 71417
[OGL LOG] init_preconditioner : 0 ms
[OGL LOG] solve : 128 ms
ILUcudaGKOBiCGStab:  Solving for p, Initial residual = 0.00296317, Final residual = 8.61097e-07, No Iterations 69
linear solve p 131003
time step continuity errors : sum local = 4.49316e-07, global = 1.93282e-20, cumulative = 2.29686e-20
[OGL LOG] init_preconditioner : 0 ms
[OGL LOG] solve : 124 ms
ILUcudaGKOBiCGStab:  Solving for p, Initial residual = 0.00224138, Final residual = 9.82247e-07, No Iterations 67
linear solve p 127244
time step continuity errors : sum local = 4.49443e-07, global = -2.25545e-21, cumulative = 2.07131e-20
ExecutionTime = 5.85 s  ClockTime = 5 s

End

