/*---------------------------------------------------------------------------*\
  =========                 |
  \\      /  F ield         | OpenFOAM: The Open Source CFD Toolbox
   \\    /   O peration     | Website:  https://openfoam.org
    \\  /    A nd           | Version:  8
     \\/     M anipulation  |
\*---------------------------------------------------------------------------*/
Build  : 8-ef60d22ea792
Exec   : icoFoam
Date   : Sep 11 2021
Time   : 14:40:15
Host   : "uc2n513.localdomain"
PID    : 231344
I/O    : uncollated
Case   : /pfs/data5/home/kit/scc/nq7776/data/code/OBR/lidDrivenCavity3D/Variation_init/100/Variation_mesh/35/Variation_matrix_solver/CG_BJ_CUDA/1631364012
nProcs : 1
sigFpe : Enabling floating point exception trapping (FOAM_SIGFPE).
fileModificationChecking : Monitoring run-time modified files using timeStampMaster (fileModificationSkew 10)
allowSystemOperations : Allowing user-supplied system call operations

// * * * * * * * * * * * * * * * * * * * * * * * * * * * * * * * * * * * * * //
Create time

Create mesh for time = 0

Reading transportProperties

Reading field p

Reading field U

Reading/calculating face flux field phi


Starting time loop

Time = 0.00285714

Courant Number mean: 0.190911 max: 0.908567
DILUPBiCGStab:  Solving for Ux, Initial residual = 0.0505974, Final residual = 1.07894e-06, No Iterations 5
DILUPBiCGStab:  Solving for Uy, Initial residual = 0.0886223, Final residual = 3.41025e-06, No Iterations 5
DILUPBiCGStab:  Solving for Uz, Initial residual = 0.109411, Final residual = 1.20546e-05, No Iterations 5
linear solve U 32020
[OGL LOG] init_host_sparsity_pattern : 11 ms
[OGL LOG] matrix not stored update host matrix
[OGL LOG] update_host_mtx : 5 ms
[OGL LOG] matrix is not yet sorted, compute sorting idxs
[OGL LOG] compute_sort : 319 ms
[OGL LOG] matrix is not yet sorted, sorting host matrix
[OGL LOG] sort_host_mtx_sparsity_pattern : 7 ms
[OGL LOG] sort_host_mtx : 4 ms
[OGL LOG] init_preconditioner : 4 ms
[OGL LOG] solve : 34 ms
BJcudaGKOCG:  Solving for p, Initial residual = 0.486126, Final residual = 8.43468e-07, No Iterations 247
linear solve p 1122957
time step continuity errors : sum local = 2.63522e-09, global = -9.60506e-20, cumulative = -9.60506e-20
[OGL LOG] init_preconditioner : 0 ms
[OGL LOG] solve : 33 ms
BJcudaGKOCG:  Solving for p, Initial residual = 0.248641, Final residual = 9.83154e-07, No Iterations 245
linear solve p 34952
time step continuity errors : sum local = 2.41194e-09, global = 5.43288e-20, cumulative = -4.17218e-20
ExecutionTime = 1.42 s  ClockTime = 2 s

Time = 0.00571429

Courant Number mean: 0.190314 max: 0.910887
DILUPBiCGStab:  Solving for Ux, Initial residual = 0.00661151, Final residual = 3.58822e-06, No Iterations 5
DILUPBiCGStab:  Solving for Uy, Initial residual = 0.0135431, Final residual = 4.87533e-06, No Iterations 5
DILUPBiCGStab:  Solving for Uz, Initial residual = 0.0308813, Final residual = 1.20804e-05, No Iterations 5
linear solve U 28620
[OGL LOG] init_preconditioner : 0 ms
[OGL LOG] solve : 33 ms
BJcudaGKOCG:  Solving for p, Initial residual = 0.200799, Final residual = 9.14318e-07, No Iterations 244
linear solve p 34843
time step continuity errors : sum local = 4.93909e-07, global = 3.73478e-20, cumulative = -4.374e-21
[OGL LOG] init_preconditioner : 0 ms
[OGL LOG] solve : 33 ms
BJcudaGKOCG:  Solving for p, Initial residual = 0.141545, Final residual = 9.99029e-07, No Iterations 241
linear solve p 34414
time step continuity errors : sum local = 4.25432e-07, global = 2.79428e-20, cumulative = 2.35688e-20
ExecutionTime = 1.54 s  ClockTime = 2 s

Time = 0.00857143

Courant Number mean: 0.190208 max: 0.910339
DILUPBiCGStab:  Solving for Ux, Initial residual = 0.00191682, Final residual = 9.78662e-07, No Iterations 5
DILUPBiCGStab:  Solving for Uy, Initial residual = 0.00463125, Final residual = 1.82869e-06, No Iterations 5
DILUPBiCGStab:  Solving for Uz, Initial residual = 0.0123626, Final residual = 2.98072e-06, No Iterations 5
linear solve U 28452
[OGL LOG] init_preconditioner : 0 ms
[OGL LOG] solve : 32 ms
BJcudaGKOCG:  Solving for p, Initial residual = 0.0916211, Final residual = 8.72168e-07, No Iterations 235
linear solve p 33696
time step continuity errors : sum local = 4.07863e-07, global = -5.55954e-20, cumulative = -3.20266e-20
[OGL LOG] init_preconditioner : 0 ms
[OGL LOG] solve : 32 ms
BJcudaGKOCG:  Solving for p, Initial residual = 0.0658172, Final residual = 9.67717e-07, No Iterations 233
linear solve p 33270
time step continuity errors : sum local = 4.22631e-07, global = -4.86028e-20, cumulative = -8.06294e-20
ExecutionTime = 1.65 s  ClockTime = 2 s

Time = 0.0114286

Courant Number mean: 0.190301 max: 0.911286
DILUPBiCGStab:  Solving for Ux, Initial residual = 0.00075534, Final residual = 2.04902e-07, No Iterations 5
DILUPBiCGStab:  Solving for Uy, Initial residual = 0.00183494, Final residual = 3.96929e-07, No Iterations 5
DILUPBiCGStab:  Solving for Uz, Initial residual = 0.00487897, Final residual = 1.2007e-06, No Iterations 5
linear solve U 30474
[OGL LOG] init_preconditioner : 0 ms
[OGL LOG] solve : 30 ms
BJcudaGKOCG:  Solving for p, Initial residual = 0.0479571, Final residual = 8.73491e-07, No Iterations 219
linear solve p 31574
time step continuity errors : sum local = 4.27051e-07, global = 1.12325e-19, cumulative = 3.16952e-20
[OGL LOG] init_preconditioner : 0 ms
[OGL LOG] solve : 30 ms
BJcudaGKOCG:  Solving for p, Initial residual = 0.0341457, Final residual = 9.59086e-07, No Iterations 217
linear solve p 31113
time step continuity errors : sum local = 4.22988e-07, global = 3.49067e-20, cumulative = 6.66019e-20
ExecutionTime = 1.76 s  ClockTime = 2 s

Time = 0.0142857

Courant Number mean: 0.19029 max: 0.911194
DILUPBiCGStab:  Solving for Ux, Initial residual = 0.000356111, Final residual = 7.45494e-08, No Iterations 5
DILUPBiCGStab:  Solving for Uy, Initial residual = 0.000881869, Final residual = 1.60471e-07, No Iterations 5
DILUPBiCGStab:  Solving for Uz, Initial residual = 0.00222549, Final residual = 4.25653e-07, No Iterations 5
linear solve U 28505
[OGL LOG] init_preconditioner : 0 ms
[OGL LOG] solve : 29 ms
BJcudaGKOCG:  Solving for p, Initial residual = 0.0253807, Final residual = 9.46722e-07, No Iterations 211
linear solve p 30437
time step continuity errors : sum local = 4.21762e-07, global = -1.95218e-20, cumulative = 4.70802e-20
[OGL LOG] init_preconditioner : 0 ms
[OGL LOG] solve : 29 ms
BJcudaGKOCG:  Solving for p, Initial residual = 0.0177886, Final residual = 9.5243e-07, No Iterations 210
linear solve p 30314
time step continuity errors : sum local = 4.22897e-07, global = 1.27923e-19, cumulative = 1.75004e-19
ExecutionTime = 1.88 s  ClockTime = 2 s

Time = 0.0171429

Courant Number mean: 0.190299 max: 0.91131
DILUPBiCGStab:  Solving for Ux, Initial residual = 0.000190224, Final residual = 4.56984e-08, No Iterations 5
DILUPBiCGStab:  Solving for Uy, Initial residual = 0.000453127, Final residual = 2.88062e-08, No Iterations 5
DILUPBiCGStab:  Solving for Uz, Initial residual = 0.00121202, Final residual = 2.25817e-07, No Iterations 5
linear solve U 28452
[OGL LOG] init_preconditioner : 0 ms
[OGL LOG] solve : 14 ms
BJcudaGKOCG:  Solving for p, Initial residual = 0.0139423, Final residual = 8.81451e-07, No Iterations 103
linear solve p 15890
time step continuity errors : sum local = 4.23668e-07, global = 2.6725e-20, cumulative = 2.01729e-19
[OGL LOG] init_preconditioner : 0 ms
[OGL LOG] solve : 14 ms
BJcudaGKOCG:  Solving for p, Initial residual = 0.00975701, Final residual = 9.34213e-07, No Iterations 101
linear solve p 15622
time step continuity errors : sum local = 4.23009e-07, global = -4.50784e-20, cumulative = 1.5665e-19
ExecutionTime = 1.96 s  ClockTime = 2 s

Time = 0.02

Courant Number mean: 0.190298 max: 0.911278
DILUPBiCGStab:  Solving for Ux, Initial residual = 0.000106055, Final residual = 1.58011e-08, No Iterations 5
DILUPBiCGStab:  Solving for Uy, Initial residual = 0.000242758, Final residual = 2.8835e-08, No Iterations 5
DILUPBiCGStab:  Solving for Uz, Initial residual = 0.000691557, Final residual = 1.3318e-07, No Iterations 5
linear solve U 28427
[OGL LOG] init_preconditioner : 0 ms
[OGL LOG] solve : 14 ms
BJcudaGKOCG:  Solving for p, Initial residual = 0.00780493, Final residual = 8.59135e-07, No Iterations 97
linear solve p 15102
time step continuity errors : sum local = 4.22937e-07, global = -4.72686e-20, cumulative = 1.09382e-19
[OGL LOG] init_preconditioner : 0 ms
[OGL LOG] solve : 14 ms
BJcudaGKOCG:  Solving for p, Initial residual = 0.00544908, Final residual = 9.40783e-07, No Iterations 93
linear solve p 15446
time step continuity errors : sum local = 4.22936e-07, global = -6.85272e-20, cumulative = 4.08545e-20
ExecutionTime = 2.03 s  ClockTime = 2 s

Time = 0.0228571

Courant Number mean: 0.190301 max: 0.911306
DILUPBiCGStab:  Solving for Ux, Initial residual = 6.17991e-05, Final residual = 1.01766e-08, No Iterations 5
DILUPBiCGStab:  Solving for Uy, Initial residual = 0.00013564, Final residual = 2.26559e-08, No Iterations 5
DILUPBiCGStab:  Solving for Uz, Initial residual = 0.000417754, Final residual = 8.94549e-08, No Iterations 5
linear solve U 28437
[OGL LOG] init_preconditioner : 0 ms
[OGL LOG] solve : 12 ms
BJcudaGKOCG:  Solving for p, Initial residual = 0.00444585, Final residual = 9.78089e-07, No Iterations 89
linear solve p 14084
time step continuity errors : sum local = 4.23328e-07, global = -4.1554e-20, cumulative = -6.99542e-22
[OGL LOG] init_preconditioner : 0 ms
[OGL LOG] solve : 12 ms
BJcudaGKOCG:  Solving for p, Initial residual = 0.00311913, Final residual = 9.534e-07, No Iterations 85
linear solve p 13437
time step continuity errors : sum local = 4.23053e-07, global = 6.81945e-20, cumulative = 6.7495e-20
ExecutionTime = 2.11 s  ClockTime = 2 s

Time = 0.0257143

Courant Number mean: 0.190303 max: 0.911295
DILUPBiCGStab:  Solving for Ux, Initial residual = 3.68662e-05, Final residual = 6.10281e-09, No Iterations 5
DILUPBiCGStab:  Solving for Uy, Initial residual = 7.70321e-05, Final residual = 1.56174e-08, No Iterations 5
DILUPBiCGStab:  Solving for Uz, Initial residual = 0.000277662, Final residual = 6.68734e-08, No Iterations 5
linear solve U 28632
[OGL LOG] init_preconditioner : 0 ms
[OGL LOG] solve : 11 ms
BJcudaGKOCG:  Solving for p, Initial residual = 0.002558, Final residual = 9.96582e-07, No Iterations 76
linear solve p 12328
time step continuity errors : sum local = 4.23183e-07, global = -2.19377e-19, cumulative = -1.51882e-19
[OGL LOG] init_preconditioner : 0 ms
[OGL LOG] solve : 11 ms
BJcudaGKOCG:  Solving for p, Initial residual = 0.00180319, Final residual = 8.76221e-07, No Iterations 76
linear solve p 12324
time step continuity errors : sum local = 4.22867e-07, global = -2.77111e-20, cumulative = -1.79594e-19
ExecutionTime = 2.18 s  ClockTime = 2 s

Time = 0.0285714

Courant Number mean: 0.190305 max: 0.911303
DILUPBiCGStab:  Solving for Ux, Initial residual = 2.31223e-05, Final residual = 4.16234e-09, No Iterations 5
DILUPBiCGStab:  Solving for Uy, Initial residual = 4.58197e-05, Final residual = 8.72446e-09, No Iterations 5
DILUPBiCGStab:  Solving for Uz, Initial residual = 0.000178423, Final residual = 4.27888e-08, No Iterations 5
linear solve U 28287
[OGL LOG] init_preconditioner : 0 ms
[OGL LOG] solve : 12 ms
BJcudaGKOCG:  Solving for p, Initial residual = 0.00148132, Final residual = 9.90112e-07, No Iterations 82
linear solve p 13131
time step continuity errors : sum local = 4.23238e-07, global = 5.27794e-20, cumulative = -1.26814e-19
[OGL LOG] init_preconditioner : 0 ms
[OGL LOG] solve : 11 ms
BJcudaGKOCG:  Solving for p, Initial residual = 0.00104995, Final residual = 9.9125e-07, No Iterations 78
linear solve p 12529
time step continuity errors : sum local = 4.23069e-07, global = 8.22212e-20, cumulative = -4.4593e-20
ExecutionTime = 2.26 s  ClockTime = 3 s

End

