/*---------------------------------------------------------------------------*\
  =========                 |
  \\      /  F ield         | OpenFOAM: The Open Source CFD Toolbox
   \\    /   O peration     | Website:  https://openfoam.org
    \\  /    A nd           | Version:  8
     \\/     M anipulation  |
\*---------------------------------------------------------------------------*/
Build  : 8-ef60d22ea792
Exec   : icoFoam
Date   : Sep 11 2021
Time   : 14:46:05
Host   : "uc2n442.localdomain"
PID    : 3723033
I/O    : uncollated
Case   : /pfs/data5/home/kit/scc/nq7776/data/code/OBR/lidDrivenCavity3D/Variation_init/100/Variation_mesh/85/Variation_matrix_solver/BiCGStab_DIC_Serial/1631364337
nProcs : 1
sigFpe : Enabling floating point exception trapping (FOAM_SIGFPE).
fileModificationChecking : Monitoring run-time modified files using timeStampMaster (fileModificationSkew 10)
allowSystemOperations : Allowing user-supplied system call operations

// * * * * * * * * * * * * * * * * * * * * * * * * * * * * * * * * * * * * * //
Create time

Create mesh for time = 0

Reading transportProperties

Reading field p

Reading field U

Reading/calculating face flux field phi


Starting time loop

Time = 0.00117647

Courant Number mean: 0.19128 max: 0.963498
DILUPBiCGStab:  Solving for Ux, Initial residual = 0.0801002, Final residual = 3.10838e-05, No Iterations 5
DILUPBiCGStab:  Solving for Uy, Initial residual = 0.15471, Final residual = 7.99938e-05, No Iterations 5
DILUPBiCGStab:  Solving for Uz, Initial residual = 0.204787, Final residual = 0.000190775, No Iterations 5
linear solve U 612673
DICPBiCGStab:  Solving for p, Initial residual = 0.639229, Final residual = 1.98921e-07, No Iterations 178
linear solve p 5208706
time step continuity errors : sum local = 2.00249e-10, global = -5.74364e-21, cumulative = -5.74364e-21
DICPBiCGStab:  Solving for p, Initial residual = 0.354968, Final residual = 3.52377e-07, No Iterations 164
linear solve p 4726792
time step continuity errors : sum local = 2.50014e-10, global = -2.08952e-20, cumulative = -2.66388e-20
ExecutionTime = 13.66 s  ClockTime = 14 s

Time = 0.00235294

Courant Number mean: 0.191423 max: 0.964029
DILUPBiCGStab:  Solving for Ux, Initial residual = 0.00592859, Final residual = 2.11059e-05, No Iterations 5
DILUPBiCGStab:  Solving for Uy, Initial residual = 0.013936, Final residual = 6.02629e-05, No Iterations 5
DILUPBiCGStab:  Solving for Uz, Initial residual = 0.0247004, Final residual = 0.000175399, No Iterations 5
linear solve U 569307
DICPBiCGStab:  Solving for p, Initial residual = 0.425047, Final residual = 7.45453e-07, No Iterations 171
linear solve p 5055260
time step continuity errors : sum local = 5.59016e-10, global = 2.6281e-20, cumulative = -3.57856e-22
DICPBiCGStab:  Solving for p, Initial residual = 0.285915, Final residual = 4.48522e-07, No Iterations 173
linear solve p 5054093
time step continuity errors : sum local = 3.28916e-10, global = -1.9878e-21, cumulative = -2.34565e-21
ExecutionTime = 24.65 s  ClockTime = 25 s

Time = 0.00352941

Courant Number mean: 0.19141 max: 0.963513
DILUPBiCGStab:  Solving for Ux, Initial residual = 0.00217453, Final residual = 1.17684e-05, No Iterations 5
DILUPBiCGStab:  Solving for Uy, Initial residual = 0.00584931, Final residual = 3.03302e-05, No Iterations 5
DILUPBiCGStab:  Solving for Uz, Initial residual = 0.0146093, Final residual = 0.000111079, No Iterations 5
linear solve U 571500
DICPBiCGStab:  Solving for p, Initial residual = 0.285939, Final residual = 6.38113e-07, No Iterations 167
linear solve p 4826578
time step continuity errors : sum local = 5.95501e-10, global = 1.66361e-20, cumulative = 1.42904e-20
DICPBiCGStab:  Solving for p, Initial residual = 0.198167, Final residual = 9.74139e-07, No Iterations 173
linear solve p 5046140
time step continuity errors : sum local = 5.36828e-10, global = 1.0225e-20, cumulative = 2.45154e-20
ExecutionTime = 35.4 s  ClockTime = 36 s

Time = 0.00470588

Courant Number mean: 0.191413 max: 0.963513
DILUPBiCGStab:  Solving for Ux, Initial residual = 0.00132433, Final residual = 4.82388e-06, No Iterations 5
DILUPBiCGStab:  Solving for Uy, Initial residual = 0.00352963, Final residual = 1.65818e-05, No Iterations 5
DILUPBiCGStab:  Solving for Uz, Initial residual = 0.00926895, Final residual = 7.05537e-05, No Iterations 5
linear solve U 570989
DICPBiCGStab:  Solving for p, Initial residual = 0.211286, Final residual = 4.3474e-07, No Iterations 165
linear solve p 4812344
time step continuity errors : sum local = 2.09989e-10, global = -1.54889e-20, cumulative = 9.0265e-21
DICPBiCGStab:  Solving for p, Initial residual = 0.153064, Final residual = 7.15292e-07, No Iterations 160
linear solve p 4609567
time step continuity errors : sum local = 5.55272e-10, global = 2.67326e-20, cumulative = 3.57591e-20
ExecutionTime = 45.7 s  ClockTime = 46 s

Time = 0.00588235

Courant Number mean: 0.191429 max: 0.963457
DILUPBiCGStab:  Solving for Ux, Initial residual = 0.000869159, Final residual = 3.77416e-06, No Iterations 5
DILUPBiCGStab:  Solving for Uy, Initial residual = 0.00226311, Final residual = 9.9352e-06, No Iterations 5
DILUPBiCGStab:  Solving for Uz, Initial residual = 0.00697944, Final residual = 5.86791e-05, No Iterations 5
linear solve U 567734
DICPBiCGStab:  Solving for p, Initial residual = 0.153454, Final residual = 8.86363e-07, No Iterations 170
linear solve p 5007408
time step continuity errors : sum local = 4.50152e-10, global = -3.52469e-20, cumulative = 5.1222e-22
DICPBiCGStab:  Solving for p, Initial residual = 0.114934, Final residual = 4.89323e-07, No Iterations 157
linear solve p 4583175
time step continuity errors : sum local = 4.27589e-10, global = 3.99609e-20, cumulative = 4.04731e-20
ExecutionTime = 56.16 s  ClockTime = 57 s

Time = 0.00705882

Courant Number mean: 0.191444 max: 0.963476
DILUPBiCGStab:  Solving for Ux, Initial residual = 0.000604147, Final residual = 2.23974e-06, No Iterations 5
DILUPBiCGStab:  Solving for Uy, Initial residual = 0.00154297, Final residual = 6.50648e-06, No Iterations 5
DILUPBiCGStab:  Solving for Uz, Initial residual = 0.00498688, Final residual = 3.66501e-05, No Iterations 5
linear solve U 570911
DICPBiCGStab:  Solving for p, Initial residual = 0.118861, Final residual = 8.31803e-07, No Iterations 147
linear solve p 4236045
time step continuity errors : sum local = 4.62553e-10, global = -3.35244e-21, cumulative = 3.71207e-20
DICPBiCGStab:  Solving for p, Initial residual = 0.0917692, Final residual = 9.9675e-07, No Iterations 148
linear solve p 4331036
time step continuity errors : sum local = 7.49008e-10, global = 7.92417e-21, cumulative = 4.50449e-20
ExecutionTime = 65.61 s  ClockTime = 66 s

Time = 0.00823529

Courant Number mean: 0.191456 max: 0.963473
DILUPBiCGStab:  Solving for Ux, Initial residual = 0.000438919, Final residual = 1.75339e-06, No Iterations 5
DILUPBiCGStab:  Solving for Uy, Initial residual = 0.00110143, Final residual = 5.6858e-06, No Iterations 5
DILUPBiCGStab:  Solving for Uz, Initial residual = 0.00385939, Final residual = 3.37374e-05, No Iterations 5
linear solve U 570460
DICPBiCGStab:  Solving for p, Initial residual = 0.0929027, Final residual = 7.81142e-07, No Iterations 73
linear solve p 2132124
time step continuity errors : sum local = 5.16608e-10, global = 1.4637e-20, cumulative = 5.96819e-20
DICPBiCGStab:  Solving for p, Initial residual = 0.0730849, Final residual = 9.75786e-07, No Iterations 75
linear solve p 2160877
time step continuity errors : sum local = 7.73435e-10, global = -9.65718e-22, cumulative = 5.87162e-20
ExecutionTime = 70.79 s  ClockTime = 71 s

Time = 0.00941176

Courant Number mean: 0.191468 max: 0.963472
DILUPBiCGStab:  Solving for Ux, Initial residual = 0.000331437, Final residual = 1.55092e-06, No Iterations 5
DILUPBiCGStab:  Solving for Uy, Initial residual = 0.00082762, Final residual = 3.66336e-06, No Iterations 5
DILUPBiCGStab:  Solving for Uz, Initial residual = 0.00284742, Final residual = 1.94574e-05, No Iterations 5
linear solve U 568495
DICPBiCGStab:  Solving for p, Initial residual = 0.0748356, Final residual = 9.0981e-07, No Iterations 143
linear solve p 4228036
time step continuity errors : sum local = 6.73054e-10, global = -1.58241e-21, cumulative = 5.71338e-20
DICPBiCGStab:  Solving for p, Initial residual = 0.0597413, Final residual = 9.60098e-07, No Iterations 69
linear solve p 2014590
time step continuity errors : sum local = 6.9587e-10, global = 1.61708e-20, cumulative = 7.33046e-20
ExecutionTime = 77.92 s  ClockTime = 78 s

Time = 0.0105882

Courant Number mean: 0.191478 max: 0.963481
DILUPBiCGStab:  Solving for Ux, Initial residual = 0.000259406, Final residual = 1.20388e-06, No Iterations 5
DILUPBiCGStab:  Solving for Uy, Initial residual = 0.000639793, Final residual = 4.0381e-06, No Iterations 5
DILUPBiCGStab:  Solving for Uz, Initial residual = 0.00224587, Final residual = 1.71034e-05, No Iterations 5
linear solve U 571792
DICPBiCGStab:  Solving for p, Initial residual = 0.060808, Final residual = 5.77886e-07, No Iterations 133
linear solve p 3831691
time step continuity errors : sum local = 3.91769e-10, global = -4.56908e-21, cumulative = 6.87355e-20
DICPBiCGStab:  Solving for p, Initial residual = 0.0489394, Final residual = 8.82936e-07, No Iterations 133
linear solve p 3881705
time step continuity errors : sum local = 7.15371e-10, global = -6.69883e-21, cumulative = 6.20367e-20
ExecutionTime = 86.53 s  ClockTime = 87 s

Time = 0.0117647

Courant Number mean: 0.191488 max: 0.963475
DILUPBiCGStab:  Solving for Ux, Initial residual = 0.000207196, Final residual = 1.08756e-06, No Iterations 5
DILUPBiCGStab:  Solving for Uy, Initial residual = 0.000510882, Final residual = 2.88407e-06, No Iterations 5
DILUPBiCGStab:  Solving for Uz, Initial residual = 0.00179358, Final residual = 1.65253e-05, No Iterations 5
linear solve U 571690
DICPBiCGStab:  Solving for p, Initial residual = 0.0500366, Final residual = 9.99557e-07, No Iterations 144
linear solve p 4197030
time step continuity errors : sum local = 4.04532e-10, global = -4.15164e-21, cumulative = 5.78851e-20
DICPBiCGStab:  Solving for p, Initial residual = 0.0405599, Final residual = 9.12471e-07, No Iterations 128
linear solve p 3680466
time step continuity errors : sum local = 7.33797e-10, global = -1.71121e-20, cumulative = 4.07729e-20
ExecutionTime = 95.29 s  ClockTime = 96 s

End

