/*---------------------------------------------------------------------------*\
  =========                 |
  \\      /  F ield         | OpenFOAM: The Open Source CFD Toolbox
   \\    /   O peration     | Website:  https://openfoam.org
    \\  /    A nd           | Version:  8
     \\/     M anipulation  |
\*---------------------------------------------------------------------------*/
Build  : 8-ef60d22ea792
Exec   : icoFoam
Date   : Sep 11 2021
Time   : 14:59:11
Host   : "uc2n442.localdomain"
PID    : 3725570
I/O    : uncollated
Case   : /pfs/data5/home/kit/scc/nq7776/data/code/OBR/lidDrivenCavity3D/Variation_init/100/Variation_mesh/45/Variation_matrix_solver/BiCGStab_NoPrecond_Serial/1631365148
nProcs : 1
sigFpe : Enabling floating point exception trapping (FOAM_SIGFPE).
fileModificationChecking : Monitoring run-time modified files using timeStampMaster (fileModificationSkew 10)
allowSystemOperations : Allowing user-supplied system call operations

// * * * * * * * * * * * * * * * * * * * * * * * * * * * * * * * * * * * * * //
Create time

Create mesh for time = 0

Reading transportProperties

Reading field p

Reading field U

Reading/calculating face flux field phi


Starting time loop

Time = 0.00222222

Courant Number mean: 0.190928 max: 0.914047
DILUPBiCGStab:  Solving for Ux, Initial residual = 0.0595792, Final residual = 4.86933e-06, No Iterations 5
DILUPBiCGStab:  Solving for Uy, Initial residual = 0.0975024, Final residual = 1.18416e-05, No Iterations 5
DILUPBiCGStab:  Solving for Uz, Initial residual = 0.125234, Final residual = 3.53848e-05, No Iterations 5
linear solve U 77590
nonePBiCGStab:  Solving for p, Initial residual = 0.429284, Final residual = 8.527e-07, No Iterations 305
linear solve p 595274
time step continuity errors : sum local = 2.33221e-09, global = 6.34806e-20, cumulative = 6.34806e-20
nonePBiCGStab:  Solving for p, Initial residual = 0.201177, Final residual = 8.00695e-07, No Iterations 308
linear solve p 603102
time step continuity errors : sum local = 2.02599e-09, global = -1.06286e-19, cumulative = -4.2805e-20
ExecutionTime = 1.75 s  ClockTime = 2 s

Time = 0.00444444

Courant Number mean: 0.190905 max: 0.929693
DILUPBiCGStab:  Solving for Ux, Initial residual = 0.00558503, Final residual = 5.75115e-06, No Iterations 5
DILUPBiCGStab:  Solving for Uy, Initial residual = 0.0107015, Final residual = 1.18853e-05, No Iterations 5
DILUPBiCGStab:  Solving for Uz, Initial residual = 0.0268438, Final residual = 2.97722e-05, No Iterations 5
linear solve U 69797
nonePBiCGStab:  Solving for p, Initial residual = 0.226323, Final residual = 5.77545e-07, No Iterations 305
linear solve p 601233
time step continuity errors : sum local = 1.77056e-09, global = -7.08685e-20, cumulative = -1.13673e-19
nonePBiCGStab:  Solving for p, Initial residual = 0.154089, Final residual = 7.26201e-07, No Iterations 318
linear solve p 623967
time step continuity errors : sum local = 2.10639e-09, global = -3.95568e-21, cumulative = -1.17629e-19
ExecutionTime = 3.08 s  ClockTime = 3 s

Time = 0.00666667

Courant Number mean: 0.190867 max: 0.930874
DILUPBiCGStab:  Solving for Ux, Initial residual = 0.00160171, Final residual = 1.984e-06, No Iterations 5
DILUPBiCGStab:  Solving for Uy, Initial residual = 0.00403869, Final residual = 4.80361e-06, No Iterations 5
DILUPBiCGStab:  Solving for Uz, Initial residual = 0.0116977, Final residual = 1.21048e-05, No Iterations 5
linear solve U 69843
nonePBiCGStab:  Solving for p, Initial residual = 0.10171, Final residual = 8.90305e-07, No Iterations 295
linear solve p 574313
time step continuity errors : sum local = 2.54768e-09, global = -1.68039e-19, cumulative = -2.85668e-19
nonePBiCGStab:  Solving for p, Initial residual = 0.0702054, Final residual = 8.61239e-07, No Iterations 294
linear solve p 578525
time step continuity errors : sum local = 2.0651e-09, global = 7.70747e-20, cumulative = -2.08594e-19
ExecutionTime = 4.35 s  ClockTime = 5 s

Time = 0.00888889

Courant Number mean: 0.190895 max: 0.931104
DILUPBiCGStab:  Solving for Ux, Initial residual = 0.000646525, Final residual = 9.7956e-07, No Iterations 5
DILUPBiCGStab:  Solving for Uy, Initial residual = 0.00164153, Final residual = 1.6397e-06, No Iterations 5
DILUPBiCGStab:  Solving for Uz, Initial residual = 0.00479959, Final residual = 5.05726e-06, No Iterations 5
linear solve U 68969
nonePBiCGStab:  Solving for p, Initial residual = 0.0529195, Final residual = 9.05725e-07, No Iterations 274
linear solve p 536630
time step continuity errors : sum local = 2.47476e-09, global = -1.32689e-21, cumulative = -2.09921e-19
nonePBiCGStab:  Solving for p, Initial residual = 0.0384155, Final residual = 9.73866e-07, No Iterations 262
linear solve p 514059
time step continuity errors : sum local = 2.32356e-09, global = 2.47665e-20, cumulative = -1.85154e-19
ExecutionTime = 5.51 s  ClockTime = 6 s

Time = 0.0111111

Courant Number mean: 0.190873 max: 0.931033
DILUPBiCGStab:  Solving for Ux, Initial residual = 0.000314526, Final residual = 3.39468e-07, No Iterations 5
DILUPBiCGStab:  Solving for Uy, Initial residual = 0.000836556, Final residual = 8.22262e-07, No Iterations 5
DILUPBiCGStab:  Solving for Uz, Initial residual = 0.0024043, Final residual = 2.26623e-06, No Iterations 5
linear solve U 69309
nonePBiCGStab:  Solving for p, Initial residual = 0.0293813, Final residual = 9.3118e-07, No Iterations 263
linear solve p 514897
time step continuity errors : sum local = 1.60772e-09, global = -3.47989e-20, cumulative = -2.19953e-19
nonePBiCGStab:  Solving for p, Initial residual = 0.0215359, Final residual = 8.906e-07, No Iterations 261
linear solve p 510730
time step continuity errors : sum local = 2.02578e-09, global = -7.21202e-20, cumulative = -2.92073e-19
ExecutionTime = 6.65 s  ClockTime = 7 s

Time = 0.0133333

Courant Number mean: 0.190876 max: 0.931058
DILUPBiCGStab:  Solving for Ux, Initial residual = 0.000178889, Final residual = 2.32193e-07, No Iterations 5
DILUPBiCGStab:  Solving for Uy, Initial residual = 0.00045417, Final residual = 4.2355e-07, No Iterations 5
DILUPBiCGStab:  Solving for Uz, Initial residual = 0.00132953, Final residual = 1.35863e-06, No Iterations 5
linear solve U 69152
nonePBiCGStab:  Solving for p, Initial residual = 0.0175638, Final residual = 9.14755e-07, No Iterations 241
linear solve p 471384
time step continuity errors : sum local = 2.41929e-09, global = -2.32755e-20, cumulative = -3.15349e-19
nonePBiCGStab:  Solving for p, Initial residual = 0.0130526, Final residual = 9.91357e-07, No Iterations 195
linear solve p 381749
time step continuity errors : sum local = 2.67645e-09, global = -8.65663e-21, cumulative = -3.24005e-19
ExecutionTime = 7.61 s  ClockTime = 8 s

Time = 0.0155556

Courant Number mean: 0.190871 max: 0.931023
DILUPBiCGStab:  Solving for Ux, Initial residual = 0.000107355, Final residual = 1.10481e-07, No Iterations 5
DILUPBiCGStab:  Solving for Uy, Initial residual = 0.000277206, Final residual = 2.82264e-07, No Iterations 5
DILUPBiCGStab:  Solving for Uz, Initial residual = 0.000844738, Final residual = 8.02711e-07, No Iterations 5
linear solve U 69089
nonePBiCGStab:  Solving for p, Initial residual = 0.0109116, Final residual = 9.7932e-07, No Iterations 218
linear solve p 430819
time step continuity errors : sum local = 2.33527e-09, global = -5.76441e-21, cumulative = -3.2977e-19
nonePBiCGStab:  Solving for p, Initial residual = 0.00816263, Final residual = 9.99132e-07, No Iterations 225
linear solve p 443632
time step continuity errors : sum local = 1.75821e-09, global = 5.92838e-21, cumulative = -3.23841e-19
ExecutionTime = 8.6 s  ClockTime = 9 s

Time = 0.0177778

Courant Number mean: 0.190873 max: 0.931034
DILUPBiCGStab:  Solving for Ux, Initial residual = 6.84914e-05, Final residual = 6.50716e-08, No Iterations 5
DILUPBiCGStab:  Solving for Uy, Initial residual = 0.000179779, Final residual = 1.3909e-07, No Iterations 5
DILUPBiCGStab:  Solving for Uz, Initial residual = 0.000615323, Final residual = 6.80916e-07, No Iterations 5
linear solve U 69340
nonePBiCGStab:  Solving for p, Initial residual = 0.00696394, Final residual = 9.24007e-07, No Iterations 251
linear solve p 490874
time step continuity errors : sum local = 1.29066e-09, global = 7.99349e-22, cumulative = -3.23042e-19
nonePBiCGStab:  Solving for p, Initial residual = 0.00524044, Final residual = 9.97505e-07, No Iterations 238
linear solve p 465137
time step continuity errors : sum local = 1.43109e-09, global = -3.88625e-20, cumulative = -3.61905e-19
ExecutionTime = 9.66 s  ClockTime = 10 s

Time = 0.02

Courant Number mean: 0.190873 max: 0.931017
DILUPBiCGStab:  Solving for Ux, Initial residual = 4.52861e-05, Final residual = 3.4571e-08, No Iterations 5
DILUPBiCGStab:  Solving for Uy, Initial residual = 0.000119804, Final residual = 9.238e-08, No Iterations 5
DILUPBiCGStab:  Solving for Uz, Initial residual = 0.000392813, Final residual = 2.88142e-07, No Iterations 5
linear solve U 69574
nonePBiCGStab:  Solving for p, Initial residual = 0.00451358, Final residual = 9.80636e-07, No Iterations 197
linear solve p 383782
time step continuity errors : sum local = 2.64705e-09, global = -5.08747e-20, cumulative = -4.12779e-19
nonePBiCGStab:  Solving for p, Initial residual = 0.00340551, Final residual = 9.94068e-07, No Iterations 90
linear solve p 176798
time step continuity errors : sum local = 1.4584e-09, global = -5.63322e-20, cumulative = -4.69111e-19
ExecutionTime = 10.33 s  ClockTime = 11 s

Time = 0.0222222

Courant Number mean: 0.190876 max: 0.931022
DILUPBiCGStab:  Solving for Ux, Initial residual = 3.09066e-05, Final residual = 2.10531e-08, No Iterations 5
DILUPBiCGStab:  Solving for Uy, Initial residual = 8.33311e-05, Final residual = 4.91105e-08, No Iterations 5
DILUPBiCGStab:  Solving for Uz, Initial residual = 0.000280721, Final residual = 2.87762e-07, No Iterations 5
linear solve U 72308
nonePBiCGStab:  Solving for p, Initial residual = 0.00296437, Final residual = 9.88226e-07, No Iterations 197
linear solve p 385452
time step continuity errors : sum local = 2.65879e-09, global = -2.19836e-20, cumulative = -4.91095e-19
nonePBiCGStab:  Solving for p, Initial residual = 0.00224042, Final residual = 9.93909e-07, No Iterations 92
linear solve p 181395
time step continuity errors : sum local = 1.59863e-09, global = 8.56331e-21, cumulative = -4.82532e-19
ExecutionTime = 11.02 s  ClockTime = 11 s

End

