/*---------------------------------------------------------------------------*\
  =========                 |
  \\      /  F ield         | OpenFOAM: The Open Source CFD Toolbox
   \\    /   O peration     | Website:  https://openfoam.org
    \\  /    A nd           | Version:  8
     \\/     M anipulation  |
\*---------------------------------------------------------------------------*/
Build  : 8-ef60d22ea792
Exec   : icoFoam
Date   : Sep 11 2021
Time   : 14:30:14
Host   : "uc2n513.localdomain"
PID    : 228181
I/O    : uncollated
Case   : /pfs/data5/home/kit/scc/nq7776/data/code/OBR/lidDrivenCavity3D/Variation_init/100/Variation_mesh/85/Variation_matrix_solver/BiCGStab_ILU_CUDA/1631363385
nProcs : 1
sigFpe : Enabling floating point exception trapping (FOAM_SIGFPE).
fileModificationChecking : Monitoring run-time modified files using timeStampMaster (fileModificationSkew 10)
allowSystemOperations : Allowing user-supplied system call operations

// * * * * * * * * * * * * * * * * * * * * * * * * * * * * * * * * * * * * * //
Create time

Create mesh for time = 0

Reading transportProperties

Reading field p

Reading field U

Reading/calculating face flux field phi


Starting time loop

Time = 0.00117647

Courant Number mean: 0.19128 max: 0.963498
DILUPBiCGStab:  Solving for Ux, Initial residual = 0.0801002, Final residual = 3.10838e-05, No Iterations 5
DILUPBiCGStab:  Solving for Uy, Initial residual = 0.15471, Final residual = 7.99938e-05, No Iterations 5
DILUPBiCGStab:  Solving for Uz, Initial residual = 0.204787, Final residual = 0.000190775, No Iterations 5
linear solve U 653399
[OGL LOG] init_host_sparsity_pattern : 173 ms
[OGL LOG] matrix not stored update host matrix
[OGL LOG] update_host_mtx : 90 ms
[OGL LOG] matrix is not yet sorted, compute sorting idxs
[OGL LOG] compute_sort : 5439 ms
[OGL LOG] matrix is not yet sorted, sorting host matrix
[OGL LOG] sort_host_mtx_sparsity_pattern : 116 ms
[OGL LOG] sort_host_mtx : 71 ms
[OGL LOG] init_preconditioner : 186 ms
[OGL LOG] solve : 1801 ms
ILUcudaGKOBiCGStab:  Solving for p, Initial residual = 0.639229, Final residual = 7.31804e-07, No Iterations 176
linear solve p 8665700
time step continuity errors : sum local = 6.33991e-07, global = 2.53619e-20, cumulative = 2.53619e-20
[OGL LOG] init_preconditioner : 0 ms
[OGL LOG] solve : 1781 ms
ILUcudaGKOBiCGStab:  Solving for p, Initial residual = 0.355115, Final residual = 6.85042e-07, No Iterations 168
linear solve p 1800933
time step continuity errors : sum local = 2.66808e-06, global = -5.68807e-22, cumulative = 2.47931e-20
ExecutionTime = 14.25 s  ClockTime = 14 s

Time = 0.00235294

Courant Number mean: 0.191424 max: 0.964029
DILUPBiCGStab:  Solving for Ux, Initial residual = 0.00592858, Final residual = 2.11089e-05, No Iterations 5
DILUPBiCGStab:  Solving for Uy, Initial residual = 0.0139367, Final residual = 6.03617e-05, No Iterations 5
DILUPBiCGStab:  Solving for Uz, Initial residual = 0.0319758, Final residual = 0.000428118, No Iterations 5
linear solve U 611551
[OGL LOG] init_preconditioner : 0 ms
[OGL LOG] solve : 1918 ms
ILUcudaGKOBiCGStab:  Solving for p, Initial residual = 0.433305, Final residual = 9.95765e-07, No Iterations 180
linear solve p 1938757
time step continuity errors : sum local = 1.22596e-07, global = -2.44346e-20, cumulative = 3.58487e-22
[OGL LOG] init_preconditioner : 0 ms
[OGL LOG] solve : 1954 ms
ILUcudaGKOBiCGStab:  Solving for p, Initial residual = 0.296975, Final residual = 9.47995e-07, No Iterations 185
linear solve p 1976385
time step continuity errors : sum local = 7.04378e-08, global = 1.08945e-20, cumulative = 1.1253e-20
ExecutionTime = 19.17 s  ClockTime = 19 s

Time = 0.00352941

Courant Number mean: 0.19141 max: 0.963522
DILUPBiCGStab:  Solving for Ux, Initial residual = 0.00217785, Final residual = 1.18089e-05, No Iterations 5
DILUPBiCGStab:  Solving for Uy, Initial residual = 0.00586517, Final residual = 3.06605e-05, No Iterations 5
DILUPBiCGStab:  Solving for Uz, Initial residual = 0.024064, Final residual = 0.000234886, No Iterations 5
linear solve U 591721
[OGL LOG] init_preconditioner : 0 ms
[OGL LOG] solve : 1803 ms
ILUcudaGKOBiCGStab:  Solving for p, Initial residual = 0.294937, Final residual = 6.18796e-07, No Iterations 171
linear solve p 1822378
time step continuity errors : sum local = 6.74079e-08, global = -2.39487e-20, cumulative = -1.26957e-20
[OGL LOG] init_preconditioner : 0 ms
[OGL LOG] solve : 1697 ms
ILUcudaGKOBiCGStab:  Solving for p, Initial residual = 0.208206, Final residual = 8.52561e-07, No Iterations 160
linear solve p 1718628
time step continuity errors : sum local = 1.34357e-06, global = 4.11458e-21, cumulative = -8.58113e-21
ExecutionTime = 23.68 s  ClockTime = 24 s

Time = 0.00470588

Courant Number mean: 0.191413 max: 0.963519
DILUPBiCGStab:  Solving for Ux, Initial residual = 0.00132725, Final residual = 4.86224e-06, No Iterations 5
DILUPBiCGStab:  Solving for Uy, Initial residual = 0.00354209, Final residual = 1.70203e-05, No Iterations 5
DILUPBiCGStab:  Solving for Uz, Initial residual = 0.0201007, Final residual = 0.000228947, No Iterations 5
linear solve U 591410
[OGL LOG] init_preconditioner : 0 ms
[OGL LOG] solve : 1806 ms
ILUcudaGKOBiCGStab:  Solving for p, Initial residual = 0.231061, Final residual = 4.50916e-07, No Iterations 171
linear solve p 1828354
time step continuity errors : sum local = 7.06903e-08, global = 1.25641e-20, cumulative = 3.98292e-21
[OGL LOG] init_preconditioner : 0 ms
[OGL LOG] solve : 1733 ms
ILUcudaGKOBiCGStab:  Solving for p, Initial residual = 0.171911, Final residual = 2.28314e-07, No Iterations 163
linear solve p 1752652
time step continuity errors : sum local = 7.37924e-06, global = -1.45556e-20, cumulative = -1.05727e-20
ExecutionTime = 28.25 s  ClockTime = 28 s

Time = 0.00588235

Courant Number mean: 0.191429 max: 0.963459
DILUPBiCGStab:  Solving for Ux, Initial residual = 0.000874374, Final residual = 3.88418e-06, No Iterations 5
DILUPBiCGStab:  Solving for Uy, Initial residual = 0.00229494, Final residual = 1.09383e-05, No Iterations 5
DILUPBiCGStab:  Solving for Uz, Initial residual = 0.0356404, Final residual = 0.000688903, No Iterations 5
linear solve U 593954
[OGL LOG] init_preconditioner : 0 ms
[OGL LOG] solve : 1752 ms
ILUcudaGKOBiCGStab:  Solving for p, Initial residual = 0.247019, Final residual = 9.83722e-07, No Iterations 165
linear solve p 1771739
time step continuity errors : sum local = 2.05595e-06, global = -8.38367e-21, cumulative = -1.89564e-20
[OGL LOG] init_preconditioner : 0 ms
[OGL LOG] solve : 1704 ms
ILUcudaGKOBiCGStab:  Solving for p, Initial residual = 0.190854, Final residual = 4.15938e-07, No Iterations 161
linear solve p 1725635
time step continuity errors : sum local = 1.07909e-05, global = 2.20594e-20, cumulative = 3.10305e-21
ExecutionTime = 32.72 s  ClockTime = 33 s

Time = 0.00705882

Courant Number mean: 0.191446 max: 0.963477
DILUPBiCGStab:  Solving for Ux, Initial residual = 0.000635608, Final residual = 3.44038e-06, No Iterations 5
DILUPBiCGStab:  Solving for Uy, Initial residual = 0.00169063, Final residual = 1.21018e-05, No Iterations 5
DILUPBiCGStab:  Solving for Uz, Initial residual = 0.0685604, Final residual = 0.00132919, No Iterations 5
linear solve U 600341
[OGL LOG] init_preconditioner : 0 ms
[OGL LOG] solve : 1760 ms
ILUcudaGKOBiCGStab:  Solving for p, Initial residual = 0.312593, Final residual = 8.66405e-07, No Iterations 165
linear solve p 1779321
time step continuity errors : sum local = 2.70948e-06, global = 1.11075e-20, cumulative = 1.42105e-20
[OGL LOG] init_preconditioner : 0 ms
[OGL LOG] solve : 1691 ms
ILUcudaGKOBiCGStab:  Solving for p, Initial residual = 0.252902, Final residual = 1.71947e-07, No Iterations 159
linear solve p 1711596
time step continuity errors : sum local = 6.3059e-06, global = 4.45603e-21, cumulative = 1.86665e-20
ExecutionTime = 37.17 s  ClockTime = 37 s

Time = 0.00823529

Courant Number mean: 0.191461 max: 0.963513
DILUPBiCGStab:  Solving for Ux, Initial residual = 0.000529162, Final residual = 3.96587e-06, No Iterations 5
DILUPBiCGStab:  Solving for Uy, Initial residual = 0.00146395, Final residual = 1.28764e-05, No Iterations 5
DILUPBiCGStab:  Solving for Uz, Initial residual = 0.0945489, Final residual = 0.00142288, No Iterations 5
linear solve U 595105
[OGL LOG] init_preconditioner : 0 ms
[OGL LOG] solve : 1792 ms
ILUcudaGKOBiCGStab:  Solving for p, Initial residual = 0.318367, Final residual = 1.46174e-07, No Iterations 169
linear solve p 1812182
time step continuity errors : sum local = 1.52767e-05, global = 1.9583e-20, cumulative = 3.82496e-20
[OGL LOG] init_preconditioner : 0 ms
[OGL LOG] solve : 1725 ms
ILUcudaGKOBiCGStab:  Solving for p, Initial residual = 0.251158, Final residual = 8.07107e-07, No Iterations 163
linear solve p 1744542
time step continuity errors : sum local = 1.02818e-05, global = 5.16611e-20, cumulative = 8.99107e-20
ExecutionTime = 41.69 s  ClockTime = 42 s

Time = 0.00941176

Courant Number mean: 0.191474 max: 0.963508
DILUPBiCGStab:  Solving for Ux, Initial residual = 0.000446285, Final residual = 3.76744e-06, No Iterations 5
DILUPBiCGStab:  Solving for Uy, Initial residual = 0.00129535, Final residual = 1.22826e-05, No Iterations 5
DILUPBiCGStab:  Solving for Uz, Initial residual = 0.13679, Final residual = 0.00246443, No Iterations 5
linear solve U 589862
[OGL LOG] init_preconditioner : 0 ms
[OGL LOG] solve : 1743 ms
ILUcudaGKOBiCGStab:  Solving for p, Initial residual = 0.420349, Final residual = 9.23089e-07, No Iterations 165
linear solve p 1763544
time step continuity errors : sum local = 3.71585e-06, global = -1.68768e-20, cumulative = 7.30339e-20
[OGL LOG] init_preconditioner : 0 ms
[OGL LOG] solve : 1720 ms
ILUcudaGKOBiCGStab:  Solving for p, Initial residual = 0.355784, Final residual = 8.59156e-07, No Iterations 162
linear solve p 1739892
time step continuity errors : sum local = 2.84301e-06, global = -1.81427e-20, cumulative = 5.48913e-20
ExecutionTime = 46.17 s  ClockTime = 46 s

Time = 0.0105882

Courant Number mean: 0.191496 max: 0.964761
DILUPBiCGStab:  Solving for Ux, Initial residual = 0.000512745, Final residual = 5.30266e-06, No Iterations 5
DILUPBiCGStab:  Solving for Uy, Initial residual = 0.00158522, Final residual = 1.74704e-05, No Iterations 5
DILUPBiCGStab:  Solving for Uz, Initial residual = 0.157807, Final residual = 0.00186375, No Iterations 5
linear solve U 595152
[OGL LOG] init_preconditioner : 0 ms
[OGL LOG] solve : 1677 ms
ILUcudaGKOBiCGStab:  Solving for p, Initial residual = 0.399758, Final residual = 8.90879e-07, No Iterations 158
linear solve p 1699104
time step continuity errors : sum local = 3.66346e-06, global = -7.84905e-21, cumulative = 4.70422e-20
[OGL LOG] init_preconditioner : 0 ms
[OGL LOG] solve : 1682 ms
ILUcudaGKOBiCGStab:  Solving for p, Initial residual = 0.339502, Final residual = 8.3281e-07, No Iterations 159
linear solve p 1701997
time step continuity errors : sum local = 5.57326e-06, global = -2.56433e-20, cumulative = 2.1399e-20
ExecutionTime = 50.54 s  ClockTime = 51 s

Time = 0.0117647

Courant Number mean: 0.191497 max: 0.963594
DILUPBiCGStab:  Solving for Ux, Initial residual = 0.000439071, Final residual = 4.34227e-06, No Iterations 5
DILUPBiCGStab:  Solving for Uy, Initial residual = 0.00137343, Final residual = 1.39338e-05, No Iterations 5
DILUPBiCGStab:  Solving for Uz, Initial residual = 0.154567, Final residual = 0.00169921, No Iterations 5
linear solve U 597203
[OGL LOG] init_preconditioner : 0 ms
[OGL LOG] solve : 1683 ms
ILUcudaGKOBiCGStab:  Solving for p, Initial residual = 0.399559, Final residual = 8.71166e-07, No Iterations 159
linear solve p 1703944
time step continuity errors : sum local = 6.14078e-06, global = -8.48495e-21, cumulative = 1.2914e-20
[OGL LOG] init_preconditioner : 0 ms
[OGL LOG] solve : 1597 ms
ILUcudaGKOBiCGStab:  Solving for p, Initial residual = 0.33322, Final residual = 5.92469e-07, No Iterations 151
linear solve p 1617208
time step continuity errors : sum local = 6.93766e-08, global = -3.39219e-21, cumulative = 9.52182e-21
ExecutionTime = 54.83 s  ClockTime = 55 s

End

