/*---------------------------------------------------------------------------*\
  =========                 |
  \\      /  F ield         | OpenFOAM: The Open Source CFD Toolbox
   \\    /   O peration     | Website:  https://openfoam.org
    \\  /    A nd           | Version:  8
     \\/     M anipulation  |
\*---------------------------------------------------------------------------*/
Build  : 8-ef60d22ea792
Exec   : icoFoam
Date   : Sep 11 2021
Time   : 14:59:01
Host   : "uc2n442.localdomain"
PID    : 3725500
I/O    : uncollated
Case   : /pfs/data5/home/kit/scc/nq7776/data/code/OBR/lidDrivenCavity3D/Variation_init/100/Variation_mesh/45/Variation_matrix_solver/BiCGStab_DIC_Serial/1631365139
nProcs : 1
sigFpe : Enabling floating point exception trapping (FOAM_SIGFPE).
fileModificationChecking : Monitoring run-time modified files using timeStampMaster (fileModificationSkew 10)
allowSystemOperations : Allowing user-supplied system call operations

// * * * * * * * * * * * * * * * * * * * * * * * * * * * * * * * * * * * * * //
Create time

Create mesh for time = 0

Reading transportProperties

Reading field p

Reading field U

Reading/calculating face flux field phi


Starting time loop

Time = 0.00222222

Courant Number mean: 0.190928 max: 0.914047
DILUPBiCGStab:  Solving for Ux, Initial residual = 0.0595792, Final residual = 4.86933e-06, No Iterations 5
DILUPBiCGStab:  Solving for Uy, Initial residual = 0.0975024, Final residual = 1.18416e-05, No Iterations 5
DILUPBiCGStab:  Solving for Uz, Initial residual = 0.125234, Final residual = 3.53848e-05, No Iterations 5
linear solve U 76330
DICPBiCGStab:  Solving for p, Initial residual = 0.429284, Final residual = 5.40208e-07, No Iterations 87
linear solve p 298899
time step continuity errors : sum local = 1.27449e-09, global = -7.85634e-20, cumulative = -7.85634e-20
DICPBiCGStab:  Solving for p, Initial residual = 0.201177, Final residual = 7.94167e-07, No Iterations 85
linear solve p 293601
time step continuity errors : sum local = 1.73739e-09, global = -2.98693e-20, cumulative = -1.08433e-19
ExecutionTime = 1.14 s  ClockTime = 1 s

Time = 0.00444444

Courant Number mean: 0.190905 max: 0.929693
DILUPBiCGStab:  Solving for Ux, Initial residual = 0.00558483, Final residual = 5.75121e-06, No Iterations 5
DILUPBiCGStab:  Solving for Uy, Initial residual = 0.0107013, Final residual = 1.1891e-05, No Iterations 5
DILUPBiCGStab:  Solving for Uz, Initial residual = 0.0268286, Final residual = 2.93541e-05, No Iterations 5
linear solve U 68527
DICPBiCGStab:  Solving for p, Initial residual = 0.226317, Final residual = 5.75533e-07, No Iterations 99
linear solve p 342465
time step continuity errors : sum local = 1.76438e-09, global = -3.39169e-20, cumulative = -1.4235e-19
DICPBiCGStab:  Solving for p, Initial residual = 0.154087, Final residual = 5.38469e-07, No Iterations 97
linear solve p 334803
time step continuity errors : sum local = 9.8371e-10, global = 1.11131e-20, cumulative = -1.31237e-19
ExecutionTime = 1.93 s  ClockTime = 2 s

Time = 0.00666667

Courant Number mean: 0.190867 max: 0.930874
DILUPBiCGStab:  Solving for Ux, Initial residual = 0.00160073, Final residual = 1.96326e-06, No Iterations 5
DILUPBiCGStab:  Solving for Uy, Initial residual = 0.00403752, Final residual = 4.81663e-06, No Iterations 5
DILUPBiCGStab:  Solving for Uz, Initial residual = 0.0116469, Final residual = 1.17033e-05, No Iterations 5
linear solve U 68425
DICPBiCGStab:  Solving for p, Initial residual = 0.101689, Final residual = 6.9799e-07, No Iterations 99
linear solve p 340970
time step continuity errors : sum local = 1.08217e-09, global = 4.65796e-20, cumulative = -8.4657e-20
DICPBiCGStab:  Solving for p, Initial residual = 0.0701883, Final residual = 4.40312e-07, No Iterations 93
linear solve p 319981
time step continuity errors : sum local = 1.25988e-09, global = 1.96562e-20, cumulative = -6.50007e-20
ExecutionTime = 2.7 s  ClockTime = 3 s

Time = 0.00888889

Courant Number mean: 0.190895 max: 0.931103
DILUPBiCGStab:  Solving for Ux, Initial residual = 0.000646201, Final residual = 9.84627e-07, No Iterations 5
DILUPBiCGStab:  Solving for Uy, Initial residual = 0.00163821, Final residual = 1.63704e-06, No Iterations 5
DILUPBiCGStab:  Solving for Uz, Initial residual = 0.00470204, Final residual = 4.54005e-06, No Iterations 5
linear solve U 67432
DICPBiCGStab:  Solving for p, Initial residual = 0.0528854, Final residual = 9.31241e-07, No Iterations 88
linear solve p 302204
time step continuity errors : sum local = 1.31203e-09, global = -8.04005e-21, cumulative = -7.30408e-20
DICPBiCGStab:  Solving for p, Initial residual = 0.0383851, Final residual = 3.83367e-07, No Iterations 89
linear solve p 306072
time step continuity errors : sum local = 7.61256e-10, global = -5.45711e-20, cumulative = -1.27612e-19
ExecutionTime = 3.42 s  ClockTime = 4 s

Time = 0.0111111

Courant Number mean: 0.190873 max: 0.931033
DILUPBiCGStab:  Solving for Ux, Initial residual = 0.000313505, Final residual = 3.35877e-07, No Iterations 5
DILUPBiCGStab:  Solving for Uy, Initial residual = 0.000834763, Final residual = 8.17043e-07, No Iterations 5
DILUPBiCGStab:  Solving for Uz, Initial residual = 0.00233749, Final residual = 2.25574e-06, No Iterations 5
linear solve U 68182
DICPBiCGStab:  Solving for p, Initial residual = 0.0293629, Final residual = 6.81601e-07, No Iterations 84
linear solve p 287550
time step continuity errors : sum local = 1.00434e-09, global = 8.55521e-20, cumulative = -4.20598e-20
DICPBiCGStab:  Solving for p, Initial residual = 0.0215198, Final residual = 7.42068e-07, No Iterations 83
linear solve p 284726
time step continuity errors : sum local = 1.08003e-09, global = -1.01331e-19, cumulative = -1.4339e-19
ExecutionTime = 4.1 s  ClockTime = 4 s

Time = 0.0133333

Courant Number mean: 0.190876 max: 0.931058
DILUPBiCGStab:  Solving for Ux, Initial residual = 0.000178958, Final residual = 2.32247e-07, No Iterations 5
DILUPBiCGStab:  Solving for Uy, Initial residual = 0.000452302, Final residual = 4.26756e-07, No Iterations 5
DILUPBiCGStab:  Solving for Uz, Initial residual = 0.00129079, Final residual = 1.16443e-06, No Iterations 5
linear solve U 68160
DICPBiCGStab:  Solving for p, Initial residual = 0.0175484, Final residual = 8.33121e-07, No Iterations 37
linear solve p 127416
time step continuity errors : sum local = 2.04667e-09, global = -3.04417e-20, cumulative = -1.73832e-19
DICPBiCGStab:  Solving for p, Initial residual = 0.0130389, Final residual = 8.41962e-07, No Iterations 39
linear solve p 133895
time step continuity errors : sum local = 1.56027e-09, global = 1.0059e-20, cumulative = -1.63773e-19
ExecutionTime = 4.47 s  ClockTime = 5 s

Time = 0.0155556

Courant Number mean: 0.190871 max: 0.931023
DILUPBiCGStab:  Solving for Ux, Initial residual = 0.000105783, Final residual = 1.106e-07, No Iterations 5
DILUPBiCGStab:  Solving for Uy, Initial residual = 0.000276559, Final residual = 2.79391e-07, No Iterations 5
DILUPBiCGStab:  Solving for Uz, Initial residual = 0.000772891, Final residual = 5.49974e-07, No Iterations 5
linear solve U 67933
DICPBiCGStab:  Solving for p, Initial residual = 0.0108846, Final residual = 9.52775e-07, No Iterations 35
linear solve p 120725
time step continuity errors : sum local = 1.83932e-09, global = 1.06039e-20, cumulative = -1.53169e-19
DICPBiCGStab:  Solving for p, Initial residual = 0.00813677, Final residual = 6.45586e-07, No Iterations 37
linear solve p 128099
time step continuity errors : sum local = 8.8419e-10, global = -7.03926e-20, cumulative = -2.23562e-19
ExecutionTime = 4.83 s  ClockTime = 5 s

Time = 0.0177778

Courant Number mean: 0.190873 max: 0.931034
DILUPBiCGStab:  Solving for Ux, Initial residual = 6.81541e-05, Final residual = 6.20622e-08, No Iterations 5
DILUPBiCGStab:  Solving for Uy, Initial residual = 0.000175698, Final residual = 1.37811e-07, No Iterations 5
DILUPBiCGStab:  Solving for Uz, Initial residual = 0.000502883, Final residual = 4.71742e-07, No Iterations 5
linear solve U 67667
DICPBiCGStab:  Solving for p, Initial residual = 0.00693908, Final residual = 9.43649e-07, No Iterations 34
linear solve p 118928
time step continuity errors : sum local = 2.35144e-09, global = -2.12827e-20, cumulative = -2.44844e-19
DICPBiCGStab:  Solving for p, Initial residual = 0.00521703, Final residual = 8.54823e-07, No Iterations 35
linear solve p 121242
time step continuity errors : sum local = 1.61438e-09, global = 9.17363e-22, cumulative = -2.43927e-19
ExecutionTime = 5.18 s  ClockTime = 6 s

Time = 0.02

Courant Number mean: 0.190873 max: 0.931017
DILUPBiCGStab:  Solving for Ux, Initial residual = 4.48793e-05, Final residual = 3.38181e-08, No Iterations 5
DILUPBiCGStab:  Solving for Uy, Initial residual = 0.000118958, Final residual = 8.83149e-08, No Iterations 5
DILUPBiCGStab:  Solving for Uz, Initial residual = 0.000344692, Final residual = 2.66456e-07, No Iterations 5
linear solve U 68302
DICPBiCGStab:  Solving for p, Initial residual = 0.00450465, Final residual = 7.492e-07, No Iterations 49
linear solve p 169964
time step continuity errors : sum local = 1.71577e-09, global = 1.06363e-20, cumulative = -2.33291e-19
DICPBiCGStab:  Solving for p, Initial residual = 0.00339729, Final residual = 9.3185e-07, No Iterations 32
linear solve p 112220
time step continuity errors : sum local = 1.2748e-09, global = 3.01072e-20, cumulative = -2.03184e-19
ExecutionTime = 5.58 s  ClockTime = 6 s

Time = 0.0222222

Courant Number mean: 0.190876 max: 0.931023
DILUPBiCGStab:  Solving for Ux, Initial residual = 3.08135e-05, Final residual = 2.00021e-08, No Iterations 5
DILUPBiCGStab:  Solving for Uy, Initial residual = 8.16572e-05, Final residual = 4.47513e-08, No Iterations 5
DILUPBiCGStab:  Solving for Uz, Initial residual = 0.000259044, Final residual = 2.46524e-07, No Iterations 5
linear solve U 68186
DICPBiCGStab:  Solving for p, Initial residual = 0.00295385, Final residual = 9.51549e-07, No Iterations 72
linear solve p 248203
time step continuity errors : sum local = 1.29001e-09, global = -3.43873e-20, cumulative = -2.37571e-19
DICPBiCGStab:  Solving for p, Initial residual = 0.00223156, Final residual = 9.79478e-07, No Iterations 41
linear solve p 143384
time step continuity errors : sum local = 2.4076e-09, global = 2.11332e-21, cumulative = -2.35458e-19
ExecutionTime = 6.08 s  ClockTime = 6 s

End

