/*---------------------------------------------------------------------------*\
  =========                 |
  \\      /  F ield         | OpenFOAM: The Open Source CFD Toolbox
   \\    /   O peration     | Website:  https://openfoam.org
    \\  /    A nd           | Version:  8
     \\/     M anipulation  |
\*---------------------------------------------------------------------------*/
Build  : 8-ef60d22ea792
Exec   : icoFoam
Date   : Sep 11 2021
Time   : 14:31:35
Host   : "uc2n513.localdomain"
PID    : 228340
I/O    : uncollated
Case   : /pfs/data5/home/kit/scc/nq7776/data/code/OBR/lidDrivenCavity3D/Variation_init/100/Variation_mesh/85/Variation_matrix_solver/BiCGStab_NoPrecond_CUDA/1631363469
nProcs : 1
sigFpe : Enabling floating point exception trapping (FOAM_SIGFPE).
fileModificationChecking : Monitoring run-time modified files using timeStampMaster (fileModificationSkew 10)
allowSystemOperations : Allowing user-supplied system call operations

// * * * * * * * * * * * * * * * * * * * * * * * * * * * * * * * * * * * * * //
Create time

Create mesh for time = 0

Reading transportProperties

Reading field p

Reading field U

Reading/calculating face flux field phi


Starting time loop

Time = 0.00117647

Courant Number mean: 0.19128 max: 0.963498
DILUPBiCGStab:  Solving for Ux, Initial residual = 0.0801002, Final residual = 3.10838e-05, No Iterations 5
DILUPBiCGStab:  Solving for Uy, Initial residual = 0.15471, Final residual = 7.99938e-05, No Iterations 5
DILUPBiCGStab:  Solving for Uz, Initial residual = 0.204787, Final residual = 0.000190775, No Iterations 5
linear solve U 643359
[OGL LOG] init_host_sparsity_pattern : 173 ms
[OGL LOG] matrix not stored update host matrix
[OGL LOG] update_host_mtx : 107 ms
[OGL LOG] matrix is not yet sorted, compute sorting idxs
[OGL LOG] compute_sort : 5443 ms
[OGL LOG] matrix is not yet sorted, sorting host matrix
[OGL LOG] sort_host_mtx_sparsity_pattern : 116 ms
[OGL LOG] sort_host_mtx : 71 ms
[OGL LOG] init_preconditioner : 0 ms
[OGL LOG] solve : 864 ms
nonecudaGKOBiCGStab:  Solving for p, Initial residual = 0.639229, Final residual = 9.86424e-07, No Iterations 554
linear solve p 7559538
time step continuity errors : sum local = 1.3144e-09, global = 6.27458e-20, cumulative = 6.27458e-20
[OGL LOG] init_preconditioner : 0 ms
[OGL LOG] solve : 871 ms
nonecudaGKOBiCGStab:  Solving for p, Initial residual = 0.354969, Final residual = 4.73552e-07, No Iterations 556
linear solve p 891087
time step continuity errors : sum local = 2.09839e-06, global = 3.44262e-21, cumulative = 6.61885e-20
ExecutionTime = 12.22 s  ClockTime = 12 s

Time = 0.00235294

Courant Number mean: 0.191424 max: 0.964029
DILUPBiCGStab:  Solving for Ux, Initial residual = 0.00592865, Final residual = 2.11002e-05, No Iterations 5
DILUPBiCGStab:  Solving for Uy, Initial residual = 0.0139367, Final residual = 6.03944e-05, No Iterations 5
DILUPBiCGStab:  Solving for Uz, Initial residual = 0.0291421, Final residual = 0.000330206, No Iterations 5
linear solve U 593770
[OGL LOG] init_preconditioner : 0 ms
[OGL LOG] solve : 922 ms
nonecudaGKOBiCGStab:  Solving for p, Initial residual = 0.429328, Final residual = 6.40244e-07, No Iterations 590
linear solve p 941035
time step continuity errors : sum local = 7.17494e-06, global = 3.07258e-20, cumulative = 9.69143e-20
[OGL LOG] init_preconditioner : 0 ms
[OGL LOG] solve : 1237 ms
nonecudaGKOBiCGStab:  Solving for p, Initial residual = 0.303303, Final residual = 5.41657e-07, No Iterations 584
linear solve p 1257471
time step continuity errors : sum local = 5.52906e-05, global = 1.00673e-19, cumulative = 1.97587e-19
ExecutionTime = 15.37 s  ClockTime = 16 s

Time = 0.00352941

Courant Number mean: 0.191414 max: 0.963517
DILUPBiCGStab:  Solving for Ux, Initial residual = 0.0021798, Final residual = 1.1856e-05, No Iterations 5
DILUPBiCGStab:  Solving for Uy, Initial residual = 0.00593793, Final residual = 3.28712e-05, No Iterations 5
DILUPBiCGStab:  Solving for Uz, Initial residual = 0.126848, Final residual = 0.00333538, No Iterations 5
linear solve U 589067
[OGL LOG] init_preconditioner : 0 ms
[OGL LOG] solve : 1219 ms
nonecudaGKOBiCGStab:  Solving for p, Initial residual = 0.570215, Final residual = 8.99059e-07, No Iterations 518
linear solve p 1240474
time step continuity errors : sum local = 1.79195e-05, global = 6.36715e-21, cumulative = 2.03955e-19
[OGL LOG] init_preconditioner : 0 ms
[OGL LOG] solve : 1246 ms
nonecudaGKOBiCGStab:  Solving for p, Initial residual = 0.440468, Final residual = 7.11714e-07, No Iterations 532
linear solve p 1265033
time step continuity errors : sum local = 5.03923e-06, global = 6.35701e-21, cumulative = 2.10312e-19
ExecutionTime = 18.84 s  ClockTime = 19 s

Time = 0.00470588

Courant Number mean: 0.191443 max: 0.96555
DILUPBiCGStab:  Solving for Ux, Initial residual = 0.00157538, Final residual = 1.1982e-05, No Iterations 5
DILUPBiCGStab:  Solving for Uy, Initial residual = 0.00451326, Final residual = 3.94118e-05, No Iterations 5
DILUPBiCGStab:  Solving for Uz, Initial residual = 0.210579, Final residual = 0.00343993, No Iterations 5
linear solve U 591055
[OGL LOG] init_preconditioner : 0 ms
[OGL LOG] solve : 1242 ms
nonecudaGKOBiCGStab:  Solving for p, Initial residual = 0.549753, Final residual = 3.2728e-07, No Iterations 542
linear solve p 1261742
time step continuity errors : sum local = 1.44602e-05, global = 7.21803e-20, cumulative = 2.82492e-19
[OGL LOG] init_preconditioner : 0 ms
[OGL LOG] solve : 1200 ms
nonecudaGKOBiCGStab:  Solving for p, Initial residual = 0.450455, Final residual = 2.00756e-07, No Iterations 524
linear solve p 1222289
time step continuity errors : sum local = 1.4051e-05, global = -1.12842e-20, cumulative = 2.71208e-19
ExecutionTime = 22.27 s  ClockTime = 22 s

Time = 0.00588235

Courant Number mean: 0.191455 max: 0.965864
DILUPBiCGStab:  Solving for Ux, Initial residual = 0.00117894, Final residual = 1.01795e-05, No Iterations 5
DILUPBiCGStab:  Solving for Uy, Initial residual = 0.00344612, Final residual = 3.25801e-05, No Iterations 5
DILUPBiCGStab:  Solving for Uz, Initial residual = 0.241671, Final residual = 0.00357057, No Iterations 5
linear solve U 587410
[OGL LOG] init_preconditioner : 0 ms
[OGL LOG] solve : 1390 ms
nonecudaGKOBiCGStab:  Solving for p, Initial residual = 0.563524, Final residual = 7.72851e-07, No Iterations 597
linear solve p 1410000
time step continuity errors : sum local = 4.9288e-06, global = 2.33845e-20, cumulative = 2.94592e-19
[OGL LOG] init_preconditioner : 0 ms
[OGL LOG] solve : 1208 ms
nonecudaGKOBiCGStab:  Solving for p, Initial residual = 0.47921, Final residual = 7.22566e-07, No Iterations 522
linear solve p 1228560
time step continuity errors : sum local = 1.25666e-05, global = -1.61387e-20, cumulative = 2.78453e-19
ExecutionTime = 25.86 s  ClockTime = 26 s

Time = 0.00705882

Courant Number mean: 0.191474 max: 0.965958
DILUPBiCGStab:  Solving for Ux, Initial residual = 0.00102483, Final residual = 9.8761e-06, No Iterations 5
DILUPBiCGStab:  Solving for Uy, Initial residual = 0.00310203, Final residual = 3.19606e-05, No Iterations 5
DILUPBiCGStab:  Solving for Uz, Initial residual = 0.256862, Final residual = 0.00311675, No Iterations 5
linear solve U 584139
[OGL LOG] init_preconditioner : 0 ms
[OGL LOG] solve : 1198 ms
nonecudaGKOBiCGStab:  Solving for p, Initial residual = 0.564947, Final residual = 8.43443e-07, No Iterations 517
linear solve p 1217753
time step continuity errors : sum local = 0.000473674, global = 3.70525e-19, cumulative = 6.48979e-19
[OGL LOG] init_preconditioner : 0 ms
[OGL LOG] solve : 1425 ms
nonecudaGKOBiCGStab:  Solving for p, Initial residual = 0.55997, Final residual = 9.8095e-07, No Iterations 617
linear solve p 1444131
time step continuity errors : sum local = 6.37224e-07, global = -1.98526e-20, cumulative = 6.29126e-19
ExecutionTime = 29.47 s  ClockTime = 30 s

Time = 0.00823529

Courant Number mean: 0.191488 max: 0.966797
DILUPBiCGStab:  Solving for Ux, Initial residual = 0.000774507, Final residual = 7.83186e-06, No Iterations 5
DILUPBiCGStab:  Solving for Uy, Initial residual = 0.00304279, Final residual = 6.75807e-05, No Iterations 5
DILUPBiCGStab:  Solving for Uz, Initial residual = 0.573443, Final residual = 0.0140293, No Iterations 5
linear solve U 589644
[OGL LOG] init_preconditioner : 0 ms
[OGL LOG] solve : 1390 ms
nonecudaGKOBiCGStab:  Solving for p, Initial residual = 0.888996, Final residual = 8.89648e-07, No Iterations 595
linear solve p 1409956
time step continuity errors : sum local = 0.000373429, global = 3.55432e-19, cumulative = 9.84558e-19
[OGL LOG] init_preconditioner : 0 ms
[OGL LOG] solve : 1257 ms
nonecudaGKOBiCGStab:  Solving for p, Initial residual = 0.768014, Final residual = 9.14904e-07, No Iterations 558
linear solve p 1276160
time step continuity errors : sum local = 7.83104e-06, global = 7.95745e-21, cumulative = 9.92516e-19
ExecutionTime = 33.11 s  ClockTime = 33 s

Time = 0.00941176

Courant Number mean: 0.19236 max: 0.996867
DILUPBiCGStab:  Solving for Ux, Initial residual = 0.00458752, Final residual = 5.19606e-05, No Iterations 5
DILUPBiCGStab:  Solving for Uy, Initial residual = 0.0157794, Final residual = 0.000217382, No Iterations 5
DILUPBiCGStab:  Solving for Uz, Initial residual = 0.682404, Final residual = 0.0120537, No Iterations 5
linear solve U 588236
[OGL LOG] init_preconditioner : 0 ms
[OGL LOG] solve : 1185 ms
nonecudaGKOBiCGStab:  Solving for p, Initial residual = 0.909754, Final residual = 3.67091e-07, No Iterations 514
linear solve p 1204617
time step continuity errors : sum local = 6.31346e-05, global = 4.81623e-20, cumulative = 1.04068e-18
[OGL LOG] init_preconditioner : 0 ms
[OGL LOG] solve : 1246 ms
nonecudaGKOBiCGStab:  Solving for p, Initial residual = 0.803968, Final residual = 9.62044e-07, No Iterations 543
linear solve p 1266584
time step continuity errors : sum local = 0.000458761, global = 3.35167e-19, cumulative = 1.37584e-18
ExecutionTime = 36.52 s  ClockTime = 37 s

Time = 0.0105882

Courant Number mean: 0.192509 max: 1.0037
DILUPBiCGStab:  Solving for Ux, Initial residual = 0.00625641, Final residual = 7.87022e-05, No Iterations 5
DILUPBiCGStab:  Solving for Uy, Initial residual = 0.0206685, Final residual = 0.000244547, No Iterations 5
DILUPBiCGStab:  Solving for Uz, Initial residual = 0.479868, Final residual = 0.00460754, No Iterations 5
linear solve U 584323
[OGL LOG] init_preconditioner : 0 ms
[OGL LOG] solve : 1243 ms
nonecudaGKOBiCGStab:  Solving for p, Initial residual = 0.839732, Final residual = 6.05003e-07, No Iterations 544
linear solve p 1263094
time step continuity errors : sum local = 0.000298014, global = 4.65161e-19, cumulative = 1.84101e-18
[OGL LOG] init_preconditioner : 0 ms
[OGL LOG] solve : 1386 ms
nonecudaGKOBiCGStab:  Solving for p, Initial residual = 0.756512, Final residual = 8.67617e-07, No Iterations 605
linear solve p 1405277
time step continuity errors : sum local = 6.4528e-06, global = -3.11417e-20, cumulative = 1.80986e-18
ExecutionTime = 40.14 s  ClockTime = 40 s

Time = 0.0117647

Courant Number mean: 0.191939 max: 0.970679
DILUPBiCGStab:  Solving for Ux, Initial residual = 0.00291402, Final residual = 3.33731e-05, No Iterations 5
DILUPBiCGStab:  Solving for Uy, Initial residual = 0.0101661, Final residual = 0.000137428, No Iterations 5
DILUPBiCGStab:  Solving for Uz, Initial residual = 0.576206, Final residual = 0.00945076, No Iterations 5
linear solve U 590052
[OGL LOG] init_preconditioner : 0 ms
[OGL LOG] solve : 1263 ms
nonecudaGKOBiCGStab:  Solving for p, Initial residual = 0.816816, Final residual = 9.2238e-07, No Iterations 550
linear solve p 1283571
time step continuity errors : sum local = 1.00838e-07, global = 5.29987e-21, cumulative = 1.81516e-18
[OGL LOG] init_preconditioner : 0 ms
[OGL LOG] solve : 1192 ms
nonecudaGKOBiCGStab:  Solving for p, Initial residual = 0.759245, Final residual = 3.64929e-07, No Iterations 514
linear solve p 1211616
time step continuity errors : sum local = 6.28454e-05, global = 9.74902e-20, cumulative = 1.91265e-18
ExecutionTime = 43.59 s  ClockTime = 44 s

End

