/*---------------------------------------------------------------------------*\
  =========                 |
  \\      /  F ield         | OpenFOAM: The Open Source CFD Toolbox
   \\    /   O peration     | Website:  https://openfoam.org
    \\  /    A nd           | Version:  8
     \\/     M anipulation  |
\*---------------------------------------------------------------------------*/
Build  : 8-ef60d22ea792
Exec   : icoFoam
Date   : Sep 11 2021
Time   : 14:41:03
Host   : "uc2n513.localdomain"
PID    : 232160
I/O    : uncollated
Case   : /pfs/data5/home/kit/scc/nq7776/data/code/OBR/lidDrivenCavity3D/Variation_init/100/Variation_mesh/20/Variation_matrix_solver/BiCGStab_ILU_CUDA/1631364061
nProcs : 1
sigFpe : Enabling floating point exception trapping (FOAM_SIGFPE).
fileModificationChecking : Monitoring run-time modified files using timeStampMaster (fileModificationSkew 10)
allowSystemOperations : Allowing user-supplied system call operations

// * * * * * * * * * * * * * * * * * * * * * * * * * * * * * * * * * * * * * //
Create time

Create mesh for time = 0

Reading transportProperties

Reading field p

Reading field U

Reading/calculating face flux field phi


Starting time loop

Time = 0.005

Courant Number mean: 0.189426 max: 0.847077
DILUPBiCGStab:  Solving for Ux, Initial residual = 0.0520863, Final residual = 1.93382e-07, No Iterations 5
DILUPBiCGStab:  Solving for Uy, Initial residual = 0.0827593, Final residual = 3.95798e-07, No Iterations 5
DILUPBiCGStab:  Solving for Uz, Initial residual = 0.0638903, Final residual = 5.63531e-07, No Iterations 5
linear solve U 5814
[OGL LOG] init_host_sparsity_pattern : 2 ms
[OGL LOG] matrix not stored update host matrix
[OGL LOG] update_host_mtx : 1 ms
[OGL LOG] matrix is not yet sorted, compute sorting idxs
[OGL LOG] compute_sort : 50 ms
[OGL LOG] matrix is not yet sorted, sorting host matrix
[OGL LOG] sort_host_mtx_sparsity_pattern : 1 ms
[OGL LOG] sort_host_mtx : 0 ms
[OGL LOG] init_preconditioner : 6 ms
[OGL LOG] solve : 24 ms
ILUcudaGKOBiCGStab:  Solving for p, Initial residual = 0.518631, Final residual = 9.38419e-07, No Iterations 38
linear solve p 812022
time step continuity errors : sum local = 7.66346e-09, global = -6.85715e-20, cumulative = -6.85715e-20
[OGL LOG] init_preconditioner : 0 ms
[OGL LOG] solve : 27 ms
ILUcudaGKOBiCGStab:  Solving for p, Initial residual = 0.286623, Final residual = 3.78182e-07, No Iterations 43
linear solve p 27750
time step continuity errors : sum local = 2.29238e-09, global = 2.96601e-20, cumulative = -3.89113e-20
ExecutionTime = 0.91 s  ClockTime = 1 s

Time = 0.01

Courant Number mean: 0.188529 max: 0.846325
DILUPBiCGStab:  Solving for Ux, Initial residual = 0.0110583, Final residual = 2.88336e-07, No Iterations 5
DILUPBiCGStab:  Solving for Uy, Initial residual = 0.0195296, Final residual = 2.76474e-07, No Iterations 5
DILUPBiCGStab:  Solving for Uz, Initial residual = 0.0446976, Final residual = 4.31921e-07, No Iterations 5
linear solve U 4655
[OGL LOG] init_preconditioner : 0 ms
[OGL LOG] solve : 24 ms
ILUcudaGKOBiCGStab:  Solving for p, Initial residual = 0.129946, Final residual = 6.74446e-07, No Iterations 38
linear solve p 24590
time step continuity errors : sum local = 4.76726e-06, global = -9.77024e-20, cumulative = -1.36614e-19
[OGL LOG] init_preconditioner : 0 ms
[OGL LOG] solve : 24 ms
ILUcudaGKOBiCGStab:  Solving for p, Initial residual = 0.0825349, Final residual = 5.75563e-07, No Iterations 37
linear solve p 24302
time step continuity errors : sum local = 4.28935e-06, global = 7.34578e-20, cumulative = -6.3156e-20
ExecutionTime = 0.96 s  ClockTime = 1 s

Time = 0.015

Courant Number mean: 0.188052 max: 0.844689
DILUPBiCGStab:  Solving for Ux, Initial residual = 0.0014724, Final residual = 1.16309e-08, No Iterations 5
DILUPBiCGStab:  Solving for Uy, Initial residual = 0.00301059, Final residual = 2.2512e-08, No Iterations 5
DILUPBiCGStab:  Solving for Uz, Initial residual = 0.00693015, Final residual = 6.5241e-08, No Iterations 5
linear solve U 4929
[OGL LOG] init_preconditioner : 0 ms
[OGL LOG] solve : 21 ms
ILUcudaGKOBiCGStab:  Solving for p, Initial residual = 0.0277413, Final residual = 1.45532e-07, No Iterations 33
linear solve p 21723
time step continuity errors : sum local = 4.20532e-06, global = 2.84401e-19, cumulative = 2.21245e-19
[OGL LOG] init_preconditioner : 0 ms
[OGL LOG] solve : 19 ms
ILUcudaGKOBiCGStab:  Solving for p, Initial residual = 0.0179691, Final residual = 5.85895e-07, No Iterations 31
linear solve p 20001
time step continuity errors : sum local = 4.25973e-06, global = -1.33726e-19, cumulative = 8.75191e-20
ExecutionTime = 1.02 s  ClockTime = 1 s

Time = 0.02

Courant Number mean: 0.187909 max: 0.844511
DILUPBiCGStab:  Solving for Ux, Initial residual = 0.000567165, Final residual = 1.23159e-08, No Iterations 5
DILUPBiCGStab:  Solving for Uy, Initial residual = 0.000652868, Final residual = 1.27491e-08, No Iterations 5
DILUPBiCGStab:  Solving for Uz, Initial residual = 0.00324669, Final residual = 2.50102e-08, No Iterations 5
linear solve U 4597
[OGL LOG] init_preconditioner : 0 ms
[OGL LOG] solve : 17 ms
ILUcudaGKOBiCGStab:  Solving for p, Initial residual = 0.00920137, Final residual = 9.52656e-07, No Iterations 28
linear solve p 18110
time step continuity errors : sum local = 4.27322e-06, global = -7.73662e-20, cumulative = 1.01529e-20
[OGL LOG] init_preconditioner : 0 ms
[OGL LOG] solve : 17 ms
ILUcudaGKOBiCGStab:  Solving for p, Initial residual = 0.00618977, Final residual = 7.81048e-07, No Iterations 28
linear solve p 18135
time step continuity errors : sum local = 4.26185e-06, global = -2.56596e-19, cumulative = -2.46443e-19
ExecutionTime = 1.05 s  ClockTime = 1 s

Time = 0.025

Courant Number mean: 0.187822 max: 0.844405
DILUPBiCGStab:  Solving for Ux, Initial residual = 0.000230189, Final residual = 3.65084e-09, No Iterations 5
DILUPBiCGStab:  Solving for Uy, Initial residual = 0.000348488, Final residual = 5.74912e-09, No Iterations 5
DILUPBiCGStab:  Solving for Uz, Initial residual = 0.00157364, Final residual = 1.5579e-08, No Iterations 5
linear solve U 4574
[OGL LOG] init_preconditioner : 0 ms
[OGL LOG] solve : 9 ms
ILUcudaGKOBiCGStab:  Solving for p, Initial residual = 0.00375815, Final residual = 7.09439e-07, No Iterations 14
linear solve p 9789
time step continuity errors : sum local = 4.26372e-06, global = -1.59973e-19, cumulative = -4.06415e-19
[OGL LOG] init_preconditioner : 0 ms
[OGL LOG] solve : 8 ms
ILUcudaGKOBiCGStab:  Solving for p, Initial residual = 0.00258055, Final residual = 9.3136e-07, No Iterations 13
linear solve p 9155
time step continuity errors : sum local = 4.26427e-06, global = 2.68019e-19, cumulative = -1.38396e-19
ExecutionTime = 1.08 s  ClockTime = 1 s

Time = 0.03

Courant Number mean: 0.18777 max: 0.84431
DILUPBiCGStab:  Solving for Ux, Initial residual = 0.0001253, Final residual = 1.78481e-09, No Iterations 5
DILUPBiCGStab:  Solving for Uy, Initial residual = 0.000162117, Final residual = 2.92284e-09, No Iterations 5
DILUPBiCGStab:  Solving for Uz, Initial residual = 0.000995952, Final residual = 6.78147e-09, No Iterations 5
linear solve U 4569
[OGL LOG] init_preconditioner : 0 ms
[OGL LOG] solve : 18 ms
ILUcudaGKOBiCGStab:  Solving for p, Initial residual = 0.0015938, Final residual = 1.38243e-07, No Iterations 29
linear solve p 19050
time step continuity errors : sum local = 4.2605e-06, global = 5.9892e-20, cumulative = -7.85043e-20
[OGL LOG] init_preconditioner : 0 ms
[OGL LOG] solve : 11 ms
ILUcudaGKOBiCGStab:  Solving for p, Initial residual = 0.00108356, Final residual = 9.63265e-07, No Iterations 17
linear solve p 11314
time step continuity errors : sum local = 4.26468e-06, global = -4.09992e-19, cumulative = -4.88496e-19
ExecutionTime = 1.13 s  ClockTime = 1 s

Time = 0.035

Courant Number mean: 0.187741 max: 0.84426
DILUPBiCGStab:  Solving for Ux, Initial residual = 6.78815e-05, Final residual = 5.46374e-10, No Iterations 5
DILUPBiCGStab:  Solving for Uy, Initial residual = 9.90591e-05, Final residual = 1.89601e-09, No Iterations 5
DILUPBiCGStab:  Solving for Uz, Initial residual = 0.000658383, Final residual = 5.98415e-09, No Iterations 5
linear solve U 4575
[OGL LOG] init_preconditioner : 0 ms
[OGL LOG] solve : 8 ms
ILUcudaGKOBiCGStab:  Solving for p, Initial residual = 0.000712042, Final residual = 9.43922e-07, No Iterations 12
linear solve p 8556
time step continuity errors : sum local = 4.26611e-06, global = -1.34979e-19, cumulative = -6.23476e-19
[OGL LOG] init_preconditioner : 0 ms
[OGL LOG] solve : 8 ms
ILUcudaGKOBiCGStab:  Solving for p, Initial residual = 0.000496784, Final residual = 6.46995e-07, No Iterations 12
linear solve p 8550
time step continuity errors : sum local = 4.26466e-06, global = -8.2048e-20, cumulative = -7.05524e-19
ExecutionTime = 1.15 s  ClockTime = 1 s

Time = 0.04

Courant Number mean: 0.187723 max: 0.84423
DILUPBiCGStab:  Solving for Ux, Initial residual = 4.15744e-05, Final residual = 3.26665e-10, No Iterations 5
DILUPBiCGStab:  Solving for Uy, Initial residual = 5.81804e-05, Final residual = 5.28721e-10, No Iterations 5
DILUPBiCGStab:  Solving for Uz, Initial residual = 0.000434956, Final residual = 2.59502e-09, No Iterations 5
linear solve U 4585
[OGL LOG] init_preconditioner : 0 ms
[OGL LOG] solve : 8 ms
ILUcudaGKOBiCGStab:  Solving for p, Initial residual = 0.000326607, Final residual = 6.92774e-07, No Iterations 12
linear solve p 8558
time step continuity errors : sum local = 4.26421e-06, global = -2.03888e-19, cumulative = -9.09411e-19
[OGL LOG] init_preconditioner : 0 ms
[OGL LOG] solve : 8 ms
ILUcudaGKOBiCGStab:  Solving for p, Initial residual = 0.000225639, Final residual = 8.3181e-07, No Iterations 12
linear solve p 8542
time step continuity errors : sum local = 4.26444e-06, global = 8.8864e-20, cumulative = -8.20547e-19
ExecutionTime = 1.17 s  ClockTime = 1 s

Time = 0.045

Courant Number mean: 0.187711 max: 0.844211
DILUPBiCGStab:  Solving for Ux, Initial residual = 2.58207e-05, Final residual = 9.89537e-11, No Iterations 5
DILUPBiCGStab:  Solving for Uy, Initial residual = 3.68212e-05, Final residual = 5.05072e-10, No Iterations 5
DILUPBiCGStab:  Solving for Uz, Initial residual = 0.000293332, Final residual = 2.18713e-09, No Iterations 5
linear solve U 4604
[OGL LOG] init_preconditioner : 0 ms
[OGL LOG] solve : 7 ms
ILUcudaGKOBiCGStab:  Solving for p, Initial residual = 0.000153768, Final residual = 9.17357e-07, No Iterations 10
linear solve p 7305
time step continuity errors : sum local = 4.26596e-06, global = -1.04237e-19, cumulative = -9.24785e-19
[OGL LOG] init_preconditioner : 0 ms
[OGL LOG] solve : 7 ms
ILUcudaGKOBiCGStab:  Solving for p, Initial residual = 0.000109126, Final residual = 7.82139e-07, No Iterations 10
linear solve p 7298
time step continuity errors : sum local = 4.26446e-06, global = -4.61484e-20, cumulative = -9.70933e-19
ExecutionTime = 1.2 s  ClockTime = 1 s

Time = 0.05

Courant Number mean: 0.187705 max: 0.8442
DILUPBiCGStab:  Solving for Ux, Initial residual = 1.67253e-05, Final residual = 5.30021e-11, No Iterations 5
DILUPBiCGStab:  Solving for Uy, Initial residual = 2.34357e-05, Final residual = 1.67342e-10, No Iterations 5
DILUPBiCGStab:  Solving for Uz, Initial residual = 0.000200709, Final residual = 9.51561e-10, No Iterations 5
linear solve U 4575
[OGL LOG] init_preconditioner : 0 ms
[OGL LOG] solve : 7 ms
ILUcudaGKOBiCGStab:  Solving for p, Initial residual = 7.64128e-05, Final residual = 8.81782e-07, No Iterations 10
linear solve p 7305
time step continuity errors : sum local = 4.26555e-06, global = -3.9746e-20, cumulative = -1.01068e-18
[OGL LOG] init_preconditioner : 0 ms
[OGL LOG] solve : 7 ms
ILUcudaGKOBiCGStab:  Solving for p, Initial residual = 5.49852e-05, Final residual = 7.76924e-07, No Iterations 10
linear solve p 7321
time step continuity errors : sum local = 4.26405e-06, global = 2.54734e-19, cumulative = -7.55945e-19
ExecutionTime = 1.22 s  ClockTime = 1 s

End

