/*---------------------------------------------------------------------------*\
  =========                 |
  \\      /  F ield         | OpenFOAM: The Open Source CFD Toolbox
   \\    /   O peration     | Website:  https://openfoam.org
    \\  /    A nd           | Version:  8
     \\/     M anipulation  |
\*---------------------------------------------------------------------------*/
Build  : 8-ef60d22ea792
Exec   : icoFoam
Date   : Sep 11 2021
Time   : 14:38:07
Host   : "uc2n513.localdomain"
PID    : 230442
I/O    : uncollated
Case   : /pfs/data5/home/kit/scc/nq7776/data/code/OBR/lidDrivenCavity3D/Variation_init/100/Variation_mesh/50/Variation_matrix_solver/BiCGStab_BJ_CUDA/1631363881
nProcs : 1
sigFpe : Enabling floating point exception trapping (FOAM_SIGFPE).
fileModificationChecking : Monitoring run-time modified files using timeStampMaster (fileModificationSkew 10)
allowSystemOperations : Allowing user-supplied system call operations

// * * * * * * * * * * * * * * * * * * * * * * * * * * * * * * * * * * * * * //
Create time

Create mesh for time = 0

Reading transportProperties

Reading field p

Reading field U

Reading/calculating face flux field phi


Starting time loop

Time = 0.002

Courant Number mean: 0.192148 max: 0.956831
DILUPBiCGStab:  Solving for Ux, Initial residual = 0.172561, Final residual = 2.46398e-05, No Iterations 5
DILUPBiCGStab:  Solving for Uy, Initial residual = 0.345881, Final residual = 4.22593e-05, No Iterations 5
DILUPBiCGStab:  Solving for Uz, Initial residual = 0.516458, Final residual = 7.14476e-05, No Iterations 5
linear solve U 114797
[OGL LOG] init_host_sparsity_pattern : 34 ms
[OGL LOG] matrix not stored update host matrix
[OGL LOG] update_host_mtx : 18 ms
[OGL LOG] matrix is not yet sorted, compute sorting idxs
[OGL LOG] compute_sort : 985 ms
[OGL LOG] matrix is not yet sorted, sorting host matrix
[OGL LOG] sort_host_mtx_sparsity_pattern : 22 ms
[OGL LOG] sort_host_mtx : 14 ms
[OGL LOG] init_preconditioner : 14 ms
[OGL LOG] solve : 84 ms
BJcudaGKOBiCGStab:  Solving for p, Initial residual = 0.676582, Final residual = 4.14856e-07, No Iterations 231
linear solve p 1914293
time step continuity errors : sum local = 1.2766e-09, global = -2.11222e-20, cumulative = -2.11222e-20
[OGL LOG] init_preconditioner : 0 ms
[OGL LOG] solve : 90 ms
BJcudaGKOBiCGStab:  Solving for p, Initial residual = 0.411256, Final residual = 8.56687e-07, No Iterations 255
linear solve p 94859
time step continuity errors : sum local = 1.40581e-09, global = -4.39362e-20, cumulative = -6.50584e-20
ExecutionTime = 2.73 s  ClockTime = 3 s

Time = 0.004

Courant Number mean: 0.192597 max: 0.939084
DILUPBiCGStab:  Solving for Ux, Initial residual = 0.0107651, Final residual = 2.4758e-05, No Iterations 5
DILUPBiCGStab:  Solving for Uy, Initial residual = 0.0214043, Final residual = 3.55436e-05, No Iterations 5
DILUPBiCGStab:  Solving for Uz, Initial residual = 0.090883, Final residual = 0.000101995, No Iterations 5
linear solve U 103719
[OGL LOG] init_preconditioner : 0 ms
[OGL LOG] solve : 96 ms
BJcudaGKOBiCGStab:  Solving for p, Initial residual = 0.329321, Final residual = 8.43121e-07, No Iterations 268
linear solve p 100304
time step continuity errors : sum local = 7.26492e-07, global = -1.17873e-20, cumulative = -7.68457e-20
[OGL LOG] init_preconditioner : 0 ms
[OGL LOG] solve : 93 ms
BJcudaGKOBiCGStab:  Solving for p, Initial residual = 0.245938, Final residual = 9.69212e-07, No Iterations 260
linear solve p 97999
time step continuity errors : sum local = 6.33291e-07, global = 2.50969e-20, cumulative = -5.17488e-20
ExecutionTime = 3.11 s  ClockTime = 3 s

Time = 0.006

Courant Number mean: 0.192342 max: 0.940635
DILUPBiCGStab:  Solving for Ux, Initial residual = 0.00352074, Final residual = 6.70733e-06, No Iterations 5
DILUPBiCGStab:  Solving for Uy, Initial residual = 0.00758704, Final residual = 1.70049e-05, No Iterations 5
DILUPBiCGStab:  Solving for Uz, Initial residual = 0.0401288, Final residual = 6.16941e-05, No Iterations 5
linear solve U 103373
[OGL LOG] init_preconditioner : 0 ms
[OGL LOG] solve : 93 ms
BJcudaGKOBiCGStab:  Solving for p, Initial residual = 0.174831, Final residual = 9.73512e-07, No Iterations 264
linear solve p 97603
time step continuity errors : sum local = 6.74431e-07, global = 1.55339e-20, cumulative = -3.62149e-20
[OGL LOG] init_preconditioner : 0 ms
[OGL LOG] solve : 86 ms
BJcudaGKOBiCGStab:  Solving for p, Initial residual = 0.135097, Final residual = 7.11474e-07, No Iterations 244
linear solve p 90465
time step continuity errors : sum local = 6.31842e-07, global = -1.15154e-20, cumulative = -4.77303e-20
ExecutionTime = 3.46 s  ClockTime = 4 s

Time = 0.008

Courant Number mean: 0.191845 max: 0.938398
DILUPBiCGStab:  Solving for Ux, Initial residual = 0.00145246, Final residual = 1.85272e-06, No Iterations 5
DILUPBiCGStab:  Solving for Uy, Initial residual = 0.00279565, Final residual = 4.23304e-06, No Iterations 5
DILUPBiCGStab:  Solving for Uz, Initial residual = 0.0155885, Final residual = 2.28467e-05, No Iterations 5
linear solve U 103453
[OGL LOG] init_preconditioner : 0 ms
[OGL LOG] solve : 85 ms
BJcudaGKOBiCGStab:  Solving for p, Initial residual = 0.104346, Final residual = 9.35316e-07, No Iterations 240
linear solve p 89365
time step continuity errors : sum local = 6.247e-07, global = -9.84603e-21, cumulative = -5.75763e-20
[OGL LOG] init_preconditioner : 0 ms
[OGL LOG] solve : 95 ms
BJcudaGKOBiCGStab:  Solving for p, Initial residual = 0.0812689, Final residual = 9.3192e-07, No Iterations 265
linear solve p 99440
time step continuity errors : sum local = 6.31958e-07, global = -7.70723e-20, cumulative = -1.34649e-19
ExecutionTime = 3.83 s  ClockTime = 4 s

Time = 0.01

Courant Number mean: 0.191684 max: 0.938454
DILUPBiCGStab:  Solving for Ux, Initial residual = 0.0007543, Final residual = 1.39772e-06, No Iterations 5
DILUPBiCGStab:  Solving for Uy, Initial residual = 0.00149063, Final residual = 3.19447e-06, No Iterations 5
DILUPBiCGStab:  Solving for Uz, Initial residual = 0.00883295, Final residual = 1.13777e-05, No Iterations 5
linear solve U 104090
[OGL LOG] init_preconditioner : 0 ms
[OGL LOG] solve : 47 ms
BJcudaGKOBiCGStab:  Solving for p, Initial residual = 0.0660477, Final residual = 9.54952e-07, No Iterations 131
linear solve p 51240
time step continuity errors : sum local = 6.37803e-07, global = -2.01243e-20, cumulative = -1.54773e-19
[OGL LOG] init_preconditioner : 0 ms
[OGL LOG] solve : 44 ms
BJcudaGKOBiCGStab:  Solving for p, Initial residual = 0.0511199, Final residual = 9.98686e-07, No Iterations 121
linear solve p 48145
time step continuity errors : sum local = 6.32222e-07, global = -2.48054e-20, cumulative = -1.79578e-19
ExecutionTime = 4.09 s  ClockTime = 4 s

Time = 0.012

Courant Number mean: 0.191526 max: 0.938315
DILUPBiCGStab:  Solving for Ux, Initial residual = 0.000475005, Final residual = 6.51283e-07, No Iterations 5
DILUPBiCGStab:  Solving for Uy, Initial residual = 0.000801201, Final residual = 1.24127e-06, No Iterations 5
DILUPBiCGStab:  Solving for Uz, Initial residual = 0.00455899, Final residual = 4.88398e-06, No Iterations 5
linear solve U 103408
[OGL LOG] init_preconditioner : 0 ms
[OGL LOG] solve : 44 ms
BJcudaGKOBiCGStab:  Solving for p, Initial residual = 0.0433101, Final residual = 6.56581e-07, No Iterations 121
linear solve p 47843
time step continuity errors : sum local = 6.31849e-07, global = 1.44089e-20, cumulative = -1.65169e-19
[OGL LOG] init_preconditioner : 0 ms
[OGL LOG] solve : 41 ms
BJcudaGKOBiCGStab:  Solving for p, Initial residual = 0.0334563, Final residual = 9.9274e-07, No Iterations 113
linear solve p 45188
time step continuity errors : sum local = 6.32348e-07, global = 1.17447e-20, cumulative = -1.53425e-19
ExecutionTime = 4.36 s  ClockTime = 4 s

Time = 0.014

Courant Number mean: 0.191434 max: 0.93818
DILUPBiCGStab:  Solving for Ux, Initial residual = 0.000305052, Final residual = 5.43768e-07, No Iterations 5
DILUPBiCGStab:  Solving for Uy, Initial residual = 0.000506032, Final residual = 7.98374e-07, No Iterations 5
DILUPBiCGStab:  Solving for Uz, Initial residual = 0.00278195, Final residual = 2.94627e-06, No Iterations 5
linear solve U 105426
[OGL LOG] init_preconditioner : 0 ms
[OGL LOG] solve : 39 ms
BJcudaGKOBiCGStab:  Solving for p, Initial residual = 0.0289404, Final residual = 9.98561e-07, No Iterations 109
linear solve p 43486
time step continuity errors : sum local = 6.33845e-07, global = -1.92217e-20, cumulative = -1.72646e-19
[OGL LOG] init_preconditioner : 0 ms
[OGL LOG] solve : 37 ms
BJcudaGKOBiCGStab:  Solving for p, Initial residual = 0.0222926, Final residual = 9.93366e-07, No Iterations 102
linear solve p 41386
time step continuity errors : sum local = 6.3246e-07, global = 4.02134e-21, cumulative = -1.68625e-19
ExecutionTime = 4.62 s  ClockTime = 5 s

Time = 0.016

Courant Number mean: 0.191359 max: 0.938152
DILUPBiCGStab:  Solving for Ux, Initial residual = 0.000210613, Final residual = 2.58831e-07, No Iterations 5
DILUPBiCGStab:  Solving for Uy, Initial residual = 0.00032563, Final residual = 3.74346e-07, No Iterations 5
DILUPBiCGStab:  Solving for Uz, Initial residual = 0.00163093, Final residual = 1.71276e-06, No Iterations 5
linear solve U 103475
[OGL LOG] init_preconditioner : 0 ms
[OGL LOG] solve : 79 ms
BJcudaGKOBiCGStab:  Solving for p, Initial residual = 0.0195945, Final residual = 9.84732e-07, No Iterations 222
linear solve p 83063
time step continuity errors : sum local = 6.32071e-07, global = 1.64212e-20, cumulative = -1.52204e-19
[OGL LOG] init_preconditioner : 0 ms
[OGL LOG] solve : 35 ms
BJcudaGKOBiCGStab:  Solving for p, Initial residual = 0.0150624, Final residual = 9.96747e-07, No Iterations 94
linear solve p 38935
time step continuity errors : sum local = 6.33186e-07, global = 2.44465e-20, cumulative = -1.27757e-19
ExecutionTime = 4.91 s  ClockTime = 5 s

Time = 0.018

Courant Number mean: 0.191306 max: 0.938082
DILUPBiCGStab:  Solving for Ux, Initial residual = 0.000146385, Final residual = 1.51169e-07, No Iterations 5
DILUPBiCGStab:  Solving for Uy, Initial residual = 0.000223774, Final residual = 1.97098e-07, No Iterations 5
DILUPBiCGStab:  Solving for Uz, Initial residual = 0.00110484, Final residual = 1.17888e-06, No Iterations 5
linear solve U 103404
[OGL LOG] init_preconditioner : 0 ms
[OGL LOG] solve : 77 ms
BJcudaGKOBiCGStab:  Solving for p, Initial residual = 0.0133974, Final residual = 9.0303e-07, No Iterations 214
linear solve p 81347
time step continuity errors : sum local = 6.32136e-07, global = -7.72173e-22, cumulative = -1.2853e-19
[OGL LOG] init_preconditioner : 0 ms
[OGL LOG] solve : 64 ms
BJcudaGKOBiCGStab:  Solving for p, Initial residual = 0.0102995, Final residual = 8.22995e-07, No Iterations 179
linear solve p 68001
time step continuity errors : sum local = 6.3199e-07, global = -4.19225e-20, cumulative = -1.70452e-19
ExecutionTime = 5.23 s  ClockTime = 5 s

Time = 0.02

Courant Number mean: 0.191264 max: 0.938065
DILUPBiCGStab:  Solving for Ux, Initial residual = 0.00010577, Final residual = 1.01749e-07, No Iterations 5
DILUPBiCGStab:  Solving for Uy, Initial residual = 0.000156692, Final residual = 1.10813e-07, No Iterations 5
DILUPBiCGStab:  Solving for Uz, Initial residual = 0.000725065, Final residual = 8.5299e-07, No Iterations 5
linear solve U 103743
[OGL LOG] init_preconditioner : 0 ms
[OGL LOG] solve : 73 ms
BJcudaGKOBiCGStab:  Solving for p, Initial residual = 0.00920631, Final residual = 5.58965e-07, No Iterations 205
linear solve p 76995
time step continuity errors : sum local = 6.32011e-07, global = -4.69932e-20, cumulative = -2.17445e-19
[OGL LOG] init_preconditioner : 0 ms
[OGL LOG] solve : 82 ms
BJcudaGKOBiCGStab:  Solving for p, Initial residual = 0.00707303, Final residual = 8.74088e-07, No Iterations 233
linear solve p 86573
time step continuity errors : sum local = 6.31955e-07, global = -4.64647e-20, cumulative = -2.6391e-19
ExecutionTime = 5.57 s  ClockTime = 6 s

End

