/*---------------------------------------------------------------------------*\
  =========                 |
  \\      /  F ield         | OpenFOAM: The Open Source CFD Toolbox
   \\    /   O peration     | Website:  https://openfoam.org
    \\  /    A nd           | Version:  8
     \\/     M anipulation  |
\*---------------------------------------------------------------------------*/
Build  : 8-ef60d22ea792
Exec   : icoFoam
Date   : Sep 11 2021
Time   : 13:53:31
Host   : "uc2n513.localdomain"
PID    : 222302
I/O    : uncollated
Case   : /pfs/data5/home/kit/scc/nq7776/data/code/OBR/lidDrivenCavity3D/Variation_init/100/Variation_mesh/65/Variation_matrix_solver/CG_NoPrecond_CUDA/1631361200
nProcs : 1
sigFpe : Enabling floating point exception trapping (FOAM_SIGFPE).
fileModificationChecking : Monitoring run-time modified files using timeStampMaster (fileModificationSkew 10)
allowSystemOperations : Allowing user-supplied system call operations

// * * * * * * * * * * * * * * * * * * * * * * * * * * * * * * * * * * * * * //
Create time

Create mesh for time = 0

Reading transportProperties

Reading field p

Reading field U

Reading/calculating face flux field phi


Starting time loop

Time = 0.00153846

Courant Number mean: 0.191448 max: 0.959317
DILUPBiCGStab:  Solving for Ux, Initial residual = 0.112017, Final residual = 1.40856e-05, No Iterations 5
DILUPBiCGStab:  Solving for Uy, Initial residual = 0.209721, Final residual = 3.34999e-05, No Iterations 5
DILUPBiCGStab:  Solving for Uz, Initial residual = 0.253067, Final residual = 9.19753e-05, No Iterations 5
linear solve U 275727
[OGL LOG] init_host_sparsity_pattern : 77 ms
[OGL LOG] matrix not stored update host matrix
[OGL LOG] update_host_mtx : 40 ms
[OGL LOG] matrix is not yet sorted, compute sorting idxs
[OGL LOG] compute_sort : 2368 ms
[OGL LOG] matrix is not yet sorted, sorting host matrix
[OGL LOG] sort_host_mtx_sparsity_pattern : 51 ms
[OGL LOG] sort_host_mtx : 28 ms
[OGL LOG] init_preconditioner : 0 ms
[OGL LOG] solve : 260 ms
nonecudaGKOCG:  Solving for p, Initial residual = 0.548046, Final residual = 9.56809e-07, No Iterations 531
linear solve p 3580300
time step continuity errors : sum local = 1.2558e-09, global = -2.31776e-20, cumulative = -2.31776e-20
[OGL LOG] init_preconditioner : 0 ms
[OGL LOG] solve : 355 ms
nonecudaGKOCG:  Solving for p, Initial residual = 0.305311, Final residual = 9.83875e-07, No Iterations 532
linear solve p 364240
time step continuity errors : sum local = 7.75256e-10, global = 1.61353e-20, cumulative = -7.04235e-21
ExecutionTime = 5.64 s  ClockTime = 6 s

Time = 0.00307692

Courant Number mean: 0.191613 max: 0.952625
DILUPBiCGStab:  Solving for Ux, Initial residual = 0.0053039, Final residual = 1.96335e-05, No Iterations 5
DILUPBiCGStab:  Solving for Uy, Initial residual = 0.01073, Final residual = 3.73437e-05, No Iterations 5
DILUPBiCGStab:  Solving for Uz, Initial residual = 0.0235182, Final residual = 8.30298e-05, No Iterations 5
linear solve U 253314
[OGL LOG] init_preconditioner : 0 ms
[OGL LOG] solve : 356 ms
nonecudaGKOCG:  Solving for p, Initial residual = 0.241046, Final residual = 9.18263e-07, No Iterations 534
linear solve p 364844
time step continuity errors : sum local = 2.58629e-07, global = -2.48557e-20, cumulative = -3.1898e-20
[OGL LOG] init_preconditioner : 0 ms
[OGL LOG] solve : 360 ms
nonecudaGKOCG:  Solving for p, Initial residual = 0.201177, Final residual = 9.79474e-07, No Iterations 531
linear solve p 368693
time step continuity errors : sum local = 2.47765e-07, global = 1.04448e-20, cumulative = -2.14532e-20
ExecutionTime = 6.78 s  ClockTime = 7 s

Time = 0.00461538

Courant Number mean: 0.191576 max: 0.952768
DILUPBiCGStab:  Solving for Ux, Initial residual = 0.00149172, Final residual = 7.507e-06, No Iterations 5
DILUPBiCGStab:  Solving for Uy, Initial residual = 0.00378368, Final residual = 1.56078e-05, No Iterations 5
DILUPBiCGStab:  Solving for Uz, Initial residual = 0.0123651, Final residual = 4.51115e-05, No Iterations 5
linear solve U 251509
[OGL LOG] init_preconditioner : 0 ms
[OGL LOG] solve : 350 ms
nonecudaGKOCG:  Solving for p, Initial residual = 0.153273, Final residual = 9.48697e-07, No Iterations 527
linear solve p 360222
time step continuity errors : sum local = 2.46544e-07, global = 1.12543e-20, cumulative = -1.01989e-20
[OGL LOG] init_preconditioner : 0 ms
[OGL LOG] solve : 350 ms
nonecudaGKOCG:  Solving for p, Initial residual = 0.127108, Final residual = 9.76953e-07, No Iterations 524
linear solve p 358415
time step continuity errors : sum local = 2.46542e-07, global = -5.266e-21, cumulative = -1.54649e-20
ExecutionTime = 7.92 s  ClockTime = 8 s

Time = 0.00615385

Courant Number mean: 0.191478 max: 0.952387
DILUPBiCGStab:  Solving for Ux, Initial residual = 0.000807999, Final residual = 2.32829e-06, No Iterations 5
DILUPBiCGStab:  Solving for Uy, Initial residual = 0.00210971, Final residual = 5.15576e-06, No Iterations 5
DILUPBiCGStab:  Solving for Uz, Initial residual = 0.00658322, Final residual = 2.21998e-05, No Iterations 5
linear solve U 252346
[OGL LOG] init_preconditioner : 0 ms
[OGL LOG] solve : 343 ms
nonecudaGKOCG:  Solving for p, Initial residual = 0.105575, Final residual = 9.85998e-07, No Iterations 519
linear solve p 352010
time step continuity errors : sum local = 2.4733e-07, global = -2.03886e-20, cumulative = -3.58536e-20
[OGL LOG] init_preconditioner : 0 ms
[OGL LOG] solve : 345 ms
nonecudaGKOCG:  Solving for p, Initial residual = 0.0876459, Final residual = 9.11758e-07, No Iterations 518
linear solve p 353701
time step continuity errors : sum local = 2.46771e-07, global = -4.34253e-20, cumulative = -7.92789e-20
ExecutionTime = 9.05 s  ClockTime = 9 s

Time = 0.00769231

Courant Number mean: 0.191453 max: 0.952328
DILUPBiCGStab:  Solving for Ux, Initial residual = 0.000487472, Final residual = 1.865e-06, No Iterations 5
DILUPBiCGStab:  Solving for Uy, Initial residual = 0.00134199, Final residual = 3.68838e-06, No Iterations 5
DILUPBiCGStab:  Solving for Uz, Initial residual = 0.00447377, Final residual = 1.41921e-05, No Iterations 5
linear solve U 251490
[OGL LOG] init_preconditioner : 0 ms
[OGL LOG] solve : 346 ms
nonecudaGKOCG:  Solving for p, Initial residual = 0.0741721, Final residual = 9.46423e-07, No Iterations 514
linear solve p 354981
time step continuity errors : sum local = 2.46712e-07, global = 1.11244e-20, cumulative = -6.81545e-20
[OGL LOG] init_preconditioner : 0 ms
[OGL LOG] solve : 336 ms
nonecudaGKOCG:  Solving for p, Initial residual = 0.0610309, Final residual = 9.51236e-07, No Iterations 512
linear solve p 344905
time step continuity errors : sum local = 2.46672e-07, global = 1.71448e-20, cumulative = -5.10097e-20
ExecutionTime = 10.16 s  ClockTime = 10 s

Time = 0.00923077

Courant Number mean: 0.191423 max: 0.952341
DILUPBiCGStab:  Solving for Ux, Initial residual = 0.000315135, Final residual = 8.37538e-07, No Iterations 5
DILUPBiCGStab:  Solving for Uy, Initial residual = 0.000910683, Final residual = 1.52766e-06, No Iterations 5
DILUPBiCGStab:  Solving for Uz, Initial residual = 0.00284649, Final residual = 7.06569e-06, No Iterations 5
linear solve U 253017
[OGL LOG] init_preconditioner : 0 ms
[OGL LOG] solve : 330 ms
nonecudaGKOCG:  Solving for p, Initial residual = 0.053757, Final residual = 9.56247e-07, No Iterations 502
linear solve p 339258
time step continuity errors : sum local = 2.46879e-07, global = 3.33227e-20, cumulative = -1.76869e-20
[OGL LOG] init_preconditioner : 0 ms
[OGL LOG] solve : 336 ms
nonecudaGKOCG:  Solving for p, Initial residual = 0.044279, Final residual = 9.45091e-07, No Iterations 500
linear solve p 345291
time step continuity errors : sum local = 2.46706e-07, global = 3.75056e-20, cumulative = 1.98187e-20
ExecutionTime = 11.26 s  ClockTime = 12 s

Time = 0.0107692

Courant Number mean: 0.191411 max: 0.952275
DILUPBiCGStab:  Solving for Ux, Initial residual = 0.000217868, Final residual = 6.99796e-07, No Iterations 5
DILUPBiCGStab:  Solving for Uy, Initial residual = 0.000649811, Final residual = 1.09471e-06, No Iterations 5
DILUPBiCGStab:  Solving for Uz, Initial residual = 0.00207171, Final residual = 5.60194e-06, No Iterations 5
linear solve U 252305
[OGL LOG] init_preconditioner : 0 ms
[OGL LOG] solve : 326 ms
nonecudaGKOCG:  Solving for p, Initial residual = 0.0392456, Final residual = 9.98247e-07, No Iterations 494
linear solve p 335435
time step continuity errors : sum local = 2.46667e-07, global = 2.55553e-20, cumulative = 4.5374e-20
[OGL LOG] init_preconditioner : 0 ms
[OGL LOG] solve : 325 ms
nonecudaGKOCG:  Solving for p, Initial residual = 0.0321859, Final residual = 9.3744e-07, No Iterations 493
linear solve p 333988
time step continuity errors : sum local = 2.46677e-07, global = 2.15008e-20, cumulative = 6.68748e-20
ExecutionTime = 12.34 s  ClockTime = 13 s

Time = 0.0123077

Courant Number mean: 0.1914 max: 0.9523
DILUPBiCGStab:  Solving for Ux, Initial residual = 0.000149843, Final residual = 4.20598e-07, No Iterations 5
DILUPBiCGStab:  Solving for Uy, Initial residual = 0.000472351, Final residual = 7.00388e-07, No Iterations 5
DILUPBiCGStab:  Solving for Uz, Initial residual = 0.00139443, Final residual = 2.74005e-06, No Iterations 5
linear solve U 251279
[OGL LOG] init_preconditioner : 0 ms
[OGL LOG] solve : 324 ms
nonecudaGKOCG:  Solving for p, Initial residual = 0.029083, Final residual = 9.86183e-07, No Iterations 481
linear solve p 333337
time step continuity errors : sum local = 2.46788e-07, global = 1.2575e-20, cumulative = 7.94498e-20
[OGL LOG] init_preconditioner : 0 ms
[OGL LOG] solve : 312 ms
nonecudaGKOCG:  Solving for p, Initial residual = 0.0238242, Final residual = 9.63327e-07, No Iterations 479
linear solve p 320879
time step continuity errors : sum local = 2.467e-07, global = -6.59144e-21, cumulative = 7.28584e-20
ExecutionTime = 13.41 s  ClockTime = 14 s

Time = 0.0138462

Courant Number mean: 0.191394 max: 0.952267
DILUPBiCGStab:  Solving for Ux, Initial residual = 0.000108332, Final residual = 3.18328e-07, No Iterations 5
DILUPBiCGStab:  Solving for Uy, Initial residual = 0.000353243, Final residual = 4.52883e-07, No Iterations 5
DILUPBiCGStab:  Solving for Uz, Initial residual = 0.00103098, Final residual = 2.5422e-06, No Iterations 5
linear solve U 252571
[OGL LOG] init_preconditioner : 0 ms
[OGL LOG] solve : 317 ms
nonecudaGKOCG:  Solving for p, Initial residual = 0.021637, Final residual = 9.7096e-07, No Iterations 469
linear solve p 325853
time step continuity errors : sum local = 2.46666e-07, global = -2.04377e-20, cumulative = 5.24207e-20
[OGL LOG] init_preconditioner : 0 ms
[OGL LOG] solve : 307 ms
nonecudaGKOCG:  Solving for p, Initial residual = 0.0176865, Final residual = 9.48272e-07, No Iterations 468
linear solve p 315750
time step continuity errors : sum local = 2.46677e-07, global = -2.34808e-21, cumulative = 5.00726e-20
ExecutionTime = 14.47 s  ClockTime = 15 s

Time = 0.0153846

Courant Number mean: 0.191389 max: 0.952281
DILUPBiCGStab:  Solving for Ux, Initial residual = 7.68988e-05, Final residual = 2.13084e-07, No Iterations 5
DILUPBiCGStab:  Solving for Uy, Initial residual = 0.000261873, Final residual = 3.53101e-07, No Iterations 5
DILUPBiCGStab:  Solving for Uz, Initial residual = 0.000722548, Final residual = 1.57879e-06, No Iterations 5
linear solve U 253110
[OGL LOG] init_preconditioner : 0 ms
[OGL LOG] solve : 287 ms
nonecudaGKOCG:  Solving for p, Initial residual = 0.0162347, Final residual = 9.99516e-07, No Iterations 429
linear solve p 296042
time step continuity errors : sum local = 2.46748e-07, global = 3.03808e-20, cumulative = 8.04534e-20
[OGL LOG] init_preconditioner : 0 ms
[OGL LOG] solve : 286 ms
nonecudaGKOCG:  Solving for p, Initial residual = 0.0132549, Final residual = 9.97157e-07, No Iterations 428
linear solve p 295027
time step continuity errors : sum local = 2.46709e-07, global = 1.5578e-20, cumulative = 9.60313e-20
ExecutionTime = 15.47 s  ClockTime = 16 s

End

