/*---------------------------------------------------------------------------*\
  =========                 |
  \\      /  F ield         | OpenFOAM: The Open Source CFD Toolbox
   \\    /   O peration     | Website:  https://openfoam.org
    \\  /    A nd           | Version:  8
     \\/     M anipulation  |
\*---------------------------------------------------------------------------*/
Build  : 8-13d66902f78c
Exec   : icoFoam
Date   : Jun 28 2021
Time   : 13:24:31
Host   : "uc2n489.localdomain"
PID    : 284318
I/O    : uncollated
Case   : /pfs/data5/home/kit/scc/nq7776/code/OGL_DATA/lidDrivenCavity3D/v0.1-119-gd926e8b/f584ccac99/TeslaV100-SXM2-32GB/Test_2021-06-28-13:22:49/50/p-U-BiCGStab-GKO-none-cuda/lidDrivenCavity3D
nProcs : 1
sigFpe : Enabling floating point exception trapping (FOAM_SIGFPE).
fileModificationChecking : Monitoring run-time modified files using timeStampMaster (fileModificationSkew 10)
allowSystemOperations : Allowing user-supplied system call operations

// * * * * * * * * * * * * * * * * * * * * * * * * * * * * * * * * * * * * * //
Create time

Create mesh for time = 0

Reading transportProperties

Reading field p

Reading field U

Reading/calculating face flux field phi


Starting time loop

Time = 0.002

Courant Number mean: 0 max: 0
Gingko init_host_sparsity_pattern : 35 ms
 matrix not stored update host matrix 
Gingko update_host_mtx : 18 ms
matrix is not yet sorted, compute sorting idxs 
 compute sorting idxs 860000
Gingko compute_sort : 999 ms
matrix is not yet sorted,  sorting host matrix 
Gingko sort_host_mtx_sparsity_pattern : 23 ms
Gingko sort_host_mtx : 12 ms
Gingko init_preconditioner : 0 ms
 get_precond == NULL
Gingko solve : 17 ms
 copy back
 get iters 
nonecudaGKOBiCGStab:  Solving for Ux, Initial residual = 0, Final residual = 8.71159e-07, No Iterations 41
Gingko init_host_sparsity_pattern : 32 ms
 matrix not stored update host matrix 
Gingko update_host_mtx : 16 ms
matrix is not yet sorted,  sorting host matrix 
Gingko sort_host_mtx_sparsity_pattern : 23 ms
Gingko sort_host_mtx : 12 ms
Gingko init_preconditioner : 0 ms
 get_precond == NULL
Gingko solve : 1 ms
 copy back
 get iters 
nonecudaGKOBiCGStab:  Solving for Uy, Initial residual = 1, Final residual = 0, No Iterations 0
Gingko init_host_sparsity_pattern : 36 ms
 matrix not stored update host matrix 
Gingko update_host_mtx : 17 ms
matrix is not yet sorted,  sorting host matrix 
Gingko sort_host_mtx_sparsity_pattern : 23 ms
Gingko sort_host_mtx : 12 ms
Gingko init_preconditioner : 0 ms
 get_precond == NULL
Gingko solve : 3 ms
 copy back
 get iters 
nonecudaGKOBiCGStab:  Solving for Uz, Initial residual = 0, Final residual = 0, No Iterations 0
Gingko init_host_sparsity_pattern : 32 ms
 matrix not stored update host matrix 
Gingko update_host_mtx : 16 ms
matrix is not yet sorted,  sorting host matrix 
Gingko sort_host_mtx_sparsity_pattern : 23 ms
Gingko sort_host_mtx : 12 ms
Gingko init_preconditioner : 0 ms
 get_precond == NULL
Gingko solve : 131 ms
 copy back
 get iters 
nonecudaGKOBiCGStab:  Solving for p, Initial residual = 0, Final residual = 7.52858e-07, No Iterations 370
time step continuity errors : sum local = 2.47909e-09, global = -4.56604e-22, cumulative = -4.56604e-22
Gingko init_preconditioner : 0 ms
 get_precond == NULL
Gingko solve : 119 ms
 copy back
 get iters 
nonecudaGKOBiCGStab:  Solving for p, Initial residual = 1, Final residual = 3.66751e-07, No Iterations 349
time step continuity errors : sum local = 1.60122e-09, global = -2.90053e-20, cumulative = -2.94619e-20
ExecutionTime = 2.98 s  ClockTime = 3 s

Time = 0.004

Courant Number mean: 0.0720722 max: 0.726639
Gingko init_host_sparsity_pattern : 32 ms
 matrix not stored update host matrix 
Gingko update_host_mtx : 16 ms
matrix is not yet sorted,  sorting host matrix 
Gingko sort_host_mtx_sparsity_pattern : 21 ms
Gingko sort_host_mtx : 12 ms
Gingko init_preconditioner : 0 ms
 get_precond == NULL
Gingko solve : 16 ms
 copy back
 get iters 
nonecudaGKOBiCGStab:  Solving for Ux, Initial residual = 0.721585, Final residual = 7.45404e-07, No Iterations 39
Gingko init_host_sparsity_pattern : 33 ms
 matrix not stored update host matrix 
Gingko update_host_mtx : 16 ms
matrix is not yet sorted,  sorting host matrix 
Gingko sort_host_mtx_sparsity_pattern : 21 ms
Gingko sort_host_mtx : 12 ms
Gingko init_preconditioner : 0 ms
 get_precond == NULL
Gingko solve : 16 ms
 copy back
 get iters 
nonecudaGKOBiCGStab:  Solving for Uy, Initial residual = 0.203465, Final residual = 5.49961e-07, No Iterations 41
Gingko init_host_sparsity_pattern : 32 ms
 matrix not stored update host matrix 
Gingko update_host_mtx : 16 ms
matrix is not yet sorted,  sorting host matrix 
Gingko sort_host_mtx_sparsity_pattern : 21 ms
Gingko sort_host_mtx : 12 ms
Gingko init_preconditioner : 0 ms
 get_precond == NULL
Gingko solve : 16 ms
 copy back
 get iters 
nonecudaGKOBiCGStab:  Solving for Uz, Initial residual = 0.61843, Final residual = 7.15298e-07, No Iterations 41
Gingko init_preconditioner : 0 ms
 get_precond == NULL
Gingko solve : 117 ms
 copy back
 get iters 
nonecudaGKOBiCGStab:  Solving for p, Initial residual = 0.536269, Final residual = 7.85041e-07, No Iterations 346
time step continuity errors : sum local = 3.72314e-09, global = -8.27493e-21, cumulative = -3.77369e-20
Gingko init_preconditioner : 0 ms
 get_precond == NULL
Gingko solve : 117 ms
 copy back
 get iters 
nonecudaGKOBiCGStab:  Solving for p, Initial residual = 0.673318, Final residual = 5.92494e-08, No Iterations 345
time step continuity errors : sum local = 2.06585e-10, global = -1.30212e-20, cumulative = -5.0758e-20
ExecutionTime = 3.63 s  ClockTime = 4 s

Time = 0.006

Courant Number mean: 0.107408 max: 0.881754
Gingko init_host_sparsity_pattern : 32 ms
 matrix not stored update host matrix 
Gingko update_host_mtx : 16 ms
matrix is not yet sorted,  sorting host matrix 
Gingko sort_host_mtx_sparsity_pattern : 21 ms
Gingko sort_host_mtx : 12 ms
Gingko init_preconditioner : 0 ms
 get_precond == NULL
Gingko solve : 13 ms
 copy back
 get iters 
nonecudaGKOBiCGStab:  Solving for Ux, Initial residual = 0.598889, Final residual = 9.77483e-07, No Iterations 35
Gingko init_host_sparsity_pattern : 32 ms
 matrix not stored update host matrix 
Gingko update_host_mtx : 15 ms
matrix is not yet sorted,  sorting host matrix 
Gingko sort_host_mtx_sparsity_pattern : 21 ms
Gingko sort_host_mtx : 12 ms
Gingko init_preconditioner : 0 ms
 get_precond == NULL
Gingko solve : 15 ms
 copy back
 get iters 
nonecudaGKOBiCGStab:  Solving for Uy, Initial residual = 0.099571, Final residual = 9.70569e-07, No Iterations 37
Gingko init_host_sparsity_pattern : 32 ms
 matrix not stored update host matrix 
Gingko update_host_mtx : 15 ms
matrix is not yet sorted,  sorting host matrix 
Gingko sort_host_mtx_sparsity_pattern : 21 ms
Gingko sort_host_mtx : 12 ms
Gingko init_preconditioner : 0 ms
 get_precond == NULL
Gingko solve : 16 ms
 copy back
 get iters 
nonecudaGKOBiCGStab:  Solving for Uz, Initial residual = 0.249963, Final residual = 9.01398e-07, No Iterations 40
Gingko init_preconditioner : 0 ms
 get_precond == NULL
Gingko solve : 121 ms
 copy back
 get iters 
nonecudaGKOBiCGStab:  Solving for p, Initial residual = 0.541074, Final residual = 9.43261e-07, No Iterations 356
time step continuity errors : sum local = 3.21199e-09, global = -1.65031e-20, cumulative = -6.72611e-20
Gingko init_preconditioner : 0 ms
 get_precond == NULL
Gingko solve : 121 ms
 copy back
 get iters 
nonecudaGKOBiCGStab:  Solving for p, Initial residual = 0.606888, Final residual = 6.51087e-07, No Iterations 355
time step continuity errors : sum local = 1.15115e-09, global = 3.41915e-20, cumulative = -3.30696e-20
ExecutionTime = 4.27 s  ClockTime = 4 s

Time = 0.008

Courant Number mean: 0.123244 max: 0.890102
Gingko init_host_sparsity_pattern : 32 ms
 matrix not stored update host matrix 
Gingko update_host_mtx : 17 ms
matrix is not yet sorted,  sorting host matrix 
Gingko sort_host_mtx_sparsity_pattern : 23 ms
Gingko sort_host_mtx : 12 ms
Gingko init_preconditioner : 0 ms
 get_precond == NULL
Gingko solve : 13 ms
 copy back
 get iters 
nonecudaGKOBiCGStab:  Solving for Ux, Initial residual = 0.56084, Final residual = 8.32404e-07, No Iterations 31
Gingko init_host_sparsity_pattern : 32 ms
 matrix not stored update host matrix 
Gingko update_host_mtx : 16 ms
matrix is not yet sorted,  sorting host matrix 
Gingko sort_host_mtx_sparsity_pattern : 21 ms
Gingko sort_host_mtx : 12 ms
Gingko init_preconditioner : 0 ms
 get_precond == NULL
Gingko solve : 15 ms
 copy back
 get iters 
nonecudaGKOBiCGStab:  Solving for Uy, Initial residual = 0.0341438, Final residual = 9.05297e-07, No Iterations 36
Gingko init_host_sparsity_pattern : 35 ms
 matrix not stored update host matrix 
Gingko update_host_mtx : 17 ms
matrix is not yet sorted,  sorting host matrix 
Gingko sort_host_mtx_sparsity_pattern : 21 ms
Gingko sort_host_mtx : 12 ms
Gingko init_preconditioner : 0 ms
 get_precond == NULL
Gingko solve : 16 ms
 copy back
 get iters 
nonecudaGKOBiCGStab:  Solving for Uz, Initial residual = 0.13238, Final residual = 8.98839e-07, No Iterations 39
Gingko init_preconditioner : 0 ms
 get_precond == NULL
Gingko solve : 128 ms
 copy back
 get iters 
nonecudaGKOBiCGStab:  Solving for p, Initial residual = 0.472126, Final residual = 8.79814e-07, No Iterations 379
time step continuity errors : sum local = 2.77801e-09, global = 5.77144e-21, cumulative = -2.72982e-20
Gingko init_preconditioner : 0 ms
 get_precond == NULL
Gingko solve : 82 ms
 copy back
 get iters 
nonecudaGKOBiCGStab:  Solving for p, Initial residual = 0.423043, Final residual = 9.95759e-07, No Iterations 241
time step continuity errors : sum local = 3.17501e-09, global = 1.13235e-20, cumulative = -1.59747e-20
ExecutionTime = 4.9 s  ClockTime = 5 s

Time = 0.01

Courant Number mean: 0.136096 max: 0.906943
Gingko init_host_sparsity_pattern : 32 ms
 matrix not stored update host matrix 
Gingko update_host_mtx : 15 ms
matrix is not yet sorted,  sorting host matrix 
Gingko sort_host_mtx_sparsity_pattern : 21 ms
Gingko sort_host_mtx : 12 ms
Gingko init_preconditioner : 0 ms
 get_precond == NULL
Gingko solve : 13 ms
 copy back
 get iters 
nonecudaGKOBiCGStab:  Solving for Ux, Initial residual = 0.368385, Final residual = 9.71874e-07, No Iterations 29
Gingko init_host_sparsity_pattern : 32 ms
 matrix not stored update host matrix 
Gingko update_host_mtx : 16 ms
matrix is not yet sorted,  sorting host matrix 
Gingko sort_host_mtx_sparsity_pattern : 21 ms
Gingko sort_host_mtx : 12 ms
Gingko init_preconditioner : 0 ms
 get_precond == NULL
Gingko solve : 15 ms
 copy back
 get iters 
nonecudaGKOBiCGStab:  Solving for Uy, Initial residual = 0.0230728, Final residual = 8.27129e-07, No Iterations 32
Gingko init_host_sparsity_pattern : 32 ms
 matrix not stored update host matrix 
Gingko update_host_mtx : 15 ms
matrix is not yet sorted,  sorting host matrix 
Gingko sort_host_mtx_sparsity_pattern : 21 ms
Gingko sort_host_mtx : 12 ms
Gingko init_preconditioner : 0 ms
 get_precond == NULL
Gingko solve : 14 ms
 copy back
 get iters 
nonecudaGKOBiCGStab:  Solving for Uz, Initial residual = 0.0484162, Final residual = 9.75977e-07, No Iterations 35
Gingko init_preconditioner : 0 ms
 get_precond == NULL
Gingko solve : 118 ms
 copy back
 get iters 
nonecudaGKOBiCGStab:  Solving for p, Initial residual = 0.158971, Final residual = 8.64587e-07, No Iterations 347
time step continuity errors : sum local = 2.36189e-09, global = 3.4883e-20, cumulative = 1.89083e-20
Gingko init_preconditioner : 0 ms
 get_precond == NULL
Gingko solve : 112 ms
 copy back
 get iters 
nonecudaGKOBiCGStab:  Solving for p, Initial residual = 0.361662, Final residual = 3.31031e-07, No Iterations 331
time step continuity errors : sum local = 8.71903e-10, global = 9.96306e-21, cumulative = 2.88714e-20
ExecutionTime = 5.53 s  ClockTime = 6 s

End

