/*---------------------------------------------------------------------------*\
  =========                 |
  \\      /  F ield         | OpenFOAM: The Open Source CFD Toolbox
   \\    /   O peration     | Website:  https://openfoam.org
    \\  /    A nd           | Version:  8
     \\/     M anipulation  |
\*---------------------------------------------------------------------------*/
Build  : 8-13d66902f78c
Exec   : icoFoam
Date   : Jun 28 2021
Time   : 13:17:28
Host   : "uc2n513.localdomain"
PID    : 3581170
I/O    : uncollated
Case   : /pfs/data5/home/kit/scc/nq7776/code/OGL_DATA/lidDrivenCavity3D/v0.1-119-gd926e8b/f584ccac99/TeslaV100-SXM2-32GB/Test_2021-06-28-13:16:00/50/p-U-CG-GKO-none-cuda/lidDrivenCavity3D
nProcs : 1
sigFpe : Enabling floating point exception trapping (FOAM_SIGFPE).
fileModificationChecking : Monitoring run-time modified files using timeStampMaster (fileModificationSkew 10)
allowSystemOperations : Allowing user-supplied system call operations

// * * * * * * * * * * * * * * * * * * * * * * * * * * * * * * * * * * * * * //
Create time

Create mesh for time = 0

Reading transportProperties

Reading field p

Reading field U

Reading/calculating face flux field phi


Starting time loop

Time = 0.002

Courant Number mean: 0 max: 0
Gingko init_host_sparsity_pattern : 33 ms
 matrix not stored update host matrix 
Gingko update_host_mtx : 18 ms
matrix is not yet sorted, compute sorting idxs 
 compute sorting idxs 860000
Gingko compute_sort : 1019 ms
matrix is not yet sorted,  sorting host matrix 
Gingko sort_host_mtx_sparsity_pattern : 23 ms
Gingko sort_host_mtx : 14 ms
Gingko init_preconditioner : 0 ms
 get_precond == NULL
Gingko solve : 16 ms
 copy back
 get iters 
nonecudaGKOBiCGStab:  Solving for Ux, Initial residual = 0, Final residual = 8.71159e-07, No Iterations 41
Gingko init_host_sparsity_pattern : 32 ms
 matrix not stored update host matrix 
Gingko update_host_mtx : 18 ms
matrix is not yet sorted,  sorting host matrix 
Gingko sort_host_mtx_sparsity_pattern : 23 ms
Gingko sort_host_mtx : 14 ms
Gingko init_preconditioner : 0 ms
 get_precond == NULL
Gingko solve : 2 ms
 copy back
 get iters 
nonecudaGKOBiCGStab:  Solving for Uy, Initial residual = 1, Final residual = 0, No Iterations 0
Gingko init_host_sparsity_pattern : 33 ms
 matrix not stored update host matrix 
Gingko update_host_mtx : 17 ms
matrix is not yet sorted,  sorting host matrix 
Gingko sort_host_mtx_sparsity_pattern : 23 ms
Gingko sort_host_mtx : 13 ms
Gingko init_preconditioner : 0 ms
 get_precond == NULL
Gingko solve : 1 ms
 copy back
 get iters 
nonecudaGKOBiCGStab:  Solving for Uz, Initial residual = 0, Final residual = 0, No Iterations 0
Gingko init_host_sparsity_pattern : 32 ms
 matrix not stored update host matrix 
Gingko update_host_mtx : 16 ms
matrix is not yet sorted,  sorting host matrix 
Gingko sort_host_mtx_sparsity_pattern : 21 ms
Gingko sort_host_mtx : 12 ms
Gingko init_preconditioner : 0 ms
 get_precond == NULL
Gingko solve : 75 ms
 copy back
 get iters 
nonecudaGKOCG:  Solving for p, Initial residual = 0, Final residual = 9.02341e-07, No Iterations 444
time step continuity errors : sum local = 1.48578e-09, global = 8.40517e-21, cumulative = 8.40517e-21
Gingko init_preconditioner : 0 ms
 get_precond == NULL
Gingko solve : 74 ms
 copy back
 get iters 
nonecudaGKOCG:  Solving for p, Initial residual = 1, Final residual = 9.40831e-07, No Iterations 440
time step continuity errors : sum local = 2.05398e-09, global = -2.69821e-20, cumulative = -1.85769e-20
ExecutionTime = 2.89 s  ClockTime = 2 s

Time = 0.004

Courant Number mean: 0.0720722 max: 0.726639
Gingko init_host_sparsity_pattern : 34 ms
 matrix not stored update host matrix 
Gingko update_host_mtx : 17 ms
matrix is not yet sorted,  sorting host matrix 
Gingko sort_host_mtx_sparsity_pattern : 24 ms
Gingko sort_host_mtx : 12 ms
Gingko init_preconditioner : 0 ms
 get_precond == NULL
Gingko solve : 15 ms
 copy back
 get iters 
nonecudaGKOBiCGStab:  Solving for Ux, Initial residual = 0.721582, Final residual = 9.62285e-07, No Iterations 39
Gingko init_host_sparsity_pattern : 32 ms
 matrix not stored update host matrix 
Gingko update_host_mtx : 16 ms
matrix is not yet sorted,  sorting host matrix 
Gingko sort_host_mtx_sparsity_pattern : 21 ms
Gingko sort_host_mtx : 12 ms
Gingko init_preconditioner : 0 ms
 get_precond == NULL
Gingko solve : 16 ms
 copy back
 get iters 
nonecudaGKOBiCGStab:  Solving for Uy, Initial residual = 0.203465, Final residual = 9.83276e-07, No Iterations 42
Gingko init_host_sparsity_pattern : 32 ms
 matrix not stored update host matrix 
Gingko update_host_mtx : 16 ms
matrix is not yet sorted,  sorting host matrix 
Gingko sort_host_mtx_sparsity_pattern : 21 ms
Gingko sort_host_mtx : 12 ms
Gingko init_preconditioner : 0 ms
 get_precond == NULL
Gingko solve : 15 ms
 copy back
 get iters 
nonecudaGKOBiCGStab:  Solving for Uz, Initial residual = 0.618431, Final residual = 7.35613e-07, No Iterations 40
Gingko init_preconditioner : 0 ms
 get_precond == NULL
Gingko solve : 73 ms
 copy back
 get iters 
nonecudaGKOCG:  Solving for p, Initial residual = 0.536264, Final residual = 9.94975e-07, No Iterations 433
time step continuity errors : sum local = 2.35995e-09, global = 3.36301e-20, cumulative = 1.50532e-20
Gingko init_preconditioner : 0 ms
 get_precond == NULL
Gingko solve : 73 ms
 copy back
 get iters 
nonecudaGKOCG:  Solving for p, Initial residual = 0.673318, Final residual = 9.77088e-07, No Iterations 433
time step continuity errors : sum local = 2.37859e-09, global = -1.45313e-20, cumulative = 5.21924e-22
ExecutionTime = 3.45 s  ClockTime = 3 s

Time = 0.006

Courant Number mean: 0.107408 max: 0.881754
Gingko init_host_sparsity_pattern : 34 ms
 matrix not stored update host matrix 
Gingko update_host_mtx : 16 ms
matrix is not yet sorted,  sorting host matrix 
Gingko sort_host_mtx_sparsity_pattern : 22 ms
Gingko sort_host_mtx : 12 ms
Gingko init_preconditioner : 0 ms
 get_precond == NULL
Gingko solve : 14 ms
 copy back
 get iters 
nonecudaGKOBiCGStab:  Solving for Ux, Initial residual = 0.598888, Final residual = 9.77367e-07, No Iterations 35
Gingko init_host_sparsity_pattern : 33 ms
 matrix not stored update host matrix 
Gingko update_host_mtx : 16 ms
matrix is not yet sorted,  sorting host matrix 
Gingko sort_host_mtx_sparsity_pattern : 21 ms
Gingko sort_host_mtx : 13 ms
Gingko init_preconditioner : 0 ms
 get_precond == NULL
Gingko solve : 15 ms
 copy back
 get iters 
nonecudaGKOBiCGStab:  Solving for Uy, Initial residual = 0.0995685, Final residual = 9.87352e-07, No Iterations 38
Gingko init_host_sparsity_pattern : 34 ms
 matrix not stored update host matrix 
Gingko update_host_mtx : 16 ms
matrix is not yet sorted,  sorting host matrix 
Gingko sort_host_mtx_sparsity_pattern : 21 ms
Gingko sort_host_mtx : 12 ms
Gingko init_preconditioner : 0 ms
 get_precond == NULL
Gingko solve : 16 ms
 copy back
 get iters 
nonecudaGKOBiCGStab:  Solving for Uz, Initial residual = 0.249971, Final residual = 9.02554e-07, No Iterations 40
Gingko init_preconditioner : 0 ms
 get_precond == NULL
Gingko solve : 74 ms
 copy back
 get iters 
nonecudaGKOCG:  Solving for p, Initial residual = 0.540965, Final residual = 9.97596e-07, No Iterations 436
time step continuity errors : sum local = 1.69874e-09, global = 1.19737e-20, cumulative = 1.24956e-20
Gingko init_preconditioner : 0 ms
 get_precond == NULL
Gingko solve : 75 ms
 copy back
 get iters 
nonecudaGKOCG:  Solving for p, Initial residual = 0.606885, Final residual = 9.50793e-07, No Iterations 436
time step continuity errors : sum local = 1.56502e-09, global = -5.55131e-21, cumulative = 6.94434e-21
ExecutionTime = 4.01 s  ClockTime = 4 s

Time = 0.008

Courant Number mean: 0.123244 max: 0.890102
Gingko init_host_sparsity_pattern : 33 ms
 matrix not stored update host matrix 
Gingko update_host_mtx : 17 ms
matrix is not yet sorted,  sorting host matrix 
Gingko sort_host_mtx_sparsity_pattern : 23 ms
Gingko sort_host_mtx : 12 ms
Gingko init_preconditioner : 0 ms
 get_precond == NULL
Gingko solve : 12 ms
 copy back
 get iters 
nonecudaGKOBiCGStab:  Solving for Ux, Initial residual = 0.560841, Final residual = 8.32615e-07, No Iterations 31
Gingko init_host_sparsity_pattern : 32 ms
 matrix not stored update host matrix 
Gingko update_host_mtx : 16 ms
matrix is not yet sorted,  sorting host matrix 
Gingko sort_host_mtx_sparsity_pattern : 21 ms
Gingko sort_host_mtx : 12 ms
Gingko init_preconditioner : 0 ms
 get_precond == NULL
Gingko solve : 14 ms
 copy back
 get iters 
nonecudaGKOBiCGStab:  Solving for Uy, Initial residual = 0.0341422, Final residual = 6.4413e-07, No Iterations 37
Gingko init_host_sparsity_pattern : 35 ms
 matrix not stored update host matrix 
Gingko update_host_mtx : 16 ms
matrix is not yet sorted,  sorting host matrix 
Gingko sort_host_mtx_sparsity_pattern : 21 ms
Gingko sort_host_mtx : 12 ms
Gingko init_preconditioner : 0 ms
 get_precond == NULL
Gingko solve : 15 ms
 copy back
 get iters 
nonecudaGKOBiCGStab:  Solving for Uz, Initial residual = 0.132381, Final residual = 5.79218e-07, No Iterations 39
Gingko init_preconditioner : 0 ms
 get_precond == NULL
Gingko solve : 71 ms
 copy back
 get iters 
nonecudaGKOCG:  Solving for p, Initial residual = 0.47196, Final residual = 9.20384e-07, No Iterations 435
time step continuity errors : sum local = 1.45319e-09, global = -8.6372e-21, cumulative = -1.69287e-21
Gingko init_preconditioner : 0 ms
 get_precond == NULL
Gingko solve : 70 ms
 copy back
 get iters 
nonecudaGKOCG:  Solving for p, Initial residual = 0.423037, Final residual = 9.75565e-07, No Iterations 433
time step continuity errors : sum local = 1.56258e-09, global = -4.53918e-20, cumulative = -4.70847e-20
ExecutionTime = 4.55 s  ClockTime = 4 s

Time = 0.01

Courant Number mean: 0.136096 max: 0.906942
Gingko init_host_sparsity_pattern : 32 ms
 matrix not stored update host matrix 
Gingko update_host_mtx : 15 ms
matrix is not yet sorted,  sorting host matrix 
Gingko sort_host_mtx_sparsity_pattern : 23 ms
Gingko sort_host_mtx : 13 ms
Gingko init_preconditioner : 0 ms
 get_precond == NULL
Gingko solve : 12 ms
 copy back
 get iters 
nonecudaGKOBiCGStab:  Solving for Ux, Initial residual = 0.368377, Final residual = 9.69669e-07, No Iterations 29
Gingko init_host_sparsity_pattern : 32 ms
 matrix not stored update host matrix 
Gingko update_host_mtx : 15 ms
matrix is not yet sorted,  sorting host matrix 
Gingko sort_host_mtx_sparsity_pattern : 21 ms
Gingko sort_host_mtx : 12 ms
Gingko init_preconditioner : 0 ms
 get_precond == NULL
Gingko solve : 12 ms
 copy back
 get iters 
nonecudaGKOBiCGStab:  Solving for Uy, Initial residual = 0.0230737, Final residual = 8.22122e-07, No Iterations 32
Gingko init_host_sparsity_pattern : 33 ms
 matrix not stored update host matrix 
Gingko update_host_mtx : 16 ms
matrix is not yet sorted,  sorting host matrix 
Gingko sort_host_mtx_sparsity_pattern : 22 ms
Gingko sort_host_mtx : 12 ms
Gingko init_preconditioner : 0 ms
 get_precond == NULL
Gingko solve : 14 ms
 copy back
 get iters 
nonecudaGKOBiCGStab:  Solving for Uz, Initial residual = 0.0484113, Final residual = 9.86664e-07, No Iterations 35
Gingko init_preconditioner : 0 ms
 get_precond == NULL
Gingko solve : 71 ms
 copy back
 get iters 
nonecudaGKOCG:  Solving for p, Initial residual = 0.159034, Final residual = 9.99557e-07, No Iterations 433
time step continuity errors : sum local = 1.36572e-09, global = 2.24507e-21, cumulative = -4.48396e-20
Gingko init_preconditioner : 0 ms
 get_precond == NULL
Gingko solve : 71 ms
 copy back
 get iters 
nonecudaGKOCG:  Solving for p, Initial residual = 0.361665, Final residual = 9.48091e-07, No Iterations 433
time step continuity errors : sum local = 1.28382e-09, global = 2.32615e-21, cumulative = -4.25135e-20
ExecutionTime = 5.09 s  ClockTime = 5 s

End

