/*---------------------------------------------------------------------------*\
  =========                 |
  \\      /  F ield         | OpenFOAM: The Open Source CFD Toolbox
   \\    /   O peration     | Website:  https://openfoam.org
    \\  /    A nd           | Version:  8
     \\/     M anipulation  |
\*---------------------------------------------------------------------------*/
Build  : 8-13d66902f78c
Exec   : icoFoam
Date   : Jun 28 2021
Time   : 13:28:58
Host   : "uc2n513.localdomain"
PID    : 3594966
I/O    : uncollated
Case   : /pfs/data5/home/kit/scc/nq7776/code/OGL_DATA/lidDrivenCavity3D/v0.1-119-gd926e8b/f584ccac99/TeslaV100-SXM2-32GB/Test_2021-06-28-13:27:38/50/p-U-CG-GKO-BJ-cuda/lidDrivenCavity3D
nProcs : 1
sigFpe : Enabling floating point exception trapping (FOAM_SIGFPE).
fileModificationChecking : Monitoring run-time modified files using timeStampMaster (fileModificationSkew 10)
allowSystemOperations : Allowing user-supplied system call operations

// * * * * * * * * * * * * * * * * * * * * * * * * * * * * * * * * * * * * * //
Create time

Create mesh for time = 0

Reading transportProperties

Reading field p

Reading field U

Reading/calculating face flux field phi


Starting time loop

Time = 0.002

Courant Number mean: 0 max: 0
Gingko init_host_sparsity_pattern : 34 ms
 matrix not stored update host matrix 
Gingko update_host_mtx : 18 ms
matrix is not yet sorted, compute sorting idxs 
 compute sorting idxs 860000
Gingko compute_sort : 1011 ms
matrix is not yet sorted,  sorting host matrix 
Gingko sort_host_mtx_sparsity_pattern : 22 ms
Gingko sort_host_mtx : 14 ms
Gingko init_preconditioner : 16 ms
Gingko solve : 15 ms
 copy back
 get iters 
BJcudaGKOBiCGStab:  Solving for Ux, Initial residual = 0, Final residual = 8.40984e-07, No Iterations 31
Gingko init_host_sparsity_pattern : 34 ms
 matrix not stored update host matrix 
Gingko update_host_mtx : 18 ms
matrix is not yet sorted,  sorting host matrix 
Gingko sort_host_mtx_sparsity_pattern : 25 ms
Gingko sort_host_mtx : 12 ms
Gingko init_preconditioner : 16 ms
Gingko solve : 3 ms
 copy back
 get iters 
BJcudaGKOBiCGStab:  Solving for Uy, Initial residual = 1, Final residual = 0, No Iterations 0
Gingko init_host_sparsity_pattern : 32 ms
 matrix not stored update host matrix 
Gingko update_host_mtx : 16 ms
matrix is not yet sorted,  sorting host matrix 
Gingko sort_host_mtx_sparsity_pattern : 21 ms
Gingko sort_host_mtx : 12 ms
Gingko init_preconditioner : 16 ms
Gingko solve : 3 ms
 copy back
 get iters 
BJcudaGKOBiCGStab:  Solving for Uz, Initial residual = 0, Final residual = 0, No Iterations 0
Gingko init_host_sparsity_pattern : 33 ms
 matrix not stored update host matrix 
Gingko update_host_mtx : 16 ms
matrix is not yet sorted,  sorting host matrix 
Gingko sort_host_mtx_sparsity_pattern : 22 ms
Gingko sort_host_mtx : 14 ms
Gingko init_preconditioner : 16 ms
 CG create  precond 
Gingko solve : 82 ms
 copy back
 get iters 
BJcudaGKOCG:  Solving for p, Initial residual = 0, Final residual = 9.57567e-07, No Iterations 404
time step continuity errors : sum local = 1.57675e-09, global = 6.09337e-21, cumulative = 6.09337e-21
 found preconditioner 
Gingko init_preconditioner : 0 ms
 CG create  precond 
Gingko solve : 78 ms
 copy back
 get iters 
BJcudaGKOCG:  Solving for p, Initial residual = 1, Final residual = 9.47225e-07, No Iterations 385
time step continuity errors : sum local = 2.06793e-09, global = 1.9562e-20, cumulative = 2.56554e-20
ExecutionTime = 2.98 s  ClockTime = 3 s

Time = 0.004

Courant Number mean: 0.0720722 max: 0.726639
Gingko init_host_sparsity_pattern : 34 ms
 matrix not stored update host matrix 
Gingko update_host_mtx : 16 ms
matrix is not yet sorted,  sorting host matrix 
Gingko sort_host_mtx_sparsity_pattern : 21 ms
Gingko sort_host_mtx : 12 ms
 found preconditioner 
Gingko init_preconditioner : 0 ms
Gingko solve : 10 ms
 copy back
 get iters 
BJcudaGKOBiCGStab:  Solving for Ux, Initial residual = 0.721582, Final residual = 5.57062e-07, No Iterations 23
Gingko init_host_sparsity_pattern : 33 ms
 matrix not stored update host matrix 
Gingko update_host_mtx : 16 ms
matrix is not yet sorted,  sorting host matrix 
Gingko sort_host_mtx_sparsity_pattern : 21 ms
Gingko sort_host_mtx : 12 ms
 found preconditioner 
Gingko init_preconditioner : 0 ms
Gingko solve : 14 ms
 copy back
 get iters 
BJcudaGKOBiCGStab:  Solving for Uy, Initial residual = 0.203465, Final residual = 9.29072e-07, No Iterations 32
Gingko init_host_sparsity_pattern : 33 ms
 matrix not stored update host matrix 
Gingko update_host_mtx : 16 ms
matrix is not yet sorted,  sorting host matrix 
Gingko sort_host_mtx_sparsity_pattern : 21 ms
Gingko sort_host_mtx : 12 ms
 found preconditioner 
Gingko init_preconditioner : 0 ms
Gingko solve : 13 ms
 copy back
 get iters 
BJcudaGKOBiCGStab:  Solving for Uz, Initial residual = 0.618431, Final residual = 9.88659e-07, No Iterations 31
 found preconditioner 
Gingko init_preconditioner : 0 ms
 CG create  precond 
Gingko solve : 74 ms
 copy back
 get iters 
BJcudaGKOCG:  Solving for p, Initial residual = 0.536265, Final residual = 9.36099e-07, No Iterations 377
time step continuity errors : sum local = 2.21993e-09, global = -2.23594e-21, cumulative = 2.34194e-20
 found preconditioner 
Gingko init_preconditioner : 0 ms
 CG create  precond 
Gingko solve : 72 ms
 copy back
 get iters 
BJcudaGKOCG:  Solving for p, Initial residual = 0.673318, Final residual = 9.48315e-07, No Iterations 376
time step continuity errors : sum local = 2.30818e-09, global = -2.16974e-20, cumulative = 1.72199e-21
ExecutionTime = 3.53 s  ClockTime = 4 s

Time = 0.006

Courant Number mean: 0.107408 max: 0.881754
Gingko init_host_sparsity_pattern : 33 ms
 matrix not stored update host matrix 
Gingko update_host_mtx : 16 ms
matrix is not yet sorted,  sorting host matrix 
Gingko sort_host_mtx_sparsity_pattern : 21 ms
Gingko sort_host_mtx : 12 ms
 found preconditioner 
Gingko init_preconditioner : 0 ms
Gingko solve : 10 ms
 copy back
 get iters 
BJcudaGKOBiCGStab:  Solving for Ux, Initial residual = 0.598888, Final residual = 7.01368e-07, No Iterations 21
Gingko init_host_sparsity_pattern : 33 ms
 matrix not stored update host matrix 
Gingko update_host_mtx : 16 ms
matrix is not yet sorted,  sorting host matrix 
Gingko sort_host_mtx_sparsity_pattern : 21 ms
Gingko sort_host_mtx : 13 ms
 found preconditioner 
Gingko init_preconditioner : 0 ms
Gingko solve : 13 ms
 copy back
 get iters 
BJcudaGKOBiCGStab:  Solving for Uy, Initial residual = 0.0995685, Final residual = 8.20357e-07, No Iterations 29
Gingko init_host_sparsity_pattern : 33 ms
 matrix not stored update host matrix 
Gingko update_host_mtx : 16 ms
matrix is not yet sorted,  sorting host matrix 
Gingko sort_host_mtx_sparsity_pattern : 22 ms
Gingko sort_host_mtx : 13 ms
 found preconditioner 
Gingko init_preconditioner : 0 ms
Gingko solve : 14 ms
 copy back
 get iters 
BJcudaGKOBiCGStab:  Solving for Uz, Initial residual = 0.249969, Final residual = 8.84579e-07, No Iterations 32
 found preconditioner 
Gingko init_preconditioner : 0 ms
 CG create  precond 
Gingko solve : 80 ms
 copy back
 get iters 
BJcudaGKOCG:  Solving for p, Initial residual = 0.540951, Final residual = 9.38925e-07, No Iterations 408
time step continuity errors : sum local = 1.5988e-09, global = 2.20921e-21, cumulative = 3.93121e-21
 found preconditioner 
Gingko init_preconditioner : 0 ms
 CG create  precond 
Gingko solve : 78 ms
 copy back
 get iters 
BJcudaGKOCG:  Solving for p, Initial residual = 0.606888, Final residual = 9.19105e-07, No Iterations 407
time step continuity errors : sum local = 1.51282e-09, global = 3.40199e-20, cumulative = 3.79511e-20
ExecutionTime = 4.08 s  ClockTime = 4 s

Time = 0.008

Courant Number mean: 0.123244 max: 0.890102
Gingko init_host_sparsity_pattern : 35 ms
 matrix not stored update host matrix 
Gingko update_host_mtx : 18 ms
matrix is not yet sorted,  sorting host matrix 
Gingko sort_host_mtx_sparsity_pattern : 22 ms
Gingko sort_host_mtx : 13 ms
 found preconditioner 
Gingko init_preconditioner : 0 ms
Gingko solve : 11 ms
 copy back
 get iters 
BJcudaGKOBiCGStab:  Solving for Ux, Initial residual = 0.560844, Final residual = 7.6866e-07, No Iterations 25
Gingko init_host_sparsity_pattern : 34 ms
 matrix not stored update host matrix 
Gingko update_host_mtx : 17 ms
matrix is not yet sorted,  sorting host matrix 
Gingko sort_host_mtx_sparsity_pattern : 22 ms
Gingko sort_host_mtx : 13 ms
 found preconditioner 
Gingko init_preconditioner : 0 ms
Gingko solve : 12 ms
 copy back
 get iters 
BJcudaGKOBiCGStab:  Solving for Uy, Initial residual = 0.0341424, Final residual = 8.14547e-07, No Iterations 28
Gingko init_host_sparsity_pattern : 32 ms
 matrix not stored update host matrix 
Gingko update_host_mtx : 16 ms
matrix is not yet sorted,  sorting host matrix 
Gingko sort_host_mtx_sparsity_pattern : 21 ms
Gingko sort_host_mtx : 12 ms
 found preconditioner 
Gingko init_preconditioner : 0 ms
Gingko solve : 13 ms
 copy back
 get iters 
BJcudaGKOBiCGStab:  Solving for Uz, Initial residual = 0.13238, Final residual = 9.2748e-07, No Iterations 31
 found preconditioner 
Gingko init_preconditioner : 0 ms
 CG create  precond 
Gingko solve : 78 ms
 copy back
 get iters 
BJcudaGKOCG:  Solving for p, Initial residual = 0.471954, Final residual = 9.07276e-07, No Iterations 403
time step continuity errors : sum local = 1.43248e-09, global = -3.10761e-20, cumulative = 6.87496e-21
 found preconditioner 
Gingko init_preconditioner : 0 ms
 CG create  precond 
Gingko solve : 77 ms
 copy back
 get iters 
BJcudaGKOCG:  Solving for p, Initial residual = 0.42304, Final residual = 9.22103e-07, No Iterations 402
time step continuity errors : sum local = 1.47703e-09, global = 8.59482e-21, cumulative = 1.54698e-20
ExecutionTime = 4.64 s  ClockTime = 5 s

Time = 0.01

Courant Number mean: 0.136096 max: 0.906942
Gingko init_host_sparsity_pattern : 34 ms
 matrix not stored update host matrix 
Gingko update_host_mtx : 16 ms
matrix is not yet sorted,  sorting host matrix 
Gingko sort_host_mtx_sparsity_pattern : 22 ms
Gingko sort_host_mtx : 12 ms
 found preconditioner 
Gingko init_preconditioner : 0 ms
Gingko solve : 10 ms
 copy back
 get iters 
BJcudaGKOBiCGStab:  Solving for Ux, Initial residual = 0.36838, Final residual = 9.88672e-07, No Iterations 24
Gingko init_host_sparsity_pattern : 32 ms
 matrix not stored update host matrix 
Gingko update_host_mtx : 17 ms
matrix is not yet sorted,  sorting host matrix 
Gingko sort_host_mtx_sparsity_pattern : 25 ms
Gingko sort_host_mtx : 13 ms
 found preconditioner 
Gingko init_preconditioner : 0 ms
Gingko solve : 11 ms
 copy back
 get iters 
BJcudaGKOBiCGStab:  Solving for Uy, Initial residual = 0.0230737, Final residual = 9.75619e-07, No Iterations 25
Gingko init_host_sparsity_pattern : 33 ms
 matrix not stored update host matrix 
Gingko update_host_mtx : 16 ms
matrix is not yet sorted,  sorting host matrix 
Gingko sort_host_mtx_sparsity_pattern : 21 ms
Gingko sort_host_mtx : 12 ms
 found preconditioner 
Gingko init_preconditioner : 0 ms
Gingko solve : 12 ms
 copy back
 get iters 
BJcudaGKOBiCGStab:  Solving for Uz, Initial residual = 0.0484115, Final residual = 8.52158e-07, No Iterations 28
 found preconditioner 
Gingko init_preconditioner : 0 ms
 CG create  precond 
Gingko solve : 72 ms
 copy back
 get iters 
BJcudaGKOCG:  Solving for p, Initial residual = 0.159038, Final residual = 9.87141e-07, No Iterations 381
time step continuity errors : sum local = 1.34863e-09, global = 4.59999e-20, cumulative = 6.14696e-20
 found preconditioner 
Gingko init_preconditioner : 0 ms
 CG create  precond 
Gingko solve : 72 ms
 copy back
 get iters 
BJcudaGKOCG:  Solving for p, Initial residual = 0.361668, Final residual = 9.5779e-07, No Iterations 380
time step continuity errors : sum local = 1.29681e-09, global = -1.73305e-20, cumulative = 4.41391e-20
ExecutionTime = 5.18 s  ClockTime = 5 s

End

