/*---------------------------------------------------------------------------*\
  =========                 |
  \\      /  F ield         | OpenFOAM: The Open Source CFD Toolbox
   \\    /   O peration     | Website:  https://openfoam.org
    \\  /    A nd           | Version:  8
     \\/     M anipulation  |
\*---------------------------------------------------------------------------*/
Build  : 8-13d66902f78c
Exec   : simpleFoam
Date   : Jun 26 2021
Time   : 22:27:33
Host   : "uc2n427.localdomain"
PID    : 1506393
I/O    : uncollated
Case   : /pfs/data5/home/kit/scc/nq7776/code/OGL_DATA/airFoil2D/v0.1-117-g6793da2/f584ccac99/IntelXeonGold6230CPU@2.10GHz/Test_2021-06-26-21:58:00/1/p-BiCGStab-GKO-none-omp/airFoil2D
nProcs : 1
sigFpe : Enabling floating point exception trapping (FOAM_SIGFPE).
fileModificationChecking : Monitoring run-time modified files using timeStampMaster (fileModificationSkew 10)
allowSystemOperations : Allowing user-supplied system call operations

// * * * * * * * * * * * * * * * * * * * * * * * * * * * * * * * * * * * * * //
Create time

Create mesh for time = 0


SIMPLE: Convergence criteria found
        p: tolerance 1e-05
        U: tolerance 1e-05
        nuTilda: tolerance 1e-05

Reading field p

Reading field U

Reading/calculating face flux field phi

Selecting incompressible transport model Newtonian
Selecting turbulence model type RAS
Selecting RAS turbulence model SpalartAllmaras
Selecting patchDistMethod meshWave
RAS
{
    model           SpalartAllmaras;
    turbulence      on;
    printCoeffs     on;
    sigmaNut        0.66666;
    kappa           0.41;
    Cb1             0.1355;
    Cb2             0.622;
    Cw2             0.3;
    Cw3             2;
    Cv1             7.1;
    Cs              0.3;
}

No MRF models present

No finite volume options present

Starting time loop

Time = 1

smoothSolver:  Solving for Ux, Initial residual = 1, Final residual = 0.000531638, No Iterations 14
smoothSolver:  Solving for Uy, Initial residual = 1, Final residual = 0.000467931, No Iterations 14
Gingko init_host_sparsity_pattern : 8 ms
 matrix not stored update host matrix 
Gingko update_host_mtx : 4 ms
matrix is not yet sorted, compute sorting idxs 
 compute sorting idxs 214288
Gingko compute_sort : 230 ms
matrix is not yet sorted,  sorting host matrix 
Gingko sort_host_mtx_sparsity_pattern : 5 ms
Gingko sort_host_mtx : 3 ms
Gingko init_preconditioner : 0 ms
 get_precond == NULL
Gingko solve : 722 ms
 copy back
 get iters 
noneompGKOBiCGStab:  Solving for p, Initial residual = 0.00178455, Final residual = 0.579307, No Iterations 499
time step continuity errors : sum local = 0.00132754, global = -0.000116619, cumulative = -0.000116619
smoothSolver:  Solving for nuTilda, Initial residual = 1, Final residual = 0.0312263, No Iterations 2
ExecutionTime = 47.38 s  ClockTime = 1 s

Time = 2

smoothSolver:  Solving for Ux, Initial residual = 0.418303, Final residual = 0.000358085, No Iterations 10
smoothSolver:  Solving for Uy, Initial residual = 0.456304, Final residual = 0.000386731, No Iterations 10
Gingko init_preconditioner : 0 ms
 get_precond == NULL
Gingko solve : 724 ms
 copy back
 get iters 
noneompGKOBiCGStab:  Solving for p, Initial residual = 1, Final residual = 0.160763, No Iterations 499
time step continuity errors : sum local = 0.00388971, global = -0.000712204, cumulative = -0.000828823
smoothSolver:  Solving for nuTilda, Initial residual = 0.0542192, Final residual = 0.00171671, No Iterations 4
ExecutionTime = 93.94 s  ClockTime = 2 s

Time = 3

smoothSolver:  Solving for Ux, Initial residual = 0.229896, Final residual = 0.000207639, No Iterations 10
smoothSolver:  Solving for Uy, Initial residual = 0.187506, Final residual = 0.000169984, No Iterations 10
Gingko init_preconditioner : 0 ms
 get_precond == NULL
Gingko solve : 691 ms
 copy back
 get iters 
noneompGKOBiCGStab:  Solving for p, Initial residual = 1.07889, Final residual = 0.0779346, No Iterations 499
time step continuity errors : sum local = 0.00348015, global = -0.000427578, cumulative = -0.0012564
smoothSolver:  Solving for nuTilda, Initial residual = 0.0388895, Final residual = 0.00157467, No Iterations 4
ExecutionTime = 138.43 s  ClockTime = 2 s

Time = 4

smoothSolver:  Solving for Ux, Initial residual = 0.155696, Final residual = 0.000144126, No Iterations 10
smoothSolver:  Solving for Uy, Initial residual = 0.146698, Final residual = 0.000130159, No Iterations 10
Gingko init_preconditioner : 0 ms
 get_precond == NULL
Gingko solve : 767 ms
 copy back
 get iters 
noneompGKOBiCGStab:  Solving for p, Initial residual = 0.37179, Final residual = 0.0136274, No Iterations 499
time step continuity errors : sum local = 0.00395995, global = 0.000492294, cumulative = -0.000764107
smoothSolver:  Solving for nuTilda, Initial residual = 0.0444748, Final residual = 0.00254557, No Iterations 4
bounding nuTilda, min: -0.82159 max: 0.227098 average: 0.138966
ExecutionTime = 187.78 s  ClockTime = 3 s

Time = 5

smoothSolver:  Solving for Ux, Initial residual = 0.239718, Final residual = 0.000182151, No Iterations 16
smoothSolver:  Solving for Uy, Initial residual = 0.255786, Final residual = 0.000224242, No Iterations 14
Gingko init_preconditioner : 0 ms
 get_precond == NULL
Gingko solve : 776 ms
 copy back
 get iters 
noneompGKOBiCGStab:  Solving for p, Initial residual = 0.122956, Final residual = 0.0242076, No Iterations 499
time step continuity errors : sum local = 1913.83, global = 0.00137793, cumulative = 0.000613828
smoothSolver:  Solving for nuTilda, Initial residual = 0.0336459, Final residual = 0.000944785, No Iterations 8
ExecutionTime = 237.7 s  ClockTime = 4 s

End

