/*---------------------------------------------------------------------------*\
  =========                 |
  \\      /  F ield         | OpenFOAM: The Open Source CFD Toolbox
   \\    /   O peration     | Website:  https://openfoam.org
    \\  /    A nd           | Version:  8
     \\/     M anipulation  |
\*---------------------------------------------------------------------------*/
Build  : 8-13d66902f78c
Exec   : simpleFoam
Date   : Jun 26 2021
Time   : 22:25:31
Host   : "uc2n427.localdomain"
PID    : 1504527
I/O    : uncollated
Case   : /pfs/data5/home/kit/scc/nq7776/code/OGL_DATA/airFoil2D/v0.1-117-g6793da2/f584ccac99/IntelXeonGold6230CPU@2.10GHz/Test_2021-06-26-21:58:00/1/p-BiCGStab-GKO-none-omp/airFoil2D
nProcs : 1
sigFpe : Enabling floating point exception trapping (FOAM_SIGFPE).
fileModificationChecking : Monitoring run-time modified files using timeStampMaster (fileModificationSkew 10)
allowSystemOperations : Allowing user-supplied system call operations

// * * * * * * * * * * * * * * * * * * * * * * * * * * * * * * * * * * * * * //
Create time

Create mesh for time = 0


SIMPLE: Convergence criteria found
        p: tolerance 1e-05
        U: tolerance 1e-05
        nuTilda: tolerance 1e-05

Reading field p

Reading field U

Reading/calculating face flux field phi

Selecting incompressible transport model Newtonian
Selecting turbulence model type RAS
Selecting RAS turbulence model SpalartAllmaras
Selecting patchDistMethod meshWave
RAS
{
    model           SpalartAllmaras;
    turbulence      on;
    printCoeffs     on;
    sigmaNut        0.66666;
    kappa           0.41;
    Cb1             0.1355;
    Cb2             0.622;
    Cw2             0.3;
    Cw3             2;
    Cv1             7.1;
    Cs              0.3;
}

No MRF models present

No finite volume options present

Starting time loop

Time = 1

smoothSolver:  Solving for Ux, Initial residual = 1, Final residual = 0.000531638, No Iterations 14
smoothSolver:  Solving for Uy, Initial residual = 1, Final residual = 0.000467931, No Iterations 14
Gingko init_host_sparsity_pattern : 8 ms
 matrix not stored update host matrix 
Gingko update_host_mtx : 4 ms
matrix is not yet sorted, compute sorting idxs 
 compute sorting idxs 214288
Gingko compute_sort : 229 ms
matrix is not yet sorted,  sorting host matrix 
Gingko sort_host_mtx_sparsity_pattern : 5 ms
Gingko sort_host_mtx : 3 ms
Gingko init_preconditioner : 0 ms
 get_precond == NULL
Gingko solve : 591 ms
 copy back
 get iters 
noneompGKOBiCGStab:  Solving for p, Initial residual = 0.00178455, Final residual = 0.579307, No Iterations 499
time step continuity errors : sum local = 0.00131203, global = -0.000116619, cumulative = -0.000116619
smoothSolver:  Solving for nuTilda, Initial residual = 1, Final residual = 0.0312263, No Iterations 2
ExecutionTime = 19.74 s  ClockTime = 1 s

Time = 2

smoothSolver:  Solving for Ux, Initial residual = 0.418303, Final residual = 0.000358085, No Iterations 10
smoothSolver:  Solving for Uy, Initial residual = 0.456301, Final residual = 0.000386732, No Iterations 10
Gingko init_preconditioner : 0 ms
 get_precond == NULL
Gingko solve : 581 ms
 copy back
 get iters 
noneompGKOBiCGStab:  Solving for p, Initial residual = 1, Final residual = 0.150577, No Iterations 499
time step continuity errors : sum local = 0.0036753, global = -0.000719723, cumulative = -0.000836341
smoothSolver:  Solving for nuTilda, Initial residual = 0.0541947, Final residual = 0.00171651, No Iterations 4
ExecutionTime = 38.5 s  ClockTime = 2 s

Time = 3

smoothSolver:  Solving for Ux, Initial residual = 0.22929, Final residual = 0.000207068, No Iterations 10
smoothSolver:  Solving for Uy, Initial residual = 0.18748, Final residual = 0.000169919, No Iterations 10
Gingko init_preconditioner : 0 ms
 get_precond == NULL
Gingko solve : 570 ms
 copy back
 get iters 
noneompGKOBiCGStab:  Solving for p, Initial residual = 1.07747, Final residual = 0.0674536, No Iterations 499
time step continuity errors : sum local = 0.00333487, global = -0.000369519, cumulative = -0.00120586
smoothSolver:  Solving for nuTilda, Initial residual = 0.0388793, Final residual = 0.00157369, No Iterations 4
ExecutionTime = 56.89 s  ClockTime = 2 s

Time = 4

smoothSolver:  Solving for Ux, Initial residual = 0.152833, Final residual = 0.000142028, No Iterations 10
smoothSolver:  Solving for Uy, Initial residual = 0.144515, Final residual = 0.00012837, No Iterations 10
Gingko init_preconditioner : 0 ms
 get_precond == NULL
Gingko solve : 586 ms
 copy back
 get iters 
noneompGKOBiCGStab:  Solving for p, Initial residual = 0.350846, Final residual = 0.0163391, No Iterations 499
time step continuity errors : sum local = 0.00413333, global = 0.000551737, cumulative = -0.000654124
smoothSolver:  Solving for nuTilda, Initial residual = 0.0445612, Final residual = 0.00255874, No Iterations 4
bounding nuTilda, min: -0.831024 max: 0.227099 average: 0.138964
ExecutionTime = 75.78 s  ClockTime = 3 s

Time = 5

smoothSolver:  Solving for Ux, Initial residual = 0.240087, Final residual = 0.000186443, No Iterations 16
smoothSolver:  Solving for Uy, Initial residual = 0.256388, Final residual = 0.000196815, No Iterations 14
Gingko init_preconditioner : 0 ms
 get_precond == NULL
Gingko solve : 592 ms
 copy back
 get iters 
noneompGKOBiCGStab:  Solving for p, Initial residual = 0.118259, Final residual = 0.0216383, No Iterations 499
time step continuity errors : sum local = 1907.34, global = 0.00142595, cumulative = 0.000771822
smoothSolver:  Solving for nuTilda, Initial residual = 0.0338049, Final residual = 0.0014187, No Iterations 8
ExecutionTime = 94.87 s  ClockTime = 3 s

End

