/*---------------------------------------------------------------------------*\
  =========                 |
  \\      /  F ield         | OpenFOAM: The Open Source CFD Toolbox
   \\    /   O peration     | Website:  https://openfoam.org
    \\  /    A nd           | Version:  8
     \\/     M anipulation  |
\*---------------------------------------------------------------------------*/
Build  : 8-13d66902f78c
Exec   : simpleFoam
Date   : Jun 26 2021
Time   : 22:36:58
Host   : "uc2n412.localdomain"
PID    : 3873812
I/O    : uncollated
Case   : /pfs/data5/home/kit/scc/nq7776/code/OGL_DATA/airFoil2D/v0.1-117-g6793da2/f584ccac99/IntelXeonGold6230CPU@2.10GHz/Test_2021-06-26-22:14:18/1/p-BiCGStab-GKO-BJ-omp/airFoil2D
nProcs : 1
sigFpe : Enabling floating point exception trapping (FOAM_SIGFPE).
fileModificationChecking : Monitoring run-time modified files using timeStampMaster (fileModificationSkew 10)
allowSystemOperations : Allowing user-supplied system call operations

// * * * * * * * * * * * * * * * * * * * * * * * * * * * * * * * * * * * * * //
Create time

Create mesh for time = 0


SIMPLE: Convergence criteria found
        p: tolerance 1e-05
        U: tolerance 1e-05
        nuTilda: tolerance 1e-05

Reading field p

Reading field U

Reading/calculating face flux field phi

Selecting incompressible transport model Newtonian
Selecting turbulence model type RAS
Selecting RAS turbulence model SpalartAllmaras
Selecting patchDistMethod meshWave
RAS
{
    model           SpalartAllmaras;
    turbulence      on;
    printCoeffs     on;
    sigmaNut        0.66666;
    kappa           0.41;
    Cb1             0.1355;
    Cb2             0.622;
    Cw2             0.3;
    Cw3             2;
    Cv1             7.1;
    Cs              0.3;
}

No MRF models present

No finite volume options present

Starting time loop

Time = 1

smoothSolver:  Solving for Ux, Initial residual = 1, Final residual = 0.000531638, No Iterations 14
smoothSolver:  Solving for Uy, Initial residual = 1, Final residual = 0.000467931, No Iterations 14
Gingko init_host_sparsity_pattern : 8 ms
 matrix not stored update host matrix 
Gingko update_host_mtx : 4 ms
matrix is not yet sorted, compute sorting idxs 
 compute sorting idxs 214288
Gingko compute_sort : 226 ms
matrix is not yet sorted,  sorting host matrix 
Gingko sort_host_mtx_sparsity_pattern : 5 ms
Gingko sort_host_mtx : 3 ms
Gingko init_preconditioner : 1 ms
Gingko solve : 847 ms
 copy back
 get iters 
BJompGKOBiCGStab:  Solving for p, Initial residual = 0.00178455, Final residual = 0.00527344, No Iterations 499
time step continuity errors : sum local = 1.21236e-05, global = -6.23013e-06, cumulative = -6.23013e-06
smoothSolver:  Solving for nuTilda, Initial residual = 1, Final residual = 0.0317439, No Iterations 2
ExecutionTime = 55.9 s  ClockTime = 1 s

Time = 2

smoothSolver:  Solving for Ux, Initial residual = 0.556617, Final residual = 0.000506779, No Iterations 10
smoothSolver:  Solving for Uy, Initial residual = 0.585949, Final residual = 0.000526152, No Iterations 10
 found preconditioner 
Gingko init_preconditioner : 0 ms
Gingko solve : 877 ms
 copy back
 get iters 
BJompGKOBiCGStab:  Solving for p, Initial residual = 1, Final residual = 0.00020668, No Iterations 499
time step continuity errors : sum local = 0.00257414, global = 9.94477e-06, cumulative = 3.71464e-06
smoothSolver:  Solving for nuTilda, Initial residual = 0.0577829, Final residual = 0.00184016, No Iterations 4
ExecutionTime = 112.22 s  ClockTime = 2 s

Time = 3

smoothSolver:  Solving for Ux, Initial residual = 0.169713, Final residual = 0.000162546, No Iterations 10
smoothSolver:  Solving for Uy, Initial residual = 0.133946, Final residual = 0.000123318, No Iterations 10
 found preconditioner 
Gingko init_preconditioner : 0 ms
Gingko solve : 850 ms
 copy back
 get iters 
BJompGKOBiCGStab:  Solving for p, Initial residual = 0.0740912, Final residual = 0.000263507, No Iterations 499
time step continuity errors : sum local = 0.00264201, global = 8.83936e-06, cumulative = 1.2554e-05
smoothSolver:  Solving for nuTilda, Initial residual = 0.0391492, Final residual = 0.00161051, No Iterations 4
ExecutionTime = 166.8 s  ClockTime = 3 s

Time = 4

smoothSolver:  Solving for Ux, Initial residual = 0.0672649, Final residual = 5.55529e-05, No Iterations 10
smoothSolver:  Solving for Uy, Initial residual = 0.0738268, Final residual = 6.27657e-05, No Iterations 10
 found preconditioner 
Gingko init_preconditioner : 0 ms
Gingko solve : 864 ms
 copy back
 get iters 
BJompGKOBiCGStab:  Solving for p, Initial residual = 0.0719879, Final residual = 3.62799e-05, No Iterations 499
time step continuity errors : sum local = 0.00319224, global = 1.46917e-06, cumulative = 1.40232e-05
smoothSolver:  Solving for nuTilda, Initial residual = 0.0475886, Final residual = 0.00194734, No Iterations 4
bounding nuTilda, min: -0.92661 max: 0.227317 average: 0.138913
ExecutionTime = 222.29 s  ClockTime = 4 s

Time = 5

smoothSolver:  Solving for Ux, Initial residual = 0.229209, Final residual = 9.66116e-05, No Iterations 16
smoothSolver:  Solving for Uy, Initial residual = 0.22691, Final residual = 0.000203696, No Iterations 14
 found preconditioner 
Gingko init_preconditioner : 0 ms
Gingko solve : 853 ms
 copy back
 get iters 
BJompGKOBiCGStab:  Solving for p, Initial residual = 0.181431, Final residual = 5.10688e-05, No Iterations 499
time step continuity errors : sum local = 2941.39, global = -9.61423e-06, cumulative = 4.40894e-06
smoothSolver:  Solving for nuTilda, Initial residual = 0.0301611, Final residual = 0.00274564, No Iterations 12
ExecutionTime = 277.12 s  ClockTime = 5 s

End

