/*---------------------------------------------------------------------------*\
  =========                 |
  \\      /  F ield         | OpenFOAM: The Open Source CFD Toolbox
   \\    /   O peration     | Website:  https://openfoam.org
    \\  /    A nd           | Version:  8
     \\/     M anipulation  |
\*---------------------------------------------------------------------------*/
Build  : 8-13d66902f78c
Exec   : simpleFoam
Date   : Jun 26 2021
Time   : 22:35:54
Host   : "uc2n412.localdomain"
PID    : 3872798
I/O    : uncollated
Case   : /pfs/data5/home/kit/scc/nq7776/code/OGL_DATA/airFoil2D/v0.1-117-g6793da2/f584ccac99/IntelXeonGold6230CPU@2.10GHz/Test_2021-06-26-22:14:18/1/p-BiCGStab-GKO-BJ-omp/airFoil2D
nProcs : 1
sigFpe : Enabling floating point exception trapping (FOAM_SIGFPE).
fileModificationChecking : Monitoring run-time modified files using timeStampMaster (fileModificationSkew 10)
allowSystemOperations : Allowing user-supplied system call operations

// * * * * * * * * * * * * * * * * * * * * * * * * * * * * * * * * * * * * * //
Create time

Create mesh for time = 0


SIMPLE: Convergence criteria found
        p: tolerance 1e-05
        U: tolerance 1e-05
        nuTilda: tolerance 1e-05

Reading field p

Reading field U

Reading/calculating face flux field phi

Selecting incompressible transport model Newtonian
Selecting turbulence model type RAS
Selecting RAS turbulence model SpalartAllmaras
Selecting patchDistMethod meshWave
RAS
{
    model           SpalartAllmaras;
    turbulence      on;
    printCoeffs     on;
    sigmaNut        0.66666;
    kappa           0.41;
    Cb1             0.1355;
    Cb2             0.622;
    Cw2             0.3;
    Cw3             2;
    Cv1             7.1;
    Cs              0.3;
}

No MRF models present

No finite volume options present

Starting time loop

Time = 1

smoothSolver:  Solving for Ux, Initial residual = 1, Final residual = 0.000531638, No Iterations 14
smoothSolver:  Solving for Uy, Initial residual = 1, Final residual = 0.000467931, No Iterations 14
Gingko init_host_sparsity_pattern : 8 ms
 matrix not stored update host matrix 
Gingko update_host_mtx : 4 ms
matrix is not yet sorted, compute sorting idxs 
 compute sorting idxs 214288
Gingko compute_sort : 226 ms
matrix is not yet sorted,  sorting host matrix 
Gingko sort_host_mtx_sparsity_pattern : 5 ms
Gingko sort_host_mtx : 3 ms
Gingko init_preconditioner : 8 ms
Gingko solve : 914 ms
 copy back
 get iters 
BJompGKOBiCGStab:  Solving for p, Initial residual = 0.00178455, Final residual = 0.00527344, No Iterations 499
time step continuity errors : sum local = 1.21225e-05, global = -6.23013e-06, cumulative = -6.23013e-06
smoothSolver:  Solving for nuTilda, Initial residual = 1, Final residual = 0.0317439, No Iterations 2
ExecutionTime = 59.13 s  ClockTime = 2 s

Time = 2

smoothSolver:  Solving for Ux, Initial residual = 0.556617, Final residual = 0.000506779, No Iterations 10
smoothSolver:  Solving for Uy, Initial residual = 0.585949, Final residual = 0.000526152, No Iterations 10
 found preconditioner 
Gingko init_preconditioner : 0 ms
Gingko solve : 901 ms
 copy back
 get iters 
BJompGKOBiCGStab:  Solving for p, Initial residual = 1, Final residual = 0.000327989, No Iterations 499
time step continuity errors : sum local = 0.00257866, global = 1.21259e-05, cumulative = 5.89573e-06
smoothSolver:  Solving for nuTilda, Initial residual = 0.0577786, Final residual = 0.00183979, No Iterations 4
ExecutionTime = 117.03 s  ClockTime = 2 s

Time = 3

smoothSolver:  Solving for Ux, Initial residual = 0.169475, Final residual = 0.000162331, No Iterations 10
smoothSolver:  Solving for Uy, Initial residual = 0.133695, Final residual = 0.0001231, No Iterations 10
 found preconditioner 
Gingko init_preconditioner : 0 ms
Gingko solve : 840 ms
 copy back
 get iters 
BJompGKOBiCGStab:  Solving for p, Initial residual = 0.0740912, Final residual = 0.000524764, No Iterations 499
time step continuity errors : sum local = 0.00264856, global = 1.25739e-05, cumulative = 1.84696e-05
smoothSolver:  Solving for nuTilda, Initial residual = 0.0391408, Final residual = 0.00160959, No Iterations 4
ExecutionTime = 170.99 s  ClockTime = 3 s

Time = 4

smoothSolver:  Solving for Ux, Initial residual = 0.0674183, Final residual = 5.56345e-05, No Iterations 10
smoothSolver:  Solving for Uy, Initial residual = 0.0738712, Final residual = 6.27745e-05, No Iterations 10
 found preconditioner 
Gingko init_preconditioner : 0 ms
Gingko solve : 778 ms
 copy back
 get iters 
BJompGKOBiCGStab:  Solving for p, Initial residual = 0.0720952, Final residual = 0.000465103, No Iterations 499
time step continuity errors : sum local = 0.00319797, global = 7.80775e-06, cumulative = 2.62774e-05
smoothSolver:  Solving for nuTilda, Initial residual = 0.0475718, Final residual = 0.00193562, No Iterations 4
bounding nuTilda, min: -0.920565 max: 0.227296 average: 0.138914
ExecutionTime = 221.03 s  ClockTime = 4 s

Time = 5

smoothSolver:  Solving for Ux, Initial residual = 0.229478, Final residual = 9.64631e-05, No Iterations 16
smoothSolver:  Solving for Uy, Initial residual = 0.227067, Final residual = 0.000203342, No Iterations 14
 found preconditioner 
Gingko init_preconditioner : 0 ms
Gingko solve : 771 ms
 copy back
 get iters 
BJompGKOBiCGStab:  Solving for p, Initial residual = 0.18177, Final residual = 1.7576e-05, No Iterations 499
time step continuity errors : sum local = 2937.68, global = -2.04511e-06, cumulative = 2.42323e-05
smoothSolver:  Solving for nuTilda, Initial residual = 0.0301936, Final residual = 0.00276322, No Iterations 12
ExecutionTime = 270.63 s  ClockTime = 5 s

End

