/*---------------------------------------------------------------------------*\
  =========                 |
  \\      /  F ield         | OpenFOAM: The Open Source CFD Toolbox
   \\    /   O peration     | Website:  https://openfoam.org
    \\  /    A nd           | Version:  8
     \\/     M anipulation  |
\*---------------------------------------------------------------------------*/
Build  : 8-13d66902f78c
Exec   : simpleFoam
Date   : Jun 26 2021
Time   : 22:34:53
Host   : "uc2n412.localdomain"
PID    : 3872119
I/O    : uncollated
Case   : /pfs/data5/home/kit/scc/nq7776/code/OGL_DATA/airFoil2D/v0.1-117-g6793da2/f584ccac99/IntelXeonGold6230CPU@2.10GHz/Test_2021-06-26-22:14:18/1/p-BiCGStab-GKO-BJ-omp/airFoil2D
nProcs : 1
sigFpe : Enabling floating point exception trapping (FOAM_SIGFPE).
fileModificationChecking : Monitoring run-time modified files using timeStampMaster (fileModificationSkew 10)
allowSystemOperations : Allowing user-supplied system call operations

// * * * * * * * * * * * * * * * * * * * * * * * * * * * * * * * * * * * * * //
Create time

Create mesh for time = 0


SIMPLE: Convergence criteria found
        p: tolerance 1e-05
        U: tolerance 1e-05
        nuTilda: tolerance 1e-05

Reading field p

Reading field U

Reading/calculating face flux field phi

Selecting incompressible transport model Newtonian
Selecting turbulence model type RAS
Selecting RAS turbulence model SpalartAllmaras
Selecting patchDistMethod meshWave
RAS
{
    model           SpalartAllmaras;
    turbulence      on;
    printCoeffs     on;
    sigmaNut        0.66666;
    kappa           0.41;
    Cb1             0.1355;
    Cb2             0.622;
    Cw2             0.3;
    Cw3             2;
    Cv1             7.1;
    Cs              0.3;
}

No MRF models present

No finite volume options present

Starting time loop

Time = 1

smoothSolver:  Solving for Ux, Initial residual = 1, Final residual = 0.000531638, No Iterations 14
smoothSolver:  Solving for Uy, Initial residual = 1, Final residual = 0.000467931, No Iterations 14
Gingko init_host_sparsity_pattern : 8 ms
 matrix not stored update host matrix 
Gingko update_host_mtx : 4 ms
matrix is not yet sorted, compute sorting idxs 
 compute sorting idxs 214288
Gingko compute_sort : 226 ms
matrix is not yet sorted,  sorting host matrix 
Gingko sort_host_mtx_sparsity_pattern : 5 ms
Gingko sort_host_mtx : 3 ms
Gingko init_preconditioner : 1 ms
Gingko solve : 816 ms
 copy back
 get iters 
BJompGKOBiCGStab:  Solving for p, Initial residual = 0.00178455, Final residual = 0.00527344, No Iterations 499
time step continuity errors : sum local = 1.21436e-05, global = -6.23013e-06, cumulative = -6.23013e-06
smoothSolver:  Solving for nuTilda, Initial residual = 1, Final residual = 0.0317439, No Iterations 2
ExecutionTime = 27.16 s  ClockTime = 1 s

Time = 2

smoothSolver:  Solving for Ux, Initial residual = 0.556617, Final residual = 0.000506779, No Iterations 10
smoothSolver:  Solving for Uy, Initial residual = 0.585949, Final residual = 0.000526152, No Iterations 10
 found preconditioner 
Gingko init_preconditioner : 0 ms
Gingko solve : 799 ms
 copy back
 get iters 
BJompGKOBiCGStab:  Solving for p, Initial residual = 1, Final residual = 0.000124127, No Iterations 499
time step continuity errors : sum local = 0.00257323, global = 7.39037e-06, cumulative = 1.16024e-06
smoothSolver:  Solving for nuTilda, Initial residual = 0.0577877, Final residual = 0.00184053, No Iterations 4
ExecutionTime = 52.9 s  ClockTime = 2 s

Time = 3

smoothSolver:  Solving for Ux, Initial residual = 0.169962, Final residual = 0.000162762, No Iterations 10
smoothSolver:  Solving for Uy, Initial residual = 0.134195, Final residual = 0.000123533, No Iterations 10
 found preconditioner 
Gingko init_preconditioner : 0 ms
Gingko solve : 700 ms
 copy back
 get iters 
BJompGKOBiCGStab:  Solving for p, Initial residual = 0.0740915, Final residual = 0.000403926, No Iterations 499
time step continuity errors : sum local = 0.00264513, global = 9.49411e-06, cumulative = 1.06543e-05
smoothSolver:  Solving for nuTilda, Initial residual = 0.0391544, Final residual = 0.00161084, No Iterations 4
ExecutionTime = 75.45 s  ClockTime = 3 s

Time = 4

smoothSolver:  Solving for Ux, Initial residual = 0.0674106, Final residual = 5.56313e-05, No Iterations 10
smoothSolver:  Solving for Uy, Initial residual = 0.0738953, Final residual = 6.27944e-05, No Iterations 10
 found preconditioner 
Gingko init_preconditioner : 0 ms
Gingko solve : 690 ms
 copy back
 get iters 
BJompGKOBiCGStab:  Solving for p, Initial residual = 0.0719404, Final residual = 6.33584e-05, No Iterations 499
time step continuity errors : sum local = 0.00319353, global = 1.78412e-06, cumulative = 1.24385e-05
smoothSolver:  Solving for nuTilda, Initial residual = 0.0475834, Final residual = 0.00194775, No Iterations 4
bounding nuTilda, min: -0.926886 max: 0.227323 average: 0.138913
ExecutionTime = 97.66 s  ClockTime = 4 s

Time = 5

smoothSolver:  Solving for Ux, Initial residual = 0.229613, Final residual = 9.66293e-05, No Iterations 16
smoothSolver:  Solving for Uy, Initial residual = 0.227255, Final residual = 0.000203549, No Iterations 14
 found preconditioner 
Gingko init_preconditioner : 0 ms
Gingko solve : 680 ms
 copy back
 get iters 
BJompGKOBiCGStab:  Solving for p, Initial residual = 0.181094, Final residual = 3.57738e-05, No Iterations 499
time step continuity errors : sum local = 2940.81, global = -6.33428e-06, cumulative = 6.10418e-06
smoothSolver:  Solving for nuTilda, Initial residual = 0.0301797, Final residual = 0.00274611, No Iterations 12
ExecutionTime = 119.56 s  ClockTime = 5 s

End

