/*---------------------------------------------------------------------------*\
  =========                 |
  \\      /  F ield         | OpenFOAM: The Open Source CFD Toolbox
   \\    /   O peration     | Website:  https://openfoam.org
    \\  /    A nd           | Version:  8
     \\/     M anipulation  |
\*---------------------------------------------------------------------------*/
Build  : 8-13d66902f78c
Exec   : simpleFoam
Date   : Jun 26 2021
Time   : 23:28:00
Host   : "uc2n427.localdomain"
PID    : 1514855
I/O    : uncollated
Case   : /pfs/data5/home/kit/scc/nq7776/code/OGL_DATA/airFoil2D/v0.1-117-g6793da2/f584ccac99/IntelXeonGold6230CPU@2.10GHz/Test_2021-06-26-21:58:00/3/p-CG-GKO-none-omp/airFoil2D
nProcs : 1
sigFpe : Enabling floating point exception trapping (FOAM_SIGFPE).
fileModificationChecking : Monitoring run-time modified files using timeStampMaster (fileModificationSkew 10)
allowSystemOperations : Allowing user-supplied system call operations

// * * * * * * * * * * * * * * * * * * * * * * * * * * * * * * * * * * * * * //
Create time

Create mesh for time = 0


SIMPLE: Convergence criteria found
        p: tolerance 1e-05
        U: tolerance 1e-05
        nuTilda: tolerance 1e-05

Reading field p

Reading field U

Reading/calculating face flux field phi

Selecting incompressible transport model Newtonian
Selecting turbulence model type RAS
Selecting RAS turbulence model SpalartAllmaras
Selecting patchDistMethod meshWave
RAS
{
    model           SpalartAllmaras;
    turbulence      on;
    printCoeffs     on;
    sigmaNut        0.66666;
    kappa           0.41;
    Cb1             0.1355;
    Cb2             0.622;
    Cw2             0.3;
    Cw3             2;
    Cv1             7.1;
    Cs              0.3;
}

No MRF models present

No finite volume options present

Starting time loop

Time = 1

smoothSolver:  Solving for Ux, Initial residual = 1, Final residual = 0.000579349, No Iterations 12
smoothSolver:  Solving for Uy, Initial residual = 0.999999, Final residual = 0.000271884, No Iterations 12
Gingko init_host_sparsity_pattern : 130 ms
 matrix not stored update host matrix 
Gingko update_host_mtx : 75 ms
matrix is not yet sorted, compute sorting idxs 
 compute sorting idxs 3450002
Gingko compute_sort : 4608 ms
matrix is not yet sorted,  sorting host matrix 
Gingko sort_host_mtx_sparsity_pattern : 98 ms
Gingko sort_host_mtx : 53 ms
Gingko init_preconditioner : 0 ms
 get_precond == NULL
Gingko solve : 8703 ms
 copy back
 get iters 
noneompGKOCG:  Solving for p, Initial residual = 0.000226882, Final residual = 33.452, No Iterations 999
time step continuity errors : sum local = 0.0649041, global = -3.84979e-06, cumulative = -3.84979e-06
smoothSolver:  Solving for nuTilda, Initial residual = 1, Final residual = 0.0305855, No Iterations 2
ExecutionTime = 565.66 s  ClockTime = 19 s

Time = 2

smoothSolver:  Solving for Ux, Initial residual = 0.311441, Final residual = 0.000299406, No Iterations 10
smoothSolver:  Solving for Uy, Initial residual = 0.349533, Final residual = 8.58671e-05, No Iterations 12
Gingko init_preconditioner : 0 ms
 get_precond == NULL
Gingko solve : 9222 ms
 copy back
 get iters 
noneompGKOCG:  Solving for p, Initial residual = 1, Final residual = 1.77828, No Iterations 999
time step continuity errors : sum local = 0.0658264, global = -2.43278e-06, cumulative = -6.28257e-06
smoothSolver:  Solving for nuTilda, Initial residual = 0.0951851, Final residual = 0.00169921, No Iterations 4
ExecutionTime = 1155.07 s  ClockTime = 29 s

Time = 3

smoothSolver:  Solving for Ux, Initial residual = 0.16254, Final residual = 3.95768e-05, No Iterations 12
smoothSolver:  Solving for Uy, Initial residual = 0.100549, Final residual = 9.96322e-05, No Iterations 10
Gingko init_preconditioner : 0 ms
 get_precond == NULL
Gingko solve : 9853 ms
 copy back
 get iters 
noneompGKOCG:  Solving for p, Initial residual = 2.16476, Final residual = 1.54721, No Iterations 999
time step continuity errors : sum local = 0.072553, global = -0.000109475, cumulative = -0.000115758
smoothSolver:  Solving for nuTilda, Initial residual = 0.0290882, Final residual = 0.00128759, No Iterations 4
ExecutionTime = 1784.98 s  ClockTime = 40 s

Time = 4

smoothSolver:  Solving for Ux, Initial residual = 0.186474, Final residual = 0.000185875, No Iterations 10
smoothSolver:  Solving for Uy, Initial residual = 0.125919, Final residual = 3.07548e-05, No Iterations 12
Gingko init_preconditioner : 0 ms
 get_precond == NULL
Gingko solve : 9853 ms
 copy back
 get iters 
noneompGKOCG:  Solving for p, Initial residual = 1.60879, Final residual = 0.885313, No Iterations 999
time step continuity errors : sum local = 0.05123, global = -0.000904245, cumulative = -0.00102
smoothSolver:  Solving for nuTilda, Initial residual = 0.0242756, Final residual = 0.00118993, No Iterations 4
ExecutionTime = 2414.94 s  ClockTime = 51 s

Time = 5

smoothSolver:  Solving for Ux, Initial residual = 0.198132, Final residual = 4.80349e-05, No Iterations 12
smoothSolver:  Solving for Uy, Initial residual = 0.166476, Final residual = 4.19446e-05, No Iterations 12
Gingko init_preconditioner : 0 ms
 get_precond == NULL
Gingko solve : 9386 ms
 copy back
 get iters 
noneompGKOCG:  Solving for p, Initial residual = 1.46314, Final residual = 1.04224, No Iterations 999
time step continuity errors : sum local = 0.0834763, global = -0.00136349, cumulative = -0.00238349
smoothSolver:  Solving for nuTilda, Initial residual = 0.0207748, Final residual = 0.00109513, No Iterations 4
bounding nuTilda, min: -0.0658249 max: 0.14514 average: 0.139384
ExecutionTime = 3015.03 s  ClockTime = 62 s

End

