/*---------------------------------------------------------------------------*\
  =========                 |
  \\      /  F ield         | OpenFOAM: The Open Source CFD Toolbox
   \\    /   O peration     | Website:  https://openfoam.org
    \\  /    A nd           | Version:  8
     \\/     M anipulation  |
\*---------------------------------------------------------------------------*/
Build  : 8-13d66902f78c
Exec   : simpleFoam
Date   : Jun 26 2021
Time   : 23:03:39
Host   : "uc2n378.localdomain"
PID    : 1454668
I/O    : uncollated
Case   : /pfs/data5/home/kit/scc/nq7776/code/OGL_DATA/airFoil2D/v0.1-117-g6793da2/f584ccac99/IntelXeonGold6230CPU@2.10GHz/Test_2021-06-26-22:40:25/1/p-U-CG-GKO-none-omp/airFoil2D
nProcs : 1
sigFpe : Enabling floating point exception trapping (FOAM_SIGFPE).
fileModificationChecking : Monitoring run-time modified files using timeStampMaster (fileModificationSkew 10)
allowSystemOperations : Allowing user-supplied system call operations

// * * * * * * * * * * * * * * * * * * * * * * * * * * * * * * * * * * * * * //
Create time

Create mesh for time = 0


SIMPLE: Convergence criteria found
        p: tolerance 1e-05
        U: tolerance 1e-05
        nuTilda: tolerance 1e-05

Reading field p

Reading field U

Reading/calculating face flux field phi

Selecting incompressible transport model Newtonian
Selecting turbulence model type RAS
Selecting RAS turbulence model SpalartAllmaras
Selecting patchDistMethod meshWave
RAS
{
    model           SpalartAllmaras;
    turbulence      on;
    printCoeffs     on;
    sigmaNut        0.66666;
    kappa           0.41;
    Cb1             0.1355;
    Cb2             0.622;
    Cw2             0.3;
    Cw3             2;
    Cv1             7.1;
    Cs              0.3;
}

No MRF models present

No finite volume options present

Starting time loop

Time = 1

Gingko init_host_sparsity_pattern : 8 ms
 matrix not stored update host matrix 
Gingko update_host_mtx : 4 ms
matrix is not yet sorted, compute sorting idxs 
 compute sorting idxs 214288
Gingko compute_sort : 227 ms
matrix is not yet sorted,  sorting host matrix 
Gingko sort_host_mtx_sparsity_pattern : 5 ms
Gingko sort_host_mtx : 3 ms
Gingko init_preconditioner : 0 ms
 get_precond == NULL
Gingko solve : 509 ms
 copy back
 get iters 
noneompGKOBiCGStab:  Solving for Ux, Initial residual = -0, Final residual = 9.05428e-07, No Iterations 313
Gingko init_host_sparsity_pattern : 10 ms
 matrix not stored update host matrix 
Gingko update_host_mtx : 4 ms
matrix is not yet sorted,  sorting host matrix 
Gingko sort_host_mtx_sparsity_pattern : 5 ms
Gingko sort_host_mtx : 3 ms
Gingko init_preconditioner : 0 ms
 get_precond == NULL
Gingko solve : 468 ms
 copy back
 get iters 
noneompGKOBiCGStab:  Solving for Uy, Initial residual = 130.982, Final residual = 9.82174e-07, No Iterations 299
Gingko init_host_sparsity_pattern : 7 ms
 matrix not stored update host matrix 
Gingko update_host_mtx : 4 ms
matrix is not yet sorted,  sorting host matrix 
Gingko sort_host_mtx_sparsity_pattern : 5 ms
Gingko sort_host_mtx : 3 ms
Gingko init_preconditioner : 0 ms
 get_precond == NULL
Gingko solve : 796 ms
 copy back
 get iters 
noneompGKOCG:  Solving for p, Initial residual = 133.957, Final residual = 0.190107, No Iterations 999
time step continuity errors : sum local = 0.0117238, global = -0.000723743, cumulative = -0.000723743
smoothSolver:  Solving for nuTilda, Initial residual = 1, Final residual = 0.0691537, No Iterations 2
ExecutionTime = 115.3 s  ClockTime = 3 s

Time = 2

Gingko init_host_sparsity_pattern : 8 ms
 matrix not stored update host matrix 
Gingko update_host_mtx : 4 ms
matrix is not yet sorted,  sorting host matrix 
Gingko sort_host_mtx_sparsity_pattern : 5 ms
Gingko sort_host_mtx : 3 ms
Gingko init_preconditioner : 0 ms
 get_precond == NULL
Gingko solve : 535 ms
 copy back
 get iters 
noneompGKOBiCGStab:  Solving for Ux, Initial residual = 1, Final residual = 9.95334e-07, No Iterations 355
Gingko init_host_sparsity_pattern : 10 ms
 matrix not stored update host matrix 
Gingko update_host_mtx : 3 ms
matrix is not yet sorted,  sorting host matrix 
Gingko sort_host_mtx_sparsity_pattern : 5 ms
Gingko sort_host_mtx : 3 ms
Gingko init_preconditioner : 0 ms
 get_precond == NULL
Gingko solve : 578 ms
 copy back
 get iters 
noneompGKOBiCGStab:  Solving for Uy, Initial residual = 0.54999, Final residual = 8.63949e-07, No Iterations 365
Gingko init_preconditioner : 0 ms
 get_precond == NULL
Gingko solve : 838 ms
 copy back
 get iters 
noneompGKOCG:  Solving for p, Initial residual = 0.726092, Final residual = 0.0760791, No Iterations 999
time step continuity errors : sum local = 0.0156547, global = 0.00420938, cumulative = 0.00348563
smoothSolver:  Solving for nuTilda, Initial residual = 0.127718, Final residual = 0.00580936, No Iterations 4
ExecutionTime = 241.14 s  ClockTime = 5 s

Time = 3

Gingko init_host_sparsity_pattern : 7 ms
 matrix not stored update host matrix 
Gingko update_host_mtx : 3 ms
matrix is not yet sorted,  sorting host matrix 
Gingko sort_host_mtx_sparsity_pattern : 5 ms
Gingko sort_host_mtx : 3 ms
Gingko init_preconditioner : 0 ms
 get_precond == NULL
Gingko solve : 463 ms
 copy back
 get iters 
noneompGKOBiCGStab:  Solving for Ux, Initial residual = 0.388277, Final residual = 6.95893e-07, No Iterations 286
Gingko init_host_sparsity_pattern : 10 ms
 matrix not stored update host matrix 
Gingko update_host_mtx : 3 ms
matrix is not yet sorted,  sorting host matrix 
Gingko sort_host_mtx_sparsity_pattern : 5 ms
Gingko sort_host_mtx : 3 ms
Gingko init_preconditioner : 0 ms
 get_precond == NULL
Gingko solve : 380 ms
 copy back
 get iters 
noneompGKOBiCGStab:  Solving for Uy, Initial residual = 0.295274, Final residual = 9.00357e-07, No Iterations 239
Gingko init_preconditioner : 0 ms
 get_precond == NULL
Gingko solve : 837 ms
 copy back
 get iters 
noneompGKOCG:  Solving for p, Initial residual = 0.281184, Final residual = 0.0435993, No Iterations 999
time step continuity errors : sum local = 0.0207018, global = 0.00610376, cumulative = 0.00958939
smoothSolver:  Solving for nuTilda, Initial residual = 0.123637, Final residual = 0.00545324, No Iterations 4
ExecutionTime = 349.62 s  ClockTime = 7 s

Time = 4

Gingko init_host_sparsity_pattern : 8 ms
 matrix not stored update host matrix 
Gingko update_host_mtx : 4 ms
matrix is not yet sorted,  sorting host matrix 
Gingko sort_host_mtx_sparsity_pattern : 5 ms
Gingko sort_host_mtx : 3 ms
Gingko init_preconditioner : 0 ms
 get_precond == NULL
Gingko solve : 658 ms
 copy back
 get iters 
noneompGKOBiCGStab:  Solving for Ux, Initial residual = 0.150762, Final residual = 9.55817e-07, No Iterations 414
Gingko init_host_sparsity_pattern : 10 ms
 matrix not stored update host matrix 
Gingko update_host_mtx : 4 ms
matrix is not yet sorted,  sorting host matrix 
Gingko sort_host_mtx_sparsity_pattern : 5 ms
Gingko sort_host_mtx : 3 ms
Gingko init_preconditioner : 0 ms
 get_precond == NULL
Gingko solve : 507 ms
 copy back
 get iters 
noneompGKOBiCGStab:  Solving for Uy, Initial residual = 0.247629, Final residual = 8.05682e-07, No Iterations 312
Gingko init_preconditioner : 0 ms
 get_precond == NULL
Gingko solve : 816 ms
 copy back
 get iters 
noneompGKOCG:  Solving for p, Initial residual = 0.253726, Final residual = 0.0287406, No Iterations 999
time step continuity errors : sum local = 0.0191406, global = 0.00542766, cumulative = 0.015017
smoothSolver:  Solving for nuTilda, Initial residual = 0.13192, Final residual = 0.00621235, No Iterations 4
bounding nuTilda, min: -0.689246 max: 0.353361 average: 0.139433
ExecutionTime = 477.33 s  ClockTime = 9 s

Time = 5

Gingko init_host_sparsity_pattern : 7 ms
 matrix not stored update host matrix 
Gingko update_host_mtx : 3 ms
matrix is not yet sorted,  sorting host matrix 
Gingko sort_host_mtx_sparsity_pattern : 5 ms
Gingko sort_host_mtx : 3 ms
Gingko init_preconditioner : 0 ms
 get_precond == NULL
Gingko solve : 812 ms
 copy back
 get iters 
noneompGKOBiCGStab:  Solving for Ux, Initial residual = 0.150159, Final residual = 2.5331e-05, No Iterations 499
Gingko init_host_sparsity_pattern : 10 ms
 matrix not stored update host matrix 
Gingko update_host_mtx : 3 ms
matrix is not yet sorted,  sorting host matrix 
Gingko sort_host_mtx_sparsity_pattern : 5 ms
Gingko sort_host_mtx : 3 ms
Gingko init_preconditioner : 0 ms
 get_precond == NULL
Gingko solve : 809 ms
 copy back
 get iters 
noneompGKOBiCGStab:  Solving for Uy, Initial residual = 0.231527, Final residual = 1.21399e-05, No Iterations 499
Gingko init_preconditioner : 0 ms
 get_precond == NULL
Gingko solve : 837 ms
 copy back
 get iters 
noneompGKOCG:  Solving for p, Initial residual = 0.157984, Final residual = 0.377457, No Iterations 999
time step continuity errors : sum local = 10.96, global = 0.00541076, cumulative = 0.0204278
smoothSolver:  Solving for nuTilda, Initial residual = 0.00956205, Final residual = 0.000603584, No Iterations 4
bounding nuTilda, min: -0.0239464 max: 0.441255 average: 0.139657
ExecutionTime = 635.41 s  ClockTime = 11 s

End

