/*---------------------------------------------------------------------------*\
  =========                 |
  \\      /  F ield         | OpenFOAM: The Open Source CFD Toolbox
   \\    /   O peration     | Website:  https://openfoam.org
    \\  /    A nd           | Version:  8
     \\/     M anipulation  |
\*---------------------------------------------------------------------------*/
Build  : 8-13d66902f78c
Exec   : simpleFoam
Date   : Jun 26 2021
Time   : 22:59:24
Host   : "uc2n378.localdomain"
PID    : 1452705
I/O    : uncollated
Case   : /pfs/data5/home/kit/scc/nq7776/code/OGL_DATA/airFoil2D/v0.1-117-g6793da2/f584ccac99/IntelXeonGold6230CPU@2.10GHz/Test_2021-06-26-22:40:25/1/p-U-CG-GKO-none-omp/airFoil2D
nProcs : 1
sigFpe : Enabling floating point exception trapping (FOAM_SIGFPE).
fileModificationChecking : Monitoring run-time modified files using timeStampMaster (fileModificationSkew 10)
allowSystemOperations : Allowing user-supplied system call operations

// * * * * * * * * * * * * * * * * * * * * * * * * * * * * * * * * * * * * * //
Create time

Create mesh for time = 0


SIMPLE: Convergence criteria found
        p: tolerance 1e-05
        U: tolerance 1e-05
        nuTilda: tolerance 1e-05

Reading field p

Reading field U

Reading/calculating face flux field phi

Selecting incompressible transport model Newtonian
Selecting turbulence model type RAS
Selecting RAS turbulence model SpalartAllmaras
Selecting patchDistMethod meshWave
RAS
{
    model           SpalartAllmaras;
    turbulence      on;
    printCoeffs     on;
    sigmaNut        0.66666;
    kappa           0.41;
    Cb1             0.1355;
    Cb2             0.622;
    Cw2             0.3;
    Cw3             2;
    Cv1             7.1;
    Cs              0.3;
}

No MRF models present

No finite volume options present

Starting time loop

Time = 1

Gingko init_host_sparsity_pattern : 8 ms
 matrix not stored update host matrix 
Gingko update_host_mtx : 4 ms
matrix is not yet sorted, compute sorting idxs 
 compute sorting idxs 214288
Gingko compute_sort : 226 ms
matrix is not yet sorted,  sorting host matrix 
Gingko sort_host_mtx_sparsity_pattern : 5 ms
Gingko sort_host_mtx : 3 ms
Gingko init_preconditioner : 0 ms
 get_precond == NULL
Gingko solve : 309 ms
 copy back
 get iters 
noneompGKOBiCGStab:  Solving for Ux, Initial residual = -0, Final residual = 9.05428e-07, No Iterations 313
Gingko init_host_sparsity_pattern : 9 ms
 matrix not stored update host matrix 
Gingko update_host_mtx : 4 ms
matrix is not yet sorted,  sorting host matrix 
Gingko sort_host_mtx_sparsity_pattern : 5 ms
Gingko sort_host_mtx : 3 ms
Gingko init_preconditioner : 0 ms
 get_precond == NULL
Gingko solve : 336 ms
 copy back
 get iters 
noneompGKOBiCGStab:  Solving for Uy, Initial residual = 130.982, Final residual = 9.82174e-07, No Iterations 299
Gingko init_host_sparsity_pattern : 7 ms
 matrix not stored update host matrix 
Gingko update_host_mtx : 4 ms
matrix is not yet sorted,  sorting host matrix 
Gingko sort_host_mtx_sparsity_pattern : 5 ms
Gingko sort_host_mtx : 3 ms
Gingko init_preconditioner : 0 ms
 get_precond == NULL
Gingko solve : 623 ms
 copy back
 get iters 
noneompGKOCG:  Solving for p, Initial residual = 133.957, Final residual = 0.190107, No Iterations 999
time step continuity errors : sum local = 0.0117238, global = -0.000723743, cumulative = -0.000723743
smoothSolver:  Solving for nuTilda, Initial residual = 1, Final residual = 0.0691537, No Iterations 2
ExecutionTime = 21.16 s  ClockTime = 1 s

Time = 2

Gingko init_host_sparsity_pattern : 7 ms
 matrix not stored update host matrix 
Gingko update_host_mtx : 3 ms
matrix is not yet sorted,  sorting host matrix 
Gingko sort_host_mtx_sparsity_pattern : 5 ms
Gingko sort_host_mtx : 3 ms
Gingko init_preconditioner : 0 ms
 get_precond == NULL
Gingko solve : 412 ms
 copy back
 get iters 
noneompGKOBiCGStab:  Solving for Ux, Initial residual = 1, Final residual = 9.95334e-07, No Iterations 355
Gingko init_host_sparsity_pattern : 8 ms
 matrix not stored update host matrix 
Gingko update_host_mtx : 3 ms
matrix is not yet sorted,  sorting host matrix 
Gingko sort_host_mtx_sparsity_pattern : 5 ms
Gingko sort_host_mtx : 3 ms
Gingko init_preconditioner : 0 ms
 get_precond == NULL
Gingko solve : 414 ms
 copy back
 get iters 
noneompGKOBiCGStab:  Solving for Uy, Initial residual = 0.54999, Final residual = 8.63949e-07, No Iterations 365
Gingko init_preconditioner : 0 ms
 get_precond == NULL
Gingko solve : 559 ms
 copy back
 get iters 
noneompGKOCG:  Solving for p, Initial residual = 0.726092, Final residual = 0.0758565, No Iterations 999
time step continuity errors : sum local = 0.0156468, global = 0.00420943, cumulative = 0.00348569
smoothSolver:  Solving for nuTilda, Initial residual = 0.127718, Final residual = 0.00580945, No Iterations 4
ExecutionTime = 43.6 s  ClockTime = 3 s

Time = 3

Gingko init_host_sparsity_pattern : 8 ms
 matrix not stored update host matrix 
Gingko update_host_mtx : 3 ms
matrix is not yet sorted,  sorting host matrix 
Gingko sort_host_mtx_sparsity_pattern : 5 ms
Gingko sort_host_mtx : 3 ms
Gingko init_preconditioner : 0 ms
 get_precond == NULL
Gingko solve : 348 ms
 copy back
 get iters 
noneompGKOBiCGStab:  Solving for Ux, Initial residual = 0.388277, Final residual = 9.63614e-07, No Iterations 305
Gingko init_host_sparsity_pattern : 8 ms
 matrix not stored update host matrix 
Gingko update_host_mtx : 4 ms
matrix is not yet sorted,  sorting host matrix 
Gingko sort_host_mtx_sparsity_pattern : 5 ms
Gingko sort_host_mtx : 3 ms
Gingko init_preconditioner : 0 ms
 get_precond == NULL
Gingko solve : 261 ms
 copy back
 get iters 
noneompGKOBiCGStab:  Solving for Uy, Initial residual = 0.295346, Final residual = 9.793e-07, No Iterations 237
Gingko init_preconditioner : 0 ms
 get_precond == NULL
Gingko solve : 578 ms
 copy back
 get iters 
noneompGKOCG:  Solving for p, Initial residual = 0.28118, Final residual = 0.0442795, No Iterations 999
time step continuity errors : sum local = 0.0208347, global = 0.00610372, cumulative = 0.0095894
smoothSolver:  Solving for nuTilda, Initial residual = 0.123625, Final residual = 0.00545338, No Iterations 4
ExecutionTime = 62.86 s  ClockTime = 4 s

Time = 4

Gingko init_host_sparsity_pattern : 7 ms
 matrix not stored update host matrix 
Gingko update_host_mtx : 3 ms
matrix is not yet sorted,  sorting host matrix 
Gingko sort_host_mtx_sparsity_pattern : 5 ms
Gingko sort_host_mtx : 3 ms
Gingko init_preconditioner : 0 ms
 get_precond == NULL
Gingko solve : 475 ms
 copy back
 get iters 
noneompGKOBiCGStab:  Solving for Ux, Initial residual = 0.150716, Final residual = 9.62474e-07, No Iterations 415
Gingko init_host_sparsity_pattern : 8 ms
 matrix not stored update host matrix 
Gingko update_host_mtx : 3 ms
matrix is not yet sorted,  sorting host matrix 
Gingko sort_host_mtx_sparsity_pattern : 5 ms
Gingko sort_host_mtx : 3 ms
Gingko init_preconditioner : 0 ms
 get_precond == NULL
Gingko solve : 349 ms
 copy back
 get iters 
noneompGKOBiCGStab:  Solving for Uy, Initial residual = 0.248032, Final residual = 9.92581e-07, No Iterations 310
Gingko init_preconditioner : 0 ms
 get_precond == NULL
Gingko solve : 559 ms
 copy back
 get iters 
noneompGKOCG:  Solving for p, Initial residual = 0.253761, Final residual = 0.0286302, No Iterations 999
time step continuity errors : sum local = 0.0191241, global = 0.00542697, cumulative = 0.0150164
smoothSolver:  Solving for nuTilda, Initial residual = 0.132019, Final residual = 0.00656028, No Iterations 4
bounding nuTilda, min: -1.05512 max: 0.353364 average: 0.139389
ExecutionTime = 85.27 s  ClockTime = 6 s

Time = 5

Gingko init_host_sparsity_pattern : 7 ms
 matrix not stored update host matrix 
Gingko update_host_mtx : 4 ms
matrix is not yet sorted,  sorting host matrix 
Gingko sort_host_mtx_sparsity_pattern : 5 ms
Gingko sort_host_mtx : 3 ms
Gingko init_preconditioner : 0 ms
 get_precond == NULL
Gingko solve : 541 ms
 copy back
 get iters 
noneompGKOBiCGStab:  Solving for Ux, Initial residual = 0.150657, Final residual = 0.00216598, No Iterations 499
Gingko init_host_sparsity_pattern : 8 ms
 matrix not stored update host matrix 
Gingko update_host_mtx : 3 ms
matrix is not yet sorted,  sorting host matrix 
Gingko sort_host_mtx_sparsity_pattern : 5 ms
Gingko sort_host_mtx : 3 ms
Gingko init_preconditioner : 0 ms
 get_precond == NULL
Gingko solve : 547 ms
 copy back
 get iters 
noneompGKOBiCGStab:  Solving for Uy, Initial residual = 0.231808, Final residual = 0.000217397, No Iterations 499
Gingko init_preconditioner : 0 ms
 get_precond == NULL
Gingko solve : 581 ms
 copy back
 get iters 
noneompGKOCG:  Solving for p, Initial residual = 0.158, Final residual = 0.386867, No Iterations 999
time step continuity errors : sum local = 1196.23, global = 0.00427303, cumulative = 0.0192894
smoothSolver:  Solving for nuTilda, Initial residual = 0.000699007, Final residual = 2.05954e-05, No Iterations 4
bounding nuTilda, min: -0.0180466 max: 0.436628 average: 0.139676
ExecutionTime = 112.23 s  ClockTime = 7 s

End

