/*---------------------------------------------------------------------------*\
  =========                 |
  \\      /  F ield         | OpenFOAM: The Open Source CFD Toolbox
   \\    /   O peration     | Website:  https://openfoam.org
    \\  /    A nd           | Version:  8
     \\/     M anipulation  |
\*---------------------------------------------------------------------------*/
Build  : 8-13d66902f78c
Exec   : simpleFoam
Date   : Jun 26 2021
Time   : 23:03:25
Host   : "uc2n414.localdomain"
PID    : 2806807
I/O    : uncollated
Case   : /pfs/data5/home/kit/scc/nq7776/code/OGL_DATA/airFoil2D/v0.1-117-g6793da2/f584ccac99/IntelXeonGold6230CPU@2.10GHz/Test_2021-06-26-22:50:05/1/p-U-CG-GKO-BJ-omp/airFoil2D
nProcs : 1
sigFpe : Enabling floating point exception trapping (FOAM_SIGFPE).
fileModificationChecking : Monitoring run-time modified files using timeStampMaster (fileModificationSkew 10)
allowSystemOperations : Allowing user-supplied system call operations

// * * * * * * * * * * * * * * * * * * * * * * * * * * * * * * * * * * * * * //
Create time

Create mesh for time = 0


SIMPLE: Convergence criteria found
        p: tolerance 1e-05
        U: tolerance 1e-05
        nuTilda: tolerance 1e-05

Reading field p

Reading field U

Reading/calculating face flux field phi

Selecting incompressible transport model Newtonian
Selecting turbulence model type RAS
Selecting RAS turbulence model SpalartAllmaras
Selecting patchDistMethod meshWave
RAS
{
    model           SpalartAllmaras;
    turbulence      on;
    printCoeffs     on;
    sigmaNut        0.66666;
    kappa           0.41;
    Cb1             0.1355;
    Cb2             0.622;
    Cw2             0.3;
    Cw3             2;
    Cv1             7.1;
    Cs              0.3;
}

No MRF models present

No finite volume options present

Starting time loop

Time = 1

Gingko init_host_sparsity_pattern : 8 ms
 matrix not stored update host matrix 
Gingko update_host_mtx : 4 ms
matrix is not yet sorted, compute sorting idxs 
 compute sorting idxs 214288
Gingko compute_sort : 226 ms
matrix is not yet sorted,  sorting host matrix 
Gingko sort_host_mtx_sparsity_pattern : 5 ms
Gingko sort_host_mtx : 3 ms
Gingko init_preconditioner : 2 ms
Gingko solve : 48 ms
 copy back
 get iters 
BJompGKOBiCGStab:  Solving for Ux, Initial residual = -0, Final residual = 7.26213e-07, No Iterations 29
Gingko init_host_sparsity_pattern : 8 ms
 matrix not stored update host matrix 
Gingko update_host_mtx : 4 ms
matrix is not yet sorted,  sorting host matrix 
Gingko sort_host_mtx_sparsity_pattern : 5 ms
Gingko sort_host_mtx : 3 ms
Gingko init_preconditioner : 2 ms
Gingko solve : 46 ms
 copy back
 get iters 
BJompGKOBiCGStab:  Solving for Uy, Initial residual = 130.982, Final residual = 7.41617e-07, No Iterations 29
Gingko init_host_sparsity_pattern : 8 ms
 matrix not stored update host matrix 
Gingko update_host_mtx : 4 ms
matrix is not yet sorted,  sorting host matrix 
Gingko sort_host_mtx_sparsity_pattern : 5 ms
Gingko sort_host_mtx : 3 ms
Gingko init_preconditioner : 2 ms
 CG create  precond 
Gingko solve : 871 ms
 copy back
 get iters 
BJompGKOCG:  Solving for p, Initial residual = 133.957, Final residual = 3.2288e-05, No Iterations 999
time step continuity errors : sum local = 1.99118e-06, global = -2.31482e-08, cumulative = -2.31482e-08
smoothSolver:  Solving for nuTilda, Initial residual = 1, Final residual = 0.0692675, No Iterations 2
ExecutionTime = 8.5 s  ClockTime = 2 s

Time = 2

Gingko init_host_sparsity_pattern : 7 ms
 matrix not stored update host matrix 
Gingko update_host_mtx : 3 ms
matrix is not yet sorted,  sorting host matrix 
Gingko sort_host_mtx_sparsity_pattern : 5 ms
Gingko sort_host_mtx : 3 ms
 found preconditioner 
Gingko init_preconditioner : 0 ms
Gingko solve : 68 ms
 copy back
 get iters 
BJompGKOBiCGStab:  Solving for Ux, Initial residual = 1, Final residual = 9.01961e-07, No Iterations 32
Gingko init_host_sparsity_pattern : 9 ms
 matrix not stored update host matrix 
Gingko update_host_mtx : 6 ms
matrix is not yet sorted,  sorting host matrix 
Gingko sort_host_mtx_sparsity_pattern : 6 ms
Gingko sort_host_mtx : 3 ms
 found preconditioner 
Gingko init_preconditioner : 0 ms
Gingko solve : 55 ms
 copy back
 get iters 
BJompGKOBiCGStab:  Solving for Uy, Initial residual = 0.547354, Final residual = 8.13784e-07, No Iterations 29
 found preconditioner 
Gingko init_preconditioner : 0 ms
 CG create  precond 
Gingko solve : 940 ms
 copy back
 get iters 
BJompGKOCG:  Solving for p, Initial residual = 0.716651, Final residual = 1.22603e-05, No Iterations 999
time step continuity errors : sum local = 0.00859075, global = 0.00404478, cumulative = 0.00404476
smoothSolver:  Solving for nuTilda, Initial residual = 0.124201, Final residual = 0.00551493, No Iterations 4
ExecutionTime = 17.2 s  ClockTime = 3 s

Time = 3

Gingko init_host_sparsity_pattern : 7 ms
 matrix not stored update host matrix 
Gingko update_host_mtx : 3 ms
matrix is not yet sorted,  sorting host matrix 
Gingko sort_host_mtx_sparsity_pattern : 5 ms
Gingko sort_host_mtx : 3 ms
 found preconditioner 
Gingko init_preconditioner : 0 ms
Gingko solve : 45 ms
 copy back
 get iters 
BJompGKOBiCGStab:  Solving for Ux, Initial residual = 0.173377, Final residual = 9.93119e-07, No Iterations 25
Gingko init_host_sparsity_pattern : 8 ms
 matrix not stored update host matrix 
Gingko update_host_mtx : 3 ms
matrix is not yet sorted,  sorting host matrix 
Gingko sort_host_mtx_sparsity_pattern : 5 ms
Gingko sort_host_mtx : 3 ms
 found preconditioner 
Gingko init_preconditioner : 0 ms
Gingko solve : 37 ms
 copy back
 get iters 
BJompGKOBiCGStab:  Solving for Uy, Initial residual = 0.279293, Final residual = 8.99298e-07, No Iterations 21
 found preconditioner 
Gingko init_preconditioner : 0 ms
 CG create  precond 
Gingko solve : 938 ms
 copy back
 get iters 
BJompGKOCG:  Solving for p, Initial residual = 0.214144, Final residual = 6.41051e-06, No Iterations 999
time step continuity errors : sum local = 0.0116852, global = 0.00534818, cumulative = 0.00939294
smoothSolver:  Solving for nuTilda, Initial residual = 0.119542, Final residual = 0.00522742, No Iterations 4
ExecutionTime = 25.53 s  ClockTime = 4 s

Time = 4

Gingko init_host_sparsity_pattern : 8 ms
 matrix not stored update host matrix 
Gingko update_host_mtx : 4 ms
matrix is not yet sorted,  sorting host matrix 
Gingko sort_host_mtx_sparsity_pattern : 5 ms
Gingko sort_host_mtx : 3 ms
 found preconditioner 
Gingko init_preconditioner : 0 ms
Gingko solve : 51 ms
 copy back
 get iters 
BJompGKOBiCGStab:  Solving for Ux, Initial residual = 0.146861, Final residual = 8.30928e-07, No Iterations 29
Gingko init_host_sparsity_pattern : 8 ms
 matrix not stored update host matrix 
Gingko update_host_mtx : 3 ms
matrix is not yet sorted,  sorting host matrix 
Gingko sort_host_mtx_sparsity_pattern : 5 ms
Gingko sort_host_mtx : 3 ms
 found preconditioner 
Gingko init_preconditioner : 0 ms
Gingko solve : 54 ms
 copy back
 get iters 
BJompGKOBiCGStab:  Solving for Uy, Initial residual = 0.226578, Final residual = 9.55599e-07, No Iterations 30
 found preconditioner 
Gingko init_preconditioner : 0 ms
 CG create  precond 
Gingko solve : 939 ms
 copy back
 get iters 
BJompGKOCG:  Solving for p, Initial residual = 0.170575, Final residual = 5.66276e-06, No Iterations 999
time step continuity errors : sum local = 0.012968, global = 0.00522271, cumulative = 0.0146157
smoothSolver:  Solving for nuTilda, Initial residual = 0.125632, Final residual = 0.00567194, No Iterations 4
bounding nuTilda, min: -0.108206 max: 0.34982 average: 0.139475
ExecutionTime = 34.05 s  ClockTime = 5 s

Time = 5

Gingko init_host_sparsity_pattern : 7 ms
 matrix not stored update host matrix 
Gingko update_host_mtx : 3 ms
matrix is not yet sorted,  sorting host matrix 
Gingko sort_host_mtx_sparsity_pattern : 5 ms
Gingko sort_host_mtx : 3 ms
 found preconditioner 
Gingko init_preconditioner : 0 ms
Gingko solve : 76 ms
 copy back
 get iters 
BJompGKOBiCGStab:  Solving for Ux, Initial residual = 0.269478, Final residual = 8.1232e-07, No Iterations 43
Gingko init_host_sparsity_pattern : 8 ms
 matrix not stored update host matrix 
Gingko update_host_mtx : 3 ms
matrix is not yet sorted,  sorting host matrix 
Gingko sort_host_mtx_sparsity_pattern : 5 ms
Gingko sort_host_mtx : 3 ms
 found preconditioner 
Gingko init_preconditioner : 0 ms
Gingko solve : 76 ms
 copy back
 get iters 
BJompGKOBiCGStab:  Solving for Uy, Initial residual = 0.21705, Final residual = 7.55021e-07, No Iterations 42
 found preconditioner 
Gingko init_preconditioner : 0 ms
 CG create  precond 
Gingko solve : 936 ms
 copy back
 get iters 
BJompGKOCG:  Solving for p, Initial residual = 0.160037, Final residual = 1.21843e-05, No Iterations 999
time step continuity errors : sum local = 1.89378, global = 0.00573815, cumulative = 0.0203538
smoothSolver:  Solving for nuTilda, Initial residual = 0.0501911, Final residual = 0.0032269, No Iterations 22
ExecutionTime = 42.93 s  ClockTime = 6 s

End

