/*---------------------------------------------------------------------------*\
  =========                 |
  \\      /  F ield         | OpenFOAM: The Open Source CFD Toolbox
   \\    /   O peration     | Website:  https://openfoam.org
    \\  /    A nd           | Version:  8
     \\/     M anipulation  |
\*---------------------------------------------------------------------------*/
Build  : 8-13d66902f78c
Exec   : icoFoam
Date   : Jul 02 2021
Time   : 02:32:19
Host   : "uc2n527.localdomain"
PID    : 1097445
I/O    : uncollated
Case   : /pfs/data5/home/kit/scc/nq7776/code/OGL_DATA/lidDrivenCavity3D/v0.1-133-g6261adb/f584ccac99/IntelXeonGold6230CPU@2.10GHz/Test_2021-07-02-02:24:41/50/p-CG-GKO-none-omp/lidDrivenCavity3D
nProcs : 1
sigFpe : Enabling floating point exception trapping (FOAM_SIGFPE).
fileModificationChecking : Monitoring run-time modified files using timeStampMaster (fileModificationSkew 10)
allowSystemOperations : Allowing user-supplied system call operations

// * * * * * * * * * * * * * * * * * * * * * * * * * * * * * * * * * * * * * //
Create time

Create mesh for time = 0

Reading transportProperties

Reading field p

Reading field U

Reading/calculating face flux field phi


Starting time loop

Time = 0.002

Courant Number mean: 0 max: 0
nonePBiCGStab:  Solving for Ux, Initial residual = 1, Final residual = 0.0592055, No Iterations 5
nonePBiCGStab:  Solving for Uy, Initial residual = 0, Final residual = 0, No Iterations 0
nonePBiCGStab:  Solving for Uz, Initial residual = 0, Final residual = 0, No Iterations 0
[OGL LOG] init_host_sparsity_pattern : 36 ms
[OGL LOG] matrix not stored update host matrix
[OGL LOG] update_host_mtx : 18 ms
[OGL LOG] matrix is not yet sorted, compute sorting idxs
[OGL LOG] compute_sort : 986 ms
[OGL LOG] matrix is not yet sorted, sorting host matrix
[OGL LOG] sort_host_mtx_sparsity_pattern : 24 ms
[OGL LOG] sort_host_mtx : 15 ms
[OGL LOG] init_preconditioner : 0 ms
[OGL LOG] solve : 3767 ms
noneompGKOCG:  Solving for p, Initial residual = 1, Final residual = 6.25531e-23, No Iterations 1000
time step continuity errors : sum local = 2.4568e-15, global = -1.91839e-20, cumulative = -1.91839e-20
[OGL LOG] init_preconditioner : 0 ms
[OGL LOG] solve : 3797 ms
noneompGKOCG:  Solving for p, Initial residual = 0.676731, Final residual = 2.68436e-23, No Iterations 1000
time step continuity errors : sum local = 9.39005e-16, global = -1.02546e-20, cumulative = -2.94385e-20
ExecutionTime = 9.23 s  ClockTime = 10 s

Time = 0.004

Courant Number mean: 0.0636233 max: 0.723792
nonePBiCGStab:  Solving for Ux, Initial residual = 0.144136, Final residual = 0.0219208, No Iterations 5
nonePBiCGStab:  Solving for Uy, Initial residual = 0.363931, Final residual = 0.0522819, No Iterations 5
nonePBiCGStab:  Solving for Uz, Initial residual = 0.973677, Final residual = 0.158944, No Iterations 5
[OGL LOG] init_preconditioner : 0 ms
[OGL LOG] solve : 3791 ms
noneompGKOCG:  Solving for p, Initial residual = 0.668507, Final residual = 1.28304e-22, No Iterations 1000
time step continuity errors : sum local = 1.01203e-15, global = -1.45148e-20, cumulative = -4.39533e-20
[OGL LOG] init_preconditioner : 0 ms
[OGL LOG] solve : 3789 ms
noneompGKOCG:  Solving for p, Initial residual = 0.584655, Final residual = 1.14872e-22, No Iterations 1000
time step continuity errors : sum local = 3.18246e-16, global = 5.57175e-21, cumulative = -3.83815e-20
ExecutionTime = 16.92 s  ClockTime = 17 s

Time = 0.006

Courant Number mean: 0.0972275 max: 0.862515
nonePBiCGStab:  Solving for Ux, Initial residual = 0.0524189, Final residual = 0.00685535, No Iterations 5
nonePBiCGStab:  Solving for Uy, Initial residual = 0.127046, Final residual = 0.0201182, No Iterations 5
nonePBiCGStab:  Solving for Uz, Initial residual = 0.366752, Final residual = 0.0530698, No Iterations 5
[OGL LOG] init_preconditioner : 0 ms
[OGL LOG] solve : 3806 ms
noneompGKOCG:  Solving for p, Initial residual = 0.594544, Final residual = 1.03385e-22, No Iterations 1000
time step continuity errors : sum local = 1.94004e-16, global = 3.19553e-21, cumulative = -3.5186e-20
[OGL LOG] init_preconditioner : 0 ms
[OGL LOG] solve : 3796 ms
noneompGKOCG:  Solving for p, Initial residual = 0.528702, Final residual = 5.37691e-23, No Iterations 1000
time step continuity errors : sum local = 1.05316e-16, global = 1.09986e-20, cumulative = -2.41874e-20
ExecutionTime = 24.63 s  ClockTime = 25 s

Time = 0.008

Courant Number mean: 0.113794 max: 0.88248
nonePBiCGStab:  Solving for Ux, Initial residual = 0.0289573, Final residual = 0.00344464, No Iterations 5
nonePBiCGStab:  Solving for Uy, Initial residual = 0.0844254, Final residual = 0.0109195, No Iterations 5
nonePBiCGStab:  Solving for Uz, Initial residual = 0.229193, Final residual = 0.0297664, No Iterations 5
[OGL LOG] init_preconditioner : 0 ms
[OGL LOG] solve : 3789 ms
noneompGKOCG:  Solving for p, Initial residual = 0.411432, Final residual = 4.25153e-23, No Iterations 1000
time step continuity errors : sum local = 5.42463e-17, global = -5.06212e-20, cumulative = -7.48086e-20
[OGL LOG] init_preconditioner : 0 ms
[OGL LOG] solve : 3805 ms
noneompGKOCG:  Solving for p, Initial residual = 0.342686, Final residual = 3.36084e-23, No Iterations 1000
time step continuity errors : sum local = 6.42294e-17, global = 2.81444e-20, cumulative = -4.66642e-20
ExecutionTime = 32.34 s  ClockTime = 33 s

Time = 0.01

Courant Number mean: 0.127339 max: 0.898877
nonePBiCGStab:  Solving for Ux, Initial residual = 0.020277, Final residual = 0.00208485, No Iterations 5
nonePBiCGStab:  Solving for Uy, Initial residual = 0.0505563, Final residual = 0.00623586, No Iterations 5
nonePBiCGStab:  Solving for Uz, Initial residual = 0.112947, Final residual = 0.0180731, No Iterations 5
[OGL LOG] init_preconditioner : 0 ms
[OGL LOG] solve : 3797 ms
noneompGKOCG:  Solving for p, Initial residual = 0.354043, Final residual = 4.71669e-23, No Iterations 1000
time step continuity errors : sum local = 5.92013e-17, global = 2.06878e-20, cumulative = -2.59764e-20
[OGL LOG] init_preconditioner : 0 ms
[OGL LOG] solve : 3761 ms
noneompGKOCG:  Solving for p, Initial residual = 0.302211, Final residual = 3.87076e-23, No Iterations 1000
time step continuity errors : sum local = 6.36969e-17, global = 3.63608e-20, cumulative = 1.03844e-20
ExecutionTime = 40 s  ClockTime = 40 s

End

