/*---------------------------------------------------------------------------*\
  =========                 |
  \\      /  F ield         | OpenFOAM: The Open Source CFD Toolbox
   \\    /   O peration     | Website:  https://openfoam.org
    \\  /    A nd           | Version:  8
     \\/     M anipulation  |
\*---------------------------------------------------------------------------*/
Build  : 8-13d66902f78c
Exec   : icoFoam
Date   : Jul 02 2021
Time   : 02:43:09
Host   : "uc2n450.localdomain"
PID    : 1169358
I/O    : uncollated
Case   : /pfs/data5/home/kit/scc/nq7776/code/OGL_DATA/lidDrivenCavity3D/v0.1-133-g6261adb/f584ccac99/IntelXeonGold6230CPU@2.10GHz/Test_2021-07-02-02:36:36/25/p-CG-GKO-BJ-omp/lidDrivenCavity3D
nProcs : 1
sigFpe : Enabling floating point exception trapping (FOAM_SIGFPE).
fileModificationChecking : Monitoring run-time modified files using timeStampMaster (fileModificationSkew 10)
allowSystemOperations : Allowing user-supplied system call operations

// * * * * * * * * * * * * * * * * * * * * * * * * * * * * * * * * * * * * * //
Create time

Create mesh for time = 0

Reading transportProperties

Reading field p

Reading field U

Reading/calculating face flux field phi


Starting time loop

Time = 0.004

Courant Number mean: 0 max: 0
nonePBiCGStab:  Solving for Ux, Initial residual = 1, Final residual = 0.0337517, No Iterations 5
nonePBiCGStab:  Solving for Uy, Initial residual = 0, Final residual = 0, No Iterations 0
nonePBiCGStab:  Solving for Uz, Initial residual = 0, Final residual = 0, No Iterations 0
[OGL LOG] init_host_sparsity_pattern : 4 ms
[OGL LOG] matrix not stored update host matrix
[OGL LOG] update_host_mtx : 2 ms
[OGL LOG] matrix is not yet sorted, compute sorting idxs
[OGL LOG] compute_sort : 106 ms
[OGL LOG] matrix is not yet sorted, sorting host matrix
[OGL LOG] sort_host_mtx_sparsity_pattern : 3 ms
[OGL LOG] sort_host_mtx : 1 ms
[OGL LOG] init_preconditioner : 10 ms
 CG create  precond 
[OGL LOG] solve : 499 ms
BJompGKOCG:  Solving for p, Initial residual = 1, Final residual = 3.10989e-58, No Iterations 1000
time step continuity errors : sum local = 1.26448e-15, global = -1.11825e-19, cumulative = -1.11825e-19
[OGL LOG] init_preconditioner : 0 ms
 CG create  precond 
[OGL LOG] solve : 448 ms
BJompGKOCG:  Solving for p, Initial residual = 0.622285, Final residual = 8.33079e-58, No Iterations 1000
time step continuity errors : sum local = 4.62942e-16, global = -3.85585e-20, cumulative = -1.50384e-19
ExecutionTime = 62.19 s  ClockTime = 1 s

Time = 0.008

Courant Number mean: 0.084228 max: 0.621061
nonePBiCGStab:  Solving for Ux, Initial residual = 0.149589, Final residual = 0.00942683, No Iterations 5
nonePBiCGStab:  Solving for Uy, Initial residual = 0.281195, Final residual = 0.0142199, No Iterations 5
nonePBiCGStab:  Solving for Uz, Initial residual = 0.933287, Final residual = 0.0511081, No Iterations 5
[OGL LOG] init_preconditioner : 0 ms
 CG create  precond 
[OGL LOG] solve : 462 ms
BJompGKOCG:  Solving for p, Initial residual = 0.518045, Final residual = 1.47584e-55, No Iterations 1000
time step continuity errors : sum local = 4.71047e-16, global = 1.24703e-19, cumulative = -2.56808e-20
[OGL LOG] init_preconditioner : 0 ms
 CG create  precond 
[OGL LOG] solve : 451 ms
BJompGKOCG:  Solving for p, Initial residual = 0.415898, Final residual = 1.41065e-58, No Iterations 1000
time step continuity errors : sum local = 1.90137e-16, global = -6.85545e-20, cumulative = -9.42353e-20
ExecutionTime = 121.2 s  ClockTime = 2 s

Time = 0.012

Courant Number mean: 0.124051 max: 0.792234
nonePBiCGStab:  Solving for Ux, Initial residual = 0.0425001, Final residual = 0.00204637, No Iterations 5
nonePBiCGStab:  Solving for Uy, Initial residual = 0.0761453, Final residual = 0.00263682, No Iterations 5
nonePBiCGStab:  Solving for Uz, Initial residual = 0.142709, Final residual = 0.00668456, No Iterations 5
[OGL LOG] init_preconditioner : 0 ms
 CG create  precond 
[OGL LOG] solve : 456 ms
BJompGKOCG:  Solving for p, Initial residual = 0.279188, Final residual = 5.86513e-60, No Iterations 1000
time step continuity errors : sum local = 7.01354e-17, global = 1.64778e-20, cumulative = -7.77575e-20
[OGL LOG] init_preconditioner : 0 ms
 CG create  precond 
[OGL LOG] solve : 462 ms
BJompGKOCG:  Solving for p, Initial residual = 0.224051, Final residual = 2.05438e-59, No Iterations 1000
time step continuity errors : sum local = 7.25717e-17, global = -5.58696e-20, cumulative = -1.33627e-19
ExecutionTime = 180.45 s  ClockTime = 3 s

Time = 0.016

Courant Number mean: 0.142529 max: 0.824384
nonePBiCGStab:  Solving for Ux, Initial residual = 0.0219032, Final residual = 0.000752461, No Iterations 5
nonePBiCGStab:  Solving for Uy, Initial residual = 0.0474704, Final residual = 0.000975033, No Iterations 5
nonePBiCGStab:  Solving for Uz, Initial residual = 0.092654, Final residual = 0.00322904, No Iterations 5
[OGL LOG] init_preconditioner : 0 ms
 CG create  precond 
[OGL LOG] solve : 461 ms
BJompGKOCG:  Solving for p, Initial residual = 0.13855, Final residual = 9.04789e-58, No Iterations 1000
time step continuity errors : sum local = 4.81294e-17, global = 1.22746e-19, cumulative = -1.08807e-20
[OGL LOG] init_preconditioner : 0 ms
 CG create  precond 
[OGL LOG] solve : 457 ms
BJompGKOCG:  Solving for p, Initial residual = 0.10656, Final residual = 2.0741e-59, No Iterations 1000
time step continuity errors : sum local = 6.84189e-17, global = 6.23639e-20, cumulative = 5.14832e-20
ExecutionTime = 239.77 s  ClockTime = 4 s

Time = 0.02

Courant Number mean: 0.154857 max: 0.843613
nonePBiCGStab:  Solving for Ux, Initial residual = 0.0136635, Final residual = 0.000405685, No Iterations 5
nonePBiCGStab:  Solving for Uy, Initial residual = 0.0288036, Final residual = 0.00072801, No Iterations 5
nonePBiCGStab:  Solving for Uz, Initial residual = 0.0551893, Final residual = 0.00171378, No Iterations 5
[OGL LOG] init_preconditioner : 0 ms
 CG create  precond 
[OGL LOG] solve : 456 ms
BJompGKOCG:  Solving for p, Initial residual = 0.0654137, Final residual = 5.48036e-59, No Iterations 1000
time step continuity errors : sum local = 5.57906e-17, global = -1.46183e-20, cumulative = 3.68649e-20
[OGL LOG] init_preconditioner : 0 ms
 CG create  precond 
[OGL LOG] solve : 452 ms
BJompGKOCG:  Solving for p, Initial residual = 0.0510735, Final residual = 2.46395e-59, No Iterations 1000
time step continuity errors : sum local = 6.72619e-17, global = -1.24943e-19, cumulative = -8.80781e-20
ExecutionTime = 298.34 s  ClockTime = 5 s

End

