/*---------------------------------------------------------------------------*\
  =========                 |
  \\      /  F ield         | OpenFOAM: The Open Source CFD Toolbox
   \\    /   O peration     | Website:  https://openfoam.org
    \\  /    A nd           | Version:  8
     \\/     M anipulation  |
\*---------------------------------------------------------------------------*/
Build  : 8-13d66902f78c
Exec   : icoFoam
Date   : Jul 02 2021
Time   : 02:52:12
Host   : "uc2n469.localdomain"
PID    : 2570489
I/O    : uncollated
Case   : /pfs/data5/home/kit/scc/nq7776/code/OGL_DATA/lidDrivenCavity3D/v0.1-133-g6261adb/f584ccac99/IntelXeonGold6230CPU@2.10GHz/Test_2021-07-02-02:36:37/50/p-U-BiCGStab-GKO-none-omp/lidDrivenCavity3D
nProcs : 1
sigFpe : Enabling floating point exception trapping (FOAM_SIGFPE).
fileModificationChecking : Monitoring run-time modified files using timeStampMaster (fileModificationSkew 10)
allowSystemOperations : Allowing user-supplied system call operations

// * * * * * * * * * * * * * * * * * * * * * * * * * * * * * * * * * * * * * //
Create time

Create mesh for time = 0

Reading transportProperties

Reading field p

Reading field U

Reading/calculating face flux field phi


Starting time loop

Time = 0.002

Courant Number mean: 0 max: 0
[OGL LOG] init_host_sparsity_pattern : 36 ms
[OGL LOG] matrix not stored update host matrix
[OGL LOG] update_host_mtx : 18 ms
[OGL LOG] matrix is not yet sorted, compute sorting idxs
[OGL LOG] compute_sort : 986 ms
[OGL LOG] matrix is not yet sorted, sorting host matrix
[OGL LOG] sort_host_mtx_sparsity_pattern : 24 ms
[OGL LOG] sort_host_mtx : 15 ms
[OGL LOG] init_preconditioner : 0 ms
[OGL LOG] solve : 11014 ms
noneompGKOBiCGStab:  Solving for Ux, Initial residual = 1, Final residual = 2.52701e-153, No Iterations 1000
[OGL LOG] init_host_sparsity_pattern : 34 ms
[OGL LOG] matrix not stored update host matrix
[OGL LOG] update_host_mtx : 18 ms
[OGL LOG] matrix is not yet sorted, sorting host matrix
[OGL LOG] sort_host_mtx_sparsity_pattern : 24 ms
[OGL LOG] sort_host_mtx : 12 ms
[OGL LOG] init_preconditioner : 0 ms
[OGL LOG] solve : 7614 ms
noneompGKOBiCGStab:  Solving for Uy, Initial residual = 0, Final residual = 0, No Iterations 1000
[OGL LOG] init_host_sparsity_pattern : 33 ms
[OGL LOG] matrix not stored update host matrix
[OGL LOG] update_host_mtx : 16 ms
[OGL LOG] matrix is not yet sorted, sorting host matrix
[OGL LOG] sort_host_mtx_sparsity_pattern : 24 ms
[OGL LOG] sort_host_mtx : 12 ms
[OGL LOG] init_preconditioner : 0 ms
[OGL LOG] solve : 7676 ms
noneompGKOBiCGStab:  Solving for Uz, Initial residual = 0, Final residual = 0, No Iterations 1000
[OGL LOG] init_host_sparsity_pattern : 33 ms
[OGL LOG] matrix not stored update host matrix
[OGL LOG] update_host_mtx : 18 ms
[OGL LOG] matrix is not yet sorted, sorting host matrix
[OGL LOG] sort_host_mtx_sparsity_pattern : 23 ms
[OGL LOG] sort_host_mtx : 14 ms
[OGL LOG] init_preconditioner : 0 ms
[OGL LOG] solve : 7594 ms
noneompGKOBiCGStab:  Solving for p, Initial residual = 1, Final residual = 5.49553e-26, No Iterations 1000
time step continuity errors : sum local = 1.08304e-14, global = 4.63062e-21, cumulative = 4.63062e-21
[OGL LOG] init_preconditioner : 0 ms
[OGL LOG] solve : 7603 ms
noneompGKOBiCGStab:  Solving for p, Initial residual = 0.72158, Final residual = 1.63661e-27, No Iterations 1000
time step continuity errors : sum local = 1.13499e-15, global = 7.94605e-21, cumulative = 1.25767e-20
ExecutionTime = 43.37 s  ClockTime = 43 s

Time = 0.004

Courant Number mean: 0.0720722 max: 0.726639
[OGL LOG] init_host_sparsity_pattern : 33 ms
[OGL LOG] matrix not stored update host matrix
[OGL LOG] update_host_mtx : 16 ms
[OGL LOG] matrix is not yet sorted, sorting host matrix
[OGL LOG] sort_host_mtx_sparsity_pattern : 22 ms
[OGL LOG] sort_host_mtx : 13 ms
[OGL LOG] init_preconditioner : 0 ms
[OGL LOG] solve : 10398 ms
noneompGKOBiCGStab:  Solving for Ux, Initial residual = 0.203465, Final residual = 4.92888e-153, No Iterations 1000
[OGL LOG] init_host_sparsity_pattern : 33 ms
[OGL LOG] matrix not stored update host matrix
[OGL LOG] update_host_mtx : 16 ms
[OGL LOG] matrix is not yet sorted, sorting host matrix
[OGL LOG] sort_host_mtx_sparsity_pattern : 23 ms
[OGL LOG] sort_host_mtx : 13 ms
[OGL LOG] init_preconditioner : 0 ms
[OGL LOG] solve : 9562 ms
noneompGKOBiCGStab:  Solving for Uy, Initial residual = 0.618431, Final residual = 4.14103e-153, No Iterations 1000
[OGL LOG] init_host_sparsity_pattern : 33 ms
[OGL LOG] matrix not stored update host matrix
[OGL LOG] update_host_mtx : 16 ms
[OGL LOG] matrix is not yet sorted, sorting host matrix
[OGL LOG] sort_host_mtx_sparsity_pattern : 22 ms
[OGL LOG] sort_host_mtx : 13 ms
[OGL LOG] init_preconditioner : 0 ms
[OGL LOG] solve : 10870 ms
noneompGKOBiCGStab:  Solving for Uz, Initial residual = 0.536256, Final residual = 3.15876e-150, No Iterations 1000
[OGL LOG] init_preconditioner : 0 ms
[OGL LOG] solve : 7585 ms
noneompGKOBiCGStab:  Solving for p, Initial residual = 0.673317, Final residual = 2.44252e-31, No Iterations 1000
time step continuity errors : sum local = 1.73398e-15, global = 2.59119e-20, cumulative = 3.84886e-20
[OGL LOG] init_preconditioner : 0 ms
[OGL LOG] solve : 7580 ms
noneompGKOBiCGStab:  Solving for p, Initial residual = 0.598887, Final residual = 1.29503e-27, No Iterations 1000
time step continuity errors : sum local = 7.83271e-16, global = -6.03263e-20, cumulative = -2.18377e-20
ExecutionTime = 89.62 s  ClockTime = 90 s

Time = 0.006

Courant Number mean: 0.107408 max: 0.881754
[OGL LOG] init_host_sparsity_pattern : 33 ms
[OGL LOG] matrix not stored update host matrix
[OGL LOG] update_host_mtx : 16 ms
[OGL LOG] matrix is not yet sorted, sorting host matrix
[OGL LOG] sort_host_mtx_sparsity_pattern : 22 ms
[OGL LOG] sort_host_mtx : 12 ms
[OGL LOG] init_preconditioner : 0 ms
[OGL LOG] solve : 10525 ms
noneompGKOBiCGStab:  Solving for Ux, Initial residual = 0.0995689, Final residual = 4.30187e-154, No Iterations 1000
[OGL LOG] init_host_sparsity_pattern : 33 ms
[OGL LOG] matrix not stored update host matrix
[OGL LOG] update_host_mtx : 16 ms
[OGL LOG] matrix is not yet sorted, sorting host matrix
[OGL LOG] sort_host_mtx_sparsity_pattern : 22 ms
[OGL LOG] sort_host_mtx : 12 ms
[OGL LOG] init_preconditioner : 0 ms
[OGL LOG] solve : 10636 ms
noneompGKOBiCGStab:  Solving for Uy, Initial residual = 0.249969, Final residual = 2.02285e-152, No Iterations 1000
[OGL LOG] init_host_sparsity_pattern : 33 ms
[OGL LOG] matrix not stored update host matrix
[OGL LOG] update_host_mtx : 16 ms
[OGL LOG] matrix is not yet sorted, sorting host matrix
[OGL LOG] sort_host_mtx_sparsity_pattern : 22 ms
[OGL LOG] sort_host_mtx : 12 ms
[OGL LOG] init_preconditioner : 0 ms
[OGL LOG] solve : 11683 ms
noneompGKOBiCGStab:  Solving for Uz, Initial residual = 0.540949, Final residual = 1.55933e-150, No Iterations 1000
[OGL LOG] init_preconditioner : 0 ms
[OGL LOG] solve : 7728 ms
noneompGKOBiCGStab:  Solving for p, Initial residual = 0.606885, Final residual = 2.27337e-30, No Iterations 1000
time step continuity errors : sum local = 3.13607e-16, global = 1.84875e-20, cumulative = -3.3502e-21
[OGL LOG] init_preconditioner : 0 ms
[OGL LOG] solve : 7598 ms
noneompGKOBiCGStab:  Solving for p, Initial residual = 0.560841, Final residual = 7.26089e-29, No Iterations 1000
time step continuity errors : sum local = 1.21763e-16, global = -1.41635e-20, cumulative = -1.75137e-20
ExecutionTime = 138.05 s  ClockTime = 138 s

Time = 0.008

Courant Number mean: 0.123244 max: 0.890102
[OGL LOG] init_host_sparsity_pattern : 33 ms
[OGL LOG] matrix not stored update host matrix
[OGL LOG] update_host_mtx : 16 ms
[OGL LOG] matrix is not yet sorted, sorting host matrix
[OGL LOG] sort_host_mtx_sparsity_pattern : 22 ms
[OGL LOG] sort_host_mtx : 12 ms
[OGL LOG] init_preconditioner : 0 ms
[OGL LOG] solve : 10338 ms
noneompGKOBiCGStab:  Solving for Ux, Initial residual = 0.0341429, Final residual = 1.38993e-152, No Iterations 1000
[OGL LOG] init_host_sparsity_pattern : 33 ms
[OGL LOG] matrix not stored update host matrix
[OGL LOG] update_host_mtx : 16 ms
[OGL LOG] matrix is not yet sorted, sorting host matrix
[OGL LOG] sort_host_mtx_sparsity_pattern : 22 ms
[OGL LOG] sort_host_mtx : 12 ms
[OGL LOG] init_preconditioner : 0 ms
[OGL LOG] solve : 11013 ms
noneompGKOBiCGStab:  Solving for Uy, Initial residual = 0.13238, Final residual = 7.51095e-153, No Iterations 1000
[OGL LOG] init_host_sparsity_pattern : 33 ms
[OGL LOG] matrix not stored update host matrix
[OGL LOG] update_host_mtx : 16 ms
[OGL LOG] matrix is not yet sorted, sorting host matrix
[OGL LOG] sort_host_mtx_sparsity_pattern : 22 ms
[OGL LOG] sort_host_mtx : 12 ms
[OGL LOG] init_preconditioner : 0 ms
[OGL LOG] solve : 10968 ms
noneompGKOBiCGStab:  Solving for Uz, Initial residual = 0.471961, Final residual = 2.43177e-150, No Iterations 1000
[OGL LOG] init_preconditioner : 0 ms
[OGL LOG] solve : 7642 ms
noneompGKOBiCGStab:  Solving for p, Initial residual = 0.42304, Final residual = 1.28302e-23, No Iterations 1000
time step continuity errors : sum local = 9.01502e-16, global = 3.72111e-20, cumulative = 1.96974e-20
[OGL LOG] init_preconditioner : 0 ms
[OGL LOG] solve : 7693 ms
noneompGKOBiCGStab:  Solving for p, Initial residual = 0.36838, Final residual = 9.32215e-29, No Iterations 1000
time step continuity errors : sum local = 6.80004e-17, global = 1.05682e-21, cumulative = 2.07542e-20
ExecutionTime = 185.97 s  ClockTime = 186 s

Time = 0.01

Courant Number mean: 0.136096 max: 0.906942
[OGL LOG] init_host_sparsity_pattern : 33 ms
[OGL LOG] matrix not stored update host matrix
[OGL LOG] update_host_mtx : 16 ms
[OGL LOG] matrix is not yet sorted, sorting host matrix
[OGL LOG] sort_host_mtx_sparsity_pattern : 22 ms
[OGL LOG] sort_host_mtx : 12 ms
[OGL LOG] init_preconditioner : 0 ms
[OGL LOG] solve : 10024 ms
noneompGKOBiCGStab:  Solving for Ux, Initial residual = 0.0230735, Final residual = 8.05029e-154, No Iterations 1000
[OGL LOG] init_host_sparsity_pattern : 33 ms
[OGL LOG] matrix not stored update host matrix
[OGL LOG] update_host_mtx : 16 ms
[OGL LOG] matrix is not yet sorted, sorting host matrix
[OGL LOG] sort_host_mtx_sparsity_pattern : 22 ms
[OGL LOG] sort_host_mtx : 12 ms
[OGL LOG] init_preconditioner : 0 ms
[OGL LOG] solve : 10923 ms
noneompGKOBiCGStab:  Solving for Uy, Initial residual = 0.0484111, Final residual = 3.03925e-152, No Iterations 1000
[OGL LOG] init_host_sparsity_pattern : 33 ms
[OGL LOG] matrix not stored update host matrix
[OGL LOG] update_host_mtx : 16 ms
[OGL LOG] matrix is not yet sorted, sorting host matrix
[OGL LOG] sort_host_mtx_sparsity_pattern : 22 ms
[OGL LOG] sort_host_mtx : 12 ms
[OGL LOG] init_preconditioner : 0 ms
[OGL LOG] solve : 10709 ms
noneompGKOBiCGStab:  Solving for Uz, Initial residual = 0.159038, Final residual = 1.41406e-150, No Iterations 1000
[OGL LOG] init_preconditioner : 0 ms
[OGL LOG] solve : 7627 ms
noneompGKOBiCGStab:  Solving for p, Initial residual = 0.361667, Final residual = 9.22124e-30, No Iterations 1000
time step continuity errors : sum local = 1.10356e-16, global = 1.33151e-20, cumulative = 3.40694e-20
[OGL LOG] init_preconditioner : 0 ms
[OGL LOG] solve : 7627 ms
noneompGKOBiCGStab:  Solving for p, Initial residual = 0.333161, Final residual = 2.18707e-25, No Iterations 1000
time step continuity errors : sum local = 7.11911e-17, global = 1.36976e-20, cumulative = 4.7767e-20
ExecutionTime = 233.15 s  ClockTime = 233 s

End

