/*---------------------------------------------------------------------------*\
  =========                 |
  \\      /  F ield         | OpenFOAM: The Open Source CFD Toolbox
   \\    /   O peration     | Website:  https://openfoam.org
    \\  /    A nd           | Version:  8
     \\/     M anipulation  |
\*---------------------------------------------------------------------------*/
Build  : 8-13d66902f78c
Exec   : icoFoam
Date   : Jul 02 2021
Time   : 05:20:55
Host   : "uc2n524.localdomain"
PID    : 1245860
I/O    : uncollated
Case   : /pfs/data5/home/kit/scc/nq7776/code/OGL_DATA/lidDrivenCavity3D/v0.1-133-g6261adb/f584ccac99/IntelXeonGold6230CPU@2.10GHz/Test_2021-07-02-02:53:10/50/p-U-BiCGStab-GKO-BJ-omp/lidDrivenCavity3D
nProcs : 1
sigFpe : Enabling floating point exception trapping (FOAM_SIGFPE).
fileModificationChecking : Monitoring run-time modified files using timeStampMaster (fileModificationSkew 10)
allowSystemOperations : Allowing user-supplied system call operations

// * * * * * * * * * * * * * * * * * * * * * * * * * * * * * * * * * * * * * //
Create time

Create mesh for time = 0

Reading transportProperties

Reading field p

Reading field U

Reading/calculating face flux field phi


Starting time loop

Time = 0.002

Courant Number mean: 0 max: 0
[OGL LOG] init_host_sparsity_pattern : 36 ms
[OGL LOG] matrix not stored update host matrix
[OGL LOG] update_host_mtx : 18 ms
[OGL LOG] matrix is not yet sorted, compute sorting idxs
[OGL LOG] compute_sort : 986 ms
[OGL LOG] matrix is not yet sorted, sorting host matrix
[OGL LOG] sort_host_mtx_sparsity_pattern : 24 ms
[OGL LOG] sort_host_mtx : 15 ms
[OGL LOG] init_preconditioner : 3 ms
[OGL LOG] solve : 8210 ms
BJompGKOBiCGStab:  Solving for Ux, Initial residual = 1, Final residual = 1.87331e-156, No Iterations 1000
[OGL LOG] init_host_sparsity_pattern : 39 ms
[OGL LOG] matrix not stored update host matrix
[OGL LOG] update_host_mtx : 22 ms
[OGL LOG] matrix is not yet sorted, sorting host matrix
[OGL LOG] sort_host_mtx_sparsity_pattern : 27 ms
[OGL LOG] sort_host_mtx : 13 ms
[OGL LOG] init_preconditioner : 3 ms
[OGL LOG] solve : 3340 ms
BJompGKOBiCGStab:  Solving for Uy, Initial residual = 0, Final residual = 0, No Iterations 1000
[OGL LOG] init_host_sparsity_pattern : 34 ms
[OGL LOG] matrix not stored update host matrix
[OGL LOG] update_host_mtx : 16 ms
[OGL LOG] matrix is not yet sorted, sorting host matrix
[OGL LOG] sort_host_mtx_sparsity_pattern : 25 ms
[OGL LOG] sort_host_mtx : 12 ms
[OGL LOG] init_preconditioner : 2 ms
[OGL LOG] solve : 3373 ms
BJompGKOBiCGStab:  Solving for Uz, Initial residual = 0, Final residual = 0, No Iterations 1000
[OGL LOG] init_host_sparsity_pattern : 33 ms
[OGL LOG] matrix not stored update host matrix
[OGL LOG] update_host_mtx : 18 ms
[OGL LOG] matrix is not yet sorted, sorting host matrix
[OGL LOG] sort_host_mtx_sparsity_pattern : 23 ms
[OGL LOG] sort_host_mtx : 14 ms
[OGL LOG] init_preconditioner : 3 ms
[OGL LOG] solve : 3278 ms
BJompGKOBiCGStab:  Solving for p, Initial residual = 1, Final residual = 5.59543e-40, No Iterations 1000
time step continuity errors : sum local = 7.1293e-15, global = -5.27706e-21, cumulative = -5.27706e-21
[OGL LOG] init_preconditioner : 0 ms
[OGL LOG] solve : 3274 ms
BJompGKOBiCGStab:  Solving for p, Initial residual = 0.72158, Final residual = 1.58088e-45, No Iterations 1000
time step continuity errors : sum local = 2.1829e-15, global = -6.07443e-21, cumulative = -1.13515e-20
ExecutionTime = 674.59 s  ClockTime = 23 s

Time = 0.004

Courant Number mean: 0.0720722 max: 0.726639
[OGL LOG] init_host_sparsity_pattern : 33 ms
[OGL LOG] matrix not stored update host matrix
[OGL LOG] update_host_mtx : 16 ms
[OGL LOG] matrix is not yet sorted, sorting host matrix
[OGL LOG] sort_host_mtx_sparsity_pattern : 24 ms
[OGL LOG] sort_host_mtx : 13 ms
[OGL LOG] init_preconditioner : 0 ms
[OGL LOG] solve : 8137 ms
BJompGKOBiCGStab:  Solving for Ux, Initial residual = 0.203465, Final residual = 8.08381e-157, No Iterations 1000
[OGL LOG] init_host_sparsity_pattern : 35 ms
[OGL LOG] matrix not stored update host matrix
[OGL LOG] update_host_mtx : 18 ms
[OGL LOG] matrix is not yet sorted, sorting host matrix
[OGL LOG] sort_host_mtx_sparsity_pattern : 24 ms
[OGL LOG] sort_host_mtx : 13 ms
[OGL LOG] init_preconditioner : 0 ms
[OGL LOG] solve : 8531 ms
BJompGKOBiCGStab:  Solving for Uy, Initial residual = 0.618431, Final residual = 5.79113e-156, No Iterations 1000
[OGL LOG] init_host_sparsity_pattern : 36 ms
[OGL LOG] matrix not stored update host matrix
[OGL LOG] update_host_mtx : 21 ms
[OGL LOG] matrix is not yet sorted, sorting host matrix
[OGL LOG] sort_host_mtx_sparsity_pattern : 24 ms
[OGL LOG] sort_host_mtx : 13 ms
[OGL LOG] init_preconditioner : 0 ms
[OGL LOG] solve : 6518 ms
BJompGKOBiCGStab:  Solving for Uz, Initial residual = 0.536256, Final residual = 1.10161e-155, No Iterations 1000
[OGL LOG] init_preconditioner : 0 ms
[OGL LOG] solve : 3593 ms
BJompGKOBiCGStab:  Solving for p, Initial residual = 0.673317, Final residual = 1.09962e-44, No Iterations 1000
time step continuity errors : sum local = 2.08734e-15, global = -3.81396e-21, cumulative = -1.51654e-20
[OGL LOG] init_preconditioner : 0 ms
[OGL LOG] solve : 3420 ms
BJompGKOBiCGStab:  Solving for p, Initial residual = 0.598887, Final residual = 3.87951e-47, No Iterations 1000
time step continuity errors : sum local = 1.0761e-15, global = -8.19694e-21, cumulative = -2.33624e-20
ExecutionTime = 1597.71 s  ClockTime = 54 s

Time = 0.006

Courant Number mean: 0.107408 max: 0.881754
[OGL LOG] init_host_sparsity_pattern : 33 ms
[OGL LOG] matrix not stored update host matrix
[OGL LOG] update_host_mtx : 16 ms
[OGL LOG] matrix is not yet sorted, sorting host matrix
[OGL LOG] sort_host_mtx_sparsity_pattern : 23 ms
[OGL LOG] sort_host_mtx : 13 ms
[OGL LOG] init_preconditioner : 0 ms
[OGL LOG] solve : 8335 ms
BJompGKOBiCGStab:  Solving for Ux, Initial residual = 0.0995689, Final residual = 1.91488e-157, No Iterations 1000
[OGL LOG] init_host_sparsity_pattern : 35 ms
[OGL LOG] matrix not stored update host matrix
[OGL LOG] update_host_mtx : 18 ms
[OGL LOG] matrix is not yet sorted, sorting host matrix
[OGL LOG] sort_host_mtx_sparsity_pattern : 24 ms
[OGL LOG] sort_host_mtx : 13 ms
[OGL LOG] init_preconditioner : 0 ms
[OGL LOG] solve : 7701 ms
BJompGKOBiCGStab:  Solving for Uy, Initial residual = 0.249969, Final residual = 4.99566e-157, No Iterations 1000
[OGL LOG] init_host_sparsity_pattern : 34 ms
[OGL LOG] matrix not stored update host matrix
[OGL LOG] update_host_mtx : 16 ms
[OGL LOG] matrix is not yet sorted, sorting host matrix
[OGL LOG] sort_host_mtx_sparsity_pattern : 23 ms
[OGL LOG] sort_host_mtx : 13 ms
[OGL LOG] init_preconditioner : 0 ms
[OGL LOG] solve : 8495 ms
BJompGKOBiCGStab:  Solving for Uz, Initial residual = 0.540949, Final residual = 2.01464e-155, No Iterations 1000
[OGL LOG] init_preconditioner : 0 ms
[OGL LOG] solve : 3392 ms
BJompGKOBiCGStab:  Solving for p, Initial residual = 0.606885, Final residual = 9.23456e-48, No Iterations 1000
time step continuity errors : sum local = 2.93075e-16, global = -3.54995e-20, cumulative = -5.88619e-20
[OGL LOG] init_preconditioner : 0 ms
[OGL LOG] solve : 3399 ms
BJompGKOBiCGStab:  Solving for p, Initial residual = 0.560841, Final residual = 5.50495e-45, No Iterations 1000
time step continuity errors : sum local = 8.77033e-16, global = -8.79371e-21, cumulative = -6.76556e-20
ExecutionTime = 2554.03 s  ClockTime = 85 s

Time = 0.008

Courant Number mean: 0.123244 max: 0.890102
[OGL LOG] init_host_sparsity_pattern : 33 ms
[OGL LOG] matrix not stored update host matrix
[OGL LOG] update_host_mtx : 16 ms
[OGL LOG] matrix is not yet sorted, sorting host matrix
[OGL LOG] sort_host_mtx_sparsity_pattern : 24 ms
[OGL LOG] sort_host_mtx : 13 ms
[OGL LOG] init_preconditioner : 0 ms
[OGL LOG] solve : 8301 ms
BJompGKOBiCGStab:  Solving for Ux, Initial residual = 0.0341429, Final residual = 1.10344e-156, No Iterations 1000
[OGL LOG] init_host_sparsity_pattern : 34 ms
[OGL LOG] matrix not stored update host matrix
[OGL LOG] update_host_mtx : 16 ms
[OGL LOG] matrix is not yet sorted, sorting host matrix
[OGL LOG] sort_host_mtx_sparsity_pattern : 24 ms
[OGL LOG] sort_host_mtx : 13 ms
[OGL LOG] init_preconditioner : 0 ms
[OGL LOG] solve : 7797 ms
BJompGKOBiCGStab:  Solving for Uy, Initial residual = 0.13238, Final residual = 1.00557e-156, No Iterations 1000
[OGL LOG] init_host_sparsity_pattern : 36 ms
[OGL LOG] matrix not stored update host matrix
[OGL LOG] update_host_mtx : 19 ms
[OGL LOG] matrix is not yet sorted, sorting host matrix
[OGL LOG] sort_host_mtx_sparsity_pattern : 25 ms
[OGL LOG] sort_host_mtx : 12 ms
[OGL LOG] init_preconditioner : 0 ms
[OGL LOG] solve : 8370 ms
BJompGKOBiCGStab:  Solving for Uz, Initial residual = 0.471961, Final residual = 1.41075e-154, No Iterations 1000
[OGL LOG] init_preconditioner : 0 ms
[OGL LOG] solve : 3396 ms
BJompGKOBiCGStab:  Solving for p, Initial residual = 0.42304, Final residual = 1.70837e-46, No Iterations 1000
time step continuity errors : sum local = 1.33361e-16, global = -7.52704e-21, cumulative = -7.51826e-20
[OGL LOG] init_preconditioner : 0 ms
[OGL LOG] solve : 3397 ms
BJompGKOBiCGStab:  Solving for p, Initial residual = 0.36838, Final residual = 1.17204e-48, No Iterations 1000
time step continuity errors : sum local = 6.31326e-17, global = -1.48338e-20, cumulative = -9.00164e-20
ExecutionTime = 3507.84 s  ClockTime = 117 s

Time = 0.01

Courant Number mean: 0.136096 max: 0.906942
[OGL LOG] init_host_sparsity_pattern : 33 ms
[OGL LOG] matrix not stored update host matrix
[OGL LOG] update_host_mtx : 16 ms
[OGL LOG] matrix is not yet sorted, sorting host matrix
[OGL LOG] sort_host_mtx_sparsity_pattern : 25 ms
[OGL LOG] sort_host_mtx : 13 ms
[OGL LOG] init_preconditioner : 0 ms
[OGL LOG] solve : 8605 ms
BJompGKOBiCGStab:  Solving for Ux, Initial residual = 0.0230735, Final residual = 3.37016e-157, No Iterations 1000
[OGL LOG] init_host_sparsity_pattern : 34 ms
[OGL LOG] matrix not stored update host matrix
[OGL LOG] update_host_mtx : 16 ms
[OGL LOG] matrix is not yet sorted, sorting host matrix
[OGL LOG] sort_host_mtx_sparsity_pattern : 23 ms
[OGL LOG] sort_host_mtx : 13 ms
[OGL LOG] init_preconditioner : 0 ms
[OGL LOG] solve : 8100 ms
BJompGKOBiCGStab:  Solving for Uy, Initial residual = 0.0484111, Final residual = 1.73867e-157, No Iterations 1000
[OGL LOG] init_host_sparsity_pattern : 34 ms
[OGL LOG] matrix not stored update host matrix
[OGL LOG] update_host_mtx : 16 ms
[OGL LOG] matrix is not yet sorted, sorting host matrix
[OGL LOG] sort_host_mtx_sparsity_pattern : 23 ms
[OGL LOG] sort_host_mtx : 13 ms
[OGL LOG] init_preconditioner : 0 ms
[OGL LOG] solve : 7453 ms
BJompGKOBiCGStab:  Solving for Uz, Initial residual = 0.159038, Final residual = 2.87357e-155, No Iterations 1000
[OGL LOG] init_preconditioner : 0 ms
[OGL LOG] solve : 3357 ms
BJompGKOBiCGStab:  Solving for p, Initial residual = 0.361667, Final residual = 5.75942e-47, No Iterations 1000
time step continuity errors : sum local = 1.01685e-16, global = -3.8082e-20, cumulative = -1.28098e-19
[OGL LOG] init_preconditioner : 0 ms
[OGL LOG] solve : 3641 ms
BJompGKOBiCGStab:  Solving for p, Initial residual = 0.333161, Final residual = 3.834e-51, No Iterations 1000
time step continuity errors : sum local = 6.32106e-17, global = -4.96718e-21, cumulative = -1.33066e-19
ExecutionTime = 4462.46 s  ClockTime = 149 s

End

