/*---------------------------------------------------------------------------*\
  =========                 |
  \\      /  F ield         | OpenFOAM: The Open Source CFD Toolbox
   \\    /   O peration     | Website:  https://openfoam.org
    \\  /    A nd           | Version:  7
     \\/     M anipulation  |
\*---------------------------------------------------------------------------*/
Build  : 7-63349425784a
Exec   : icoFoam
Date   : Jun 24 2021
Time   : 10:05:55
Host   : "uc2n361.localdomain"
PID    : 4101257
I/O    : uncollated
Case   : /pfs/data5/home/kit/scc/nq7776/code/OGL_DATA/lidDrivenCavity3D/v0.1-108-gfe9e387/f584ccac99/IntelXeonGold6230CPU@2.10GHz/Test_2021-06-23-10:56:25/25/p-U-CG-GKO-none-omp/lidDrivenCavity3D
nProcs : 1
sigFpe : Enabling floating point exception trapping (FOAM_SIGFPE).
fileModificationChecking : Monitoring run-time modified files using timeStampMaster (fileModificationSkew 10)
allowSystemOperations : Allowing user-supplied system call operations

// * * * * * * * * * * * * * * * * * * * * * * * * * * * * * * * * * * * * * //
Create time

Create mesh for time = 0

Reading transportProperties

Reading field p

Reading field U

Reading/calculating face flux field phi


Starting time loop

Time = 0.004

Courant Number mean: 0 max: 0
Gingko init_host_sparsity_pattern : 1 ms
 matrix not stored update host matrix 
Gingko update_host_mtx : 0 ms
matrix is not yet sorted, compute sorting idxs 
 compute sorting idxs 105625
Gingko compute_sort : 1 ms
matrix is not yet sorted,  sorting host matrix 
Gingko sort_host_mtx_sparsity_pattern : 0 ms
Gingko sort_host_mtx : 0 ms
Gingko init_preconditioner : 0 ms
 get_precond == NULL
[LOG] >>> apply started on A LinOp[gko::solver::Bicgstab<double>,0x23bec00] with b LinOp[gko::matrix::Dense<double>,0x237cb20] and x LinOp[gko::matrix::Dense<double>,0x23be800]
[LOG] >>> iteration 0 completed with solver LinOp[gko::solver::Bicgstab<double>,0x23bec00] with residual LinOp[gko::matrix::Dense<double>,0x23bef90], solution LinOp[gko::matrix::Dense<double>,0x23be800], residual_norm LinOp[gko::LinOp const*,0] and implicit_sq_residual_norm LinOp[gko::matrix::Dense<double>,0x23c0470]
[LOG] >>> iteration 1 completed with solver LinOp[gko::solver::Bicgstab<double>,0x23bec00] with residual LinOp[gko::matrix::Dense<double>,0x23bef90], solution LinOp[gko::matrix::Dense<double>,0x23be800], residual_norm LinOp[gko::LinOp const*,0] and implicit_sq_residual_norm LinOp[gko::matrix::Dense<double>,0x23c02e0]
[LOG] >>> iteration 2 completed with solver LinOp[gko::solver::Bicgstab<double>,0x23bec00] with residual LinOp[gko::matrix::Dense<double>,0x23bef90], solution LinOp[gko::matrix::Dense<double>,0x23be800], residual_norm LinOp[gko::LinOp const*,0] and implicit_sq_residual_norm LinOp[gko::matrix::Dense<double>,0x23c0470]
[LOG] >>> iteration 3 completed with solver LinOp[gko::solver::Bicgstab<double>,0x23bec00] with residual LinOp[gko::matrix::Dense<double>,0x23bef90], solution LinOp[gko::matrix::Dense<double>,0x23be800], residual_norm LinOp[gko::LinOp const*,0] and implicit_sq_residual_norm LinOp[gko::matrix::Dense<double>,0x23c02e0]
[LOG] >>> iteration 4 completed with solver LinOp[gko::solver::Bicgstab<double>,0x23bec00] with residual LinOp[gko::matrix::Dense<double>,0x23bef90], solution LinOp[gko::matrix::Dense<double>,0x23be800], residual_norm LinOp[gko::LinOp const*,0] and implicit_sq_residual_norm LinOp[gko::matrix::Dense<double>,0x23c0470]
[LOG] >>> iteration 5 completed with solver LinOp[gko::solver::Bicgstab<double>,0x23bec00] with residual LinOp[gko::matrix::Dense<double>,0x23bef90], solution LinOp[gko::matrix::Dense<double>,0x23be800], residual_norm LinOp[gko::LinOp const*,0] and implicit_sq_residual_norm LinOp[gko::matrix::Dense<double>,0x23c02e0]
[LOG] >>> iteration 6 completed with solver LinOp[gko::solver::Bicgstab<double>,0x23bec00] with residual LinOp[gko::matrix::Dense<double>,0x23bef90], solution LinOp[gko::matrix::Dense<double>,0x23be800], residual_norm LinOp[gko::LinOp const*,0] and implicit_sq_residual_norm LinOp[gko::matrix::Dense<double>,0x23c0470]
[LOG] >>> iteration 7 completed with solver LinOp[gko::solver::Bicgstab<double>,0x23bec00] with residual LinOp[gko::matrix::Dense<double>,0x23bef90], solution LinOp[gko::matrix::Dense<double>,0x23be800], residual_norm LinOp[gko::LinOp const*,0] and implicit_sq_residual_norm LinOp[gko::matrix::Dense<double>,0x23c02e0]
[LOG] >>> iteration 8 completed with solver LinOp[gko::solver::Bicgstab<double>,0x23bec00] with residual LinOp[gko::matrix::Dense<double>,0x23bef90], solution LinOp[gko::matrix::Dense<double>,0x23be800], residual_norm LinOp[gko::LinOp const*,0] and implicit_sq_residual_norm LinOp[gko::matrix::Dense<double>,0x23c0470]
[LOG] >>> iteration 9 completed with solver LinOp[gko::solver::Bicgstab<double>,0x23bec00] with residual LinOp[gko::matrix::Dense<double>,0x23bef90], solution LinOp[gko::matrix::Dense<double>,0x23be800], residual_norm LinOp[gko::LinOp const*,0] and implicit_sq_residual_norm LinOp[gko::matrix::Dense<double>,0x23c02e0]
[LOG] >>> iteration 10 completed with solver LinOp[gko::solver::Bicgstab<double>,0x23bec00] with residual LinOp[gko::matrix::Dense<double>,0x23bef90], solution LinOp[gko::matrix::Dense<double>,0x23be800], residual_norm LinOp[gko::LinOp const*,0] and implicit_sq_residual_norm LinOp[gko::matrix::Dense<double>,0x23c0470]
[LOG] >>> iteration 11 completed with solver LinOp[gko::solver::Bicgstab<double>,0x23bec00] with residual LinOp[gko::matrix::Dense<double>,0x23bef90], solution LinOp[gko::matrix::Dense<double>,0x23be800], residual_norm LinOp[gko::LinOp const*,0] and implicit_sq_residual_norm LinOp[gko::matrix::Dense<double>,0x23c02e0]
[LOG] >>> iteration 12 completed with solver LinOp[gko::solver::Bicgstab<double>,0x23bec00] with residual LinOp[gko::matrix::Dense<double>,0x23bef90], solution LinOp[gko::matrix::Dense<double>,0x23be800], residual_norm LinOp[gko::LinOp const*,0] and implicit_sq_residual_norm LinOp[gko::matrix::Dense<double>,0x23c0470]
[LOG] >>> iteration 13 completed with solver LinOp[gko::solver::Bicgstab<double>,0x23bec00] with residual LinOp[gko::matrix::Dense<double>,0x23bef90], solution LinOp[gko::matrix::Dense<double>,0x23be800], residual_norm LinOp[gko::LinOp const*,0] and implicit_sq_residual_norm LinOp[gko::matrix::Dense<double>,0x23c02e0]
[LOG] >>> iteration 14 completed with solver LinOp[gko::solver::Bicgstab<double>,0x23bec00] with residual LinOp[gko::matrix::Dense<double>,0x23bef90], solution LinOp[gko::matrix::Dense<double>,0x23be800], residual_norm LinOp[gko::LinOp const*,0] and implicit_sq_residual_norm LinOp[gko::matrix::Dense<double>,0x23c0470]
[LOG] >>> iteration 15 completed with solver LinOp[gko::solver::Bicgstab<double>,0x23bec00] with residual LinOp[gko::matrix::Dense<double>,0x23bef90], solution LinOp[gko::matrix::Dense<double>,0x23be800], residual_norm LinOp[gko::LinOp const*,0] and implicit_sq_residual_norm LinOp[gko::matrix::Dense<double>,0x23c02e0]
[LOG] >>> iteration 16 completed with solver LinOp[gko::solver::Bicgstab<double>,0x23bec00] with residual LinOp[gko::matrix::Dense<double>,0x23bef90], solution LinOp[gko::matrix::Dense<double>,0x23be800], residual_norm LinOp[gko::LinOp const*,0] and implicit_sq_residual_norm LinOp[gko::matrix::Dense<double>,0x23c0470]
[LOG] >>> iteration 17 completed with solver LinOp[gko::solver::Bicgstab<double>,0x23bec00] with residual LinOp[gko::matrix::Dense<double>,0x23bef90], solution LinOp[gko::matrix::Dense<double>,0x23be800], residual_norm LinOp[gko::LinOp const*,0] and implicit_sq_residual_norm LinOp[gko::matrix::Dense<double>,0x23c02e0]
[LOG] >>> iteration 18 completed with solver LinOp[gko::solver::Bicgstab<double>,0x23bec00] with residual LinOp[gko::matrix::Dense<double>,0x23bef90], solution LinOp[gko::matrix::Dense<double>,0x23be800], residual_norm LinOp[gko::LinOp const*,0] and implicit_sq_residual_norm LinOp[gko::matrix::Dense<double>,0x23c0470]
[LOG] >>> iteration 19 completed with solver LinOp[gko::solver::Bicgstab<double>,0x23bec00] with residual LinOp[gko::matrix::Dense<double>,0x23bef90], solution LinOp[gko::matrix::Dense<double>,0x23be800], residual_norm LinOp[gko::LinOp const*,0] and implicit_sq_residual_norm LinOp[gko::matrix::Dense<double>,0x23c02e0]
[LOG] >>> iteration 20 completed with solver LinOp[gko::solver::Bicgstab<double>,0x23bec00] with residual LinOp[gko::matrix::Dense<double>,0x23bef90], solution LinOp[gko::matrix::Dense<double>,0x23be800], residual_norm LinOp[gko::LinOp const*,0] and implicit_sq_residual_norm LinOp[gko::matrix::Dense<double>,0x23c0470]
[LOG] >>> iteration 21 completed with solver LinOp[gko::solver::Bicgstab<double>,0x23bec00] with residual LinOp[gko::matrix::Dense<double>,0x23bef90], solution LinOp[gko::matrix::Dense<double>,0x23be800], residual_norm LinOp[gko::LinOp const*,0] and implicit_sq_residual_norm LinOp[gko::matrix::Dense<double>,0x23c02e0]
[LOG] >>> iteration 22 completed with solver LinOp[gko::solver::Bicgstab<double>,0x23bec00] with residual LinOp[gko::matrix::Dense<double>,0x23bef90], solution LinOp[gko::matrix::Dense<double>,0x23be800], residual_norm LinOp[gko::LinOp const*,0] and implicit_sq_residual_norm LinOp[gko::matrix::Dense<double>,0x23c0470]
[LOG] >>> iteration 23 completed with solver LinOp[gko::solver::Bicgstab<double>,0x23bec00] with residual LinOp[gko::matrix::Dense<double>,0x23bef90], solution LinOp[gko::matrix::Dense<double>,0x23be800], residual_norm LinOp[gko::LinOp const*,0] and implicit_sq_residual_norm LinOp[gko::matrix::Dense<double>,0x23c02e0]
[LOG] >>> iteration 24 completed with solver LinOp[gko::solver::Bicgstab<double>,0x23bec00] with residual LinOp[gko::matrix::Dense<double>,0x23bef90], solution LinOp[gko::matrix::Dense<double>,0x23be800], residual_norm LinOp[gko::LinOp const*,0] and implicit_sq_residual_norm LinOp[gko::matrix::Dense<double>,0x23c0470]
[LOG] >>> iteration 25 completed with solver LinOp[gko::solver::Bicgstab<double>,0x23bec00] with residual LinOp[gko::matrix::Dense<double>,0x23bef90], solution LinOp[gko::matrix::Dense<double>,0x23be800], residual_norm LinOp[gko::LinOp const*,0] and implicit_sq_residual_norm LinOp[gko::matrix::Dense<double>,0x23c02e0]
[LOG] >>> iteration 26 completed with solver LinOp[gko::solver::Bicgstab<double>,0x23bec00] with residual LinOp[gko::matrix::Dense<double>,0x23bef90], solution LinOp[gko::matrix::Dense<double>,0x23be800], residual_norm LinOp[gko::LinOp const*,0] and implicit_sq_residual_norm LinOp[gko::matrix::Dense<double>,0x23c0470]
[LOG] >>> iteration 27 completed with solver LinOp[gko::solver::Bicgstab<double>,0x23bec00] with residual LinOp[gko::matrix::Dense<double>,0x23bef90], solution LinOp[gko::matrix::Dense<double>,0x23be800], residual_norm LinOp[gko::LinOp const*,0] and implicit_sq_residual_norm LinOp[gko::matrix::Dense<double>,0x23c02e0]
[LOG] >>> iteration 28 completed with solver LinOp[gko::solver::Bicgstab<double>,0x23bec00] with residual LinOp[gko::matrix::Dense<double>,0x23bef90], solution LinOp[gko::matrix::Dense<double>,0x23be800], residual_norm LinOp[gko::LinOp const*,0] and implicit_sq_residual_norm LinOp[gko::matrix::Dense<double>,0x23c0470]
[LOG] >>> apply completed on A LinOp[gko::solver::Bicgstab<double>,0x23bec00] with b LinOp[gko::matrix::Dense<double>,0x237cb20] and x LinOp[gko::matrix::Dense<double>,0x23be800]
Gingko solve : 15 ms
 copy back
 get iters 
noneGKOBiCGStab:  Solving for Ux, Initial residual = 0, Final residual = 7.6541e-07, No Iterations 28
Gingko init_host_sparsity_pattern : 1 ms
 matrix not stored update host matrix 
Gingko update_host_mtx : 0 ms
matrix is not yet sorted,  sorting host matrix 
Gingko sort_host_mtx_sparsity_pattern : 0 ms
Gingko sort_host_mtx : 0 ms
Gingko init_preconditioner : 0 ms
 get_precond == NULL
[LOG] >>> apply started on A LinOp[gko::solver::Bicgstab<double>,0x23bf060] with b LinOp[gko::matrix::Dense<double>,0x23c02e0] and x LinOp[gko::matrix::Dense<double>,0x23c0470]
[LOG] >>> iteration 0 completed with solver LinOp[gko::solver::Bicgstab<double>,0x23bf060] with residual LinOp[gko::matrix::Dense<double>,0x23c0cb0], solution LinOp[gko::matrix::Dense<double>,0x23c0470], residual_norm LinOp[gko::LinOp const*,0] and implicit_sq_residual_norm LinOp[gko::matrix::Dense<double>,0x23c0120]
[LOG] >>> apply completed on A LinOp[gko::solver::Bicgstab<double>,0x23bf060] with b LinOp[gko::matrix::Dense<double>,0x23c02e0] and x LinOp[gko::matrix::Dense<double>,0x23c0470]
Gingko solve : 0 ms
 copy back
 get iters 
noneGKOBiCGStab:  Solving for Uy, Initial residual = 1, Final residual = 0, No Iterations 0
Gingko init_host_sparsity_pattern : 1 ms
 matrix not stored update host matrix 
Gingko update_host_mtx : 0 ms
matrix is not yet sorted,  sorting host matrix 
Gingko sort_host_mtx_sparsity_pattern : 0 ms
Gingko sort_host_mtx : 0 ms
Gingko init_preconditioner : 0 ms
 get_precond == NULL
[LOG] >>> apply started on A LinOp[gko::solver::Bicgstab<double>,0x23c07a0] with b LinOp[gko::matrix::Dense<double>,0x23bff90] and x LinOp[gko::matrix::Dense<double>,0x23c0120]
[LOG] >>> iteration 0 completed with solver LinOp[gko::solver::Bicgstab<double>,0x23c07a0] with residual LinOp[gko::matrix::Dense<double>,0x23c14a0], solution LinOp[gko::matrix::Dense<double>,0x23c0120], residual_norm LinOp[gko::LinOp const*,0] and implicit_sq_residual_norm LinOp[gko::matrix::Dense<double>,0x23bfcd0]
[LOG] >>> apply completed on A LinOp[gko::solver::Bicgstab<double>,0x23c07a0] with b LinOp[gko::matrix::Dense<double>,0x23bff90] and x LinOp[gko::matrix::Dense<double>,0x23c0120]
Gingko solve : 0 ms
 copy back
 get iters 
noneGKOBiCGStab:  Solving for Uz, Initial residual = 0, Final residual = 0, No Iterations 0
Gingko init_host_sparsity_pattern : 1 ms
 matrix not stored update host matrix 
Gingko update_host_mtx : 0 ms
matrix is not yet sorted,  sorting host matrix 
Gingko sort_host_mtx_sparsity_pattern : 0 ms
Gingko sort_host_mtx : 0 ms
Gingko init_preconditioner : 0 ms
 get_precond == NULL
[LOG] >>> apply started on A LinOp[gko::solver::Cg<double>,0x23c1460] with b LinOp[gko::matrix::Dense<double>,0x23bfb40] and x LinOp[gko::matrix::Dense<double>,0x23bfcd0]
[LOG] >>> iteration 0 completed with solver LinOp[gko::solver::Cg<double>,0x23c1460] with residual LinOp[gko::matrix::Dense<double>,0x23c1c80], solution LinOp[gko::matrix::Dense<double>,0x23bfcd0], residual_norm LinOp[gko::LinOp const*,0] and implicit_sq_residual_norm LinOp[gko::matrix::Dense<double>,0x238ff50]
[LOG] >>> iteration 1 completed with solver LinOp[gko::solver::Cg<double>,0x23c1460] with residual LinOp[gko::matrix::Dense<double>,0x23c1c80], solution LinOp[gko::matrix::Dense<double>,0x23bfcd0], residual_norm LinOp[gko::LinOp const*,0] and implicit_sq_residual_norm LinOp[gko::matrix::Dense<double>,0x238fdc0]
[LOG] >>> iteration 2 completed with solver LinOp[gko::solver::Cg<double>,0x23c1460] with residual LinOp[gko::matrix::Dense<double>,0x23c1c80], solution LinOp[gko::matrix::Dense<double>,0x23bfcd0], residual_norm LinOp[gko::LinOp const*,0] and implicit_sq_residual_norm LinOp[gko::matrix::Dense<double>,0x238ff50]
[LOG] >>> iteration 3 completed with solver LinOp[gko::solver::Cg<double>,0x23c1460] with residual LinOp[gko::matrix::Dense<double>,0x23c1c80], solution LinOp[gko::matrix::Dense<double>,0x23bfcd0], residual_norm LinOp[gko::LinOp const*,0] and implicit_sq_residual_norm LinOp[gko::matrix::Dense<double>,0x238fdc0]
[LOG] >>> iteration 4 completed with solver LinOp[gko::solver::Cg<double>,0x23c1460] with residual LinOp[gko::matrix::Dense<double>,0x23c1c80], solution LinOp[gko::matrix::Dense<double>,0x23bfcd0], residual_norm LinOp[gko::LinOp const*,0] and implicit_sq_residual_norm LinOp[gko::matrix::Dense<double>,0x238ff50]
[LOG] >>> iteration 5 completed with solver LinOp[gko::solver::Cg<double>,0x23c1460] with residual LinOp[gko::matrix::Dense<double>,0x23c1c80], solution LinOp[gko::matrix::Dense<double>,0x23bfcd0], residual_norm LinOp[gko::LinOp const*,0] and implicit_sq_residual_norm LinOp[gko::matrix::Dense<double>,0x238fdc0]
[LOG] >>> iteration 6 completed with solver LinOp[gko::solver::Cg<double>,0x23c1460] with residual LinOp[gko::matrix::Dense<double>,0x23c1c80], solution LinOp[gko::matrix::Dense<double>,0x23bfcd0], residual_norm LinOp[gko::LinOp const*,0] and implicit_sq_residual_norm LinOp[gko::matrix::Dense<double>,0x238ff50]
[LOG] >>> iteration 7 completed with solver LinOp[gko::solver::Cg<double>,0x23c1460] with residual LinOp[gko::matrix::Dense<double>,0x23c1c80], solution LinOp[gko::matrix::Dense<double>,0x23bfcd0], residual_norm LinOp[gko::LinOp const*,0] and implicit_sq_residual_norm LinOp[gko::matrix::Dense<double>,0x238fdc0]
[LOG] >>> iteration 8 completed with solver LinOp[gko::solver::Cg<double>,0x23c1460] with residual LinOp[gko::matrix::Dense<double>,0x23c1c80], solution LinOp[gko::matrix::Dense<double>,0x23bfcd0], residual_norm LinOp[gko::LinOp const*,0] and implicit_sq_residual_norm LinOp[gko::matrix::Dense<double>,0x238ff50]
[LOG] >>> iteration 9 completed with solver LinOp[gko::solver::Cg<double>,0x23c1460] with residual LinOp[gko::matrix::Dense<double>,0x23c1c80], solution LinOp[gko::matrix::Dense<double>,0x23bfcd0], residual_norm LinOp[gko::LinOp const*,0] and implicit_sq_residual_norm LinOp[gko::matrix::Dense<double>,0x238fdc0]
[LOG] >>> iteration 10 completed with solver LinOp[gko::solver::Cg<double>,0x23c1460] with residual LinOp[gko::matrix::Dense<double>,0x23c1c80], solution LinOp[gko::matrix::Dense<double>,0x23bfcd0], residual_norm LinOp[gko::LinOp const*,0] and implicit_sq_residual_norm LinOp[gko::matrix::Dense<double>,0x238ff50]
[LOG] >>> iteration 11 completed with solver LinOp[gko::solver::Cg<double>,0x23c1460] with residual LinOp[gko::matrix::Dense<double>,0x23c1c80], solution LinOp[gko::matrix::Dense<double>,0x23bfcd0], residual_norm LinOp[gko::LinOp const*,0] and implicit_sq_residual_norm LinOp[gko::matrix::Dense<double>,0x238fdc0]
[LOG] >>> iteration 12 completed with solver LinOp[gko::solver::Cg<double>,0x23c1460] with residual LinOp[gko::matrix::Dense<double>,0x23c1c80], solution LinOp[gko::matrix::Dense<double>,0x23bfcd0], residual_norm LinOp[gko::LinOp const*,0] and implicit_sq_residual_norm LinOp[gko::matrix::Dense<double>,0x238ff50]
[LOG] >>> iteration 13 completed with solver LinOp[gko::solver::Cg<double>,0x23c1460] with residual LinOp[gko::matrix::Dense<double>,0x23c1c80], solution LinOp[gko::matrix::Dense<double>,0x23bfcd0], residual_norm LinOp[gko::LinOp const*,0] and implicit_sq_residual_norm LinOp[gko::matrix::Dense<double>,0x238fdc0]
[LOG] >>> iteration 14 completed with solver LinOp[gko::solver::Cg<double>,0x23c1460] with residual LinOp[gko::matrix::Dense<double>,0x23c1c80], solution LinOp[gko::matrix::Dense<double>,0x23bfcd0], residual_norm LinOp[gko::LinOp const*,0] and implicit_sq_residual_norm LinOp[gko::matrix::Dense<double>,0x238ff50]
[LOG] >>> iteration 15 completed with solver LinOp[gko::solver::Cg<double>,0x23c1460] with residual LinOp[gko::matrix::Dense<double>,0x23c1c80], solution LinOp[gko::matrix::Dense<double>,0x23bfcd0], residual_norm LinOp[gko::LinOp const*,0] and implicit_sq_residual_norm LinOp[gko::matrix::Dense<double>,0x238fdc0]
[LOG] >>> iteration 16 completed with solver LinOp[gko::solver::Cg<double>,0x23c1460] with residual LinOp[gko::matrix::Dense<double>,0x23c1c80], solution LinOp[gko::matrix::Dense<double>,0x23bfcd0], residual_norm LinOp[gko::LinOp const*,0] and implicit_sq_residual_norm LinOp[gko::matrix::Dense<double>,0x238ff50]
[LOG] >>> iteration 17 completed with solver LinOp[gko::solver::Cg<double>,0x23c1460] with residual LinOp[gko::matrix::Dense<double>,0x23c1c80], solution LinOp[gko::matrix::Dense<double>,0x23bfcd0], residual_norm LinOp[gko::LinOp const*,0] and implicit_sq_residual_norm LinOp[gko::matrix::Dense<double>,0x238fdc0]
[LOG] >>> iteration 18 completed with solver LinOp[gko::solver::Cg<double>,0x23c1460] with residual LinOp[gko::matrix::Dense<double>,0x23c1c80], solution LinOp[gko::matrix::Dense<double>,0x23bfcd0], residual_norm LinOp[gko::LinOp const*,0] and implicit_sq_residual_norm LinOp[gko::matrix::Dense<double>,0x238ff50]
[LOG] >>> iteration 19 completed with solver LinOp[gko::solver::Cg<double>,0x23c1460] with residual LinOp[gko::matrix::Dense<double>,0x23c1c80], solution LinOp[gko::matrix::Dense<double>,0x23bfcd0], residual_norm LinOp[gko::LinOp const*,0] and implicit_sq_residual_norm LinOp[gko::matrix::Dense<double>,0x238fdc0]
[LOG] >>> iteration 20 completed with solver LinOp[gko::solver::Cg<double>,0x23c1460] with residual LinOp[gko::matrix::Dense<double>,0x23c1c80], solution LinOp[gko::matrix::Dense<double>,0x23bfcd0], residual_norm LinOp[gko::LinOp const*,0] and implicit_sq_residual_norm LinOp[gko::matrix::Dense<double>,0x238ff50]
[LOG] >>> iteration 21 completed with solver LinOp[gko::solver::Cg<double>,0x23c1460] with residual LinOp[gko::matrix::Dense<double>,0x23c1c80], solution LinOp[gko::matrix::Dense<double>,0x23bfcd0], residual_norm LinOp[gko::LinOp const*,0] and implicit_sq_residual_norm LinOp[gko::matrix::Dense<double>,0x238fdc0]
[LOG] >>> iteration 22 completed with solver LinOp[gko::solver::Cg<double>,0x23c1460] with residual LinOp[gko::matrix::Dense<double>,0x23c1c80], solution LinOp[gko::matrix::Dense<double>,0x23bfcd0], residual_norm LinOp[gko::LinOp const*,0] and implicit_sq_residual_norm LinOp[gko::matrix::Dense<double>,0x238ff50]
[LOG] >>> iteration 23 completed with solver LinOp[gko::solver::Cg<double>,0x23c1460] with residual LinOp[gko::matrix::Dense<double>,0x23c1c80], solution LinOp[gko::matrix::Dense<double>,0x23bfcd0], residual_norm LinOp[gko::LinOp const*,0] and implicit_sq_residual_norm LinOp[gko::matrix::Dense<double>,0x238fdc0]
[LOG] >>> iteration 24 completed with solver LinOp[gko::solver::Cg<double>,0x23c1460] with residual LinOp[gko::matrix::Dense<double>,0x23c1c80], solution LinOp[gko::matrix::Dense<double>,0x23bfcd0], residual_norm LinOp[gko::LinOp const*,0] and implicit_sq_residual_norm LinOp[gko::matrix::Dense<double>,0x238ff50]
[LOG] >>> iteration 25 completed with solver LinOp[gko::solver::Cg<double>,0x23c1460] with residual LinOp[gko::matrix::Dense<double>,0x23c1c80], solution LinOp[gko::matrix::Dense<double>,0x23bfcd0], residual_norm LinOp[gko::LinOp const*,0] and implicit_sq_residual_norm LinOp[gko::matrix::Dense<double>,0x238fdc0]
[LOG] >>> iteration 26 completed with solver LinOp[gko::solver::Cg<double>,0x23c1460] with residual LinOp[gko::matrix::Dense<double>,0x23c1c80], solution LinOp[gko::matrix::Dense<double>,0x23bfcd0], residual_norm LinOp[gko::LinOp const*,0] and implicit_sq_residual_norm LinOp[gko::matrix::Dense<double>,0x238ff50]
[LOG] >>> iteration 27 completed with solver LinOp[gko::solver::Cg<double>,0x23c1460] with residual LinOp[gko::matrix::Dense<double>,0x23c1c80], solution LinOp[gko::matrix::Dense<double>,0x23bfcd0], residual_norm LinOp[gko::LinOp const*,0] and implicit_sq_residual_norm LinOp[gko::matrix::Dense<double>,0x238fdc0]
[LOG] >>> iteration 28 completed with solver LinOp[gko::solver::Cg<double>,0x23c1460] with residual LinOp[gko::matrix::Dense<double>,0x23c1c80], solution LinOp[gko::matrix::Dense<double>,0x23bfcd0], residual_norm LinOp[gko::LinOp const*,0] and implicit_sq_residual_norm LinOp[gko::matrix::Dense<double>,0x238ff50]
[LOG] >>> iteration 29 completed with solver LinOp[gko::solver::Cg<double>,0x23c1460] with residual LinOp[gko::matrix::Dense<double>,0x23c1c80], solution LinOp[gko::matrix::Dense<double>,0x23bfcd0], residual_norm LinOp[gko::LinOp const*,0] and implicit_sq_residual_norm LinOp[gko::matrix::Dense<double>,0x238fdc0]
[LOG] >>> iteration 30 completed with solver LinOp[gko::solver::Cg<double>,0x23c1460] with residual LinOp[gko::matrix::Dense<double>,0x23c1c80], solution LinOp[gko::matrix::Dense<double>,0x23bfcd0], residual_norm LinOp[gko::LinOp const*,0] and implicit_sq_residual_norm LinOp[gko::matrix::Dense<double>,0x238ff50]
[LOG] >>> iteration 31 completed with solver LinOp[gko::solver::Cg<double>,0x23c1460] with residual LinOp[gko::matrix::Dense<double>,0x23c1c80], solution LinOp[gko::matrix::Dense<double>,0x23bfcd0], residual_norm LinOp[gko::LinOp const*,0] and implicit_sq_residual_norm LinOp[gko::matrix::Dense<double>,0x238fdc0]
[LOG] >>> iteration 32 completed with solver LinOp[gko::solver::Cg<double>,0x23c1460] with residual LinOp[gko::matrix::Dense<double>,0x23c1c80], solution LinOp[gko::matrix::Dense<double>,0x23bfcd0], residual_norm LinOp[gko::LinOp const*,0] and implicit_sq_residual_norm LinOp[gko::matrix::Dense<double>,0x238ff50]
[LOG] >>> iteration 33 completed with solver LinOp[gko::solver::Cg<double>,0x23c1460] with residual LinOp[gko::matrix::Dense<double>,0x23c1c80], solution LinOp[gko::matrix::Dense<double>,0x23bfcd0], residual_norm LinOp[gko::LinOp const*,0] and implicit_sq_residual_norm LinOp[gko::matrix::Dense<double>,0x238fdc0]
[LOG] >>> iteration 34 completed with solver LinOp[gko::solver::Cg<double>,0x23c1460] with residual LinOp[gko::matrix::Dense<double>,0x23c1c80], solution LinOp[gko::matrix::Dense<double>,0x23bfcd0], residual_norm LinOp[gko::LinOp const*,0] and implicit_sq_residual_norm LinOp[gko::matrix::Dense<double>,0x238ff50]
[LOG] >>> iteration 35 completed with solver LinOp[gko::solver::Cg<double>,0x23c1460] with residual LinOp[gko::matrix::Dense<double>,0x23c1c80], solution LinOp[gko::matrix::Dense<double>,0x23bfcd0], residual_norm LinOp[gko::LinOp const*,0] and implicit_sq_residual_norm LinOp[gko::matrix::Dense<double>,0x238fdc0]
[LOG] >>> iteration 36 completed with solver LinOp[gko::solver::Cg<double>,0x23c1460] with residual LinOp[gko::matrix::Dense<double>,0x23c1c80], solution LinOp[gko::matrix::Dense<double>,0x23bfcd0], residual_norm LinOp[gko::LinOp const*,0] and implicit_sq_residual_norm LinOp[gko::matrix::Dense<double>,0x238ff50]
[LOG] >>> iteration 37 completed with solver LinOp[gko::solver::Cg<double>,0x23c1460] with residual LinOp[gko::matrix::Dense<double>,0x23c1c80], solution LinOp[gko::matrix::Dense<double>,0x23bfcd0], residual_norm LinOp[gko::LinOp const*,0] and implicit_sq_residual_norm LinOp[gko::matrix::Dense<double>,0x238fdc0]
[LOG] >>> iteration 38 completed with solver LinOp[gko::solver::Cg<double>,0x23c1460] with residual LinOp[gko::matrix::Dense<double>,0x23c1c80], solution LinOp[gko::matrix::Dense<double>,0x23bfcd0], residual_norm LinOp[gko::LinOp const*,0] and implicit_sq_residual_norm LinOp[gko::matrix::Dense<double>,0x238ff50]
[LOG] >>> iteration 39 completed with solver LinOp[gko::solver::Cg<double>,0x23c1460] with residual LinOp[gko::matrix::Dense<double>,0x23c1c80], solution LinOp[gko::matrix::Dense<double>,0x23bfcd0], residual_norm LinOp[gko::LinOp const*,0] and implicit_sq_residual_norm LinOp[gko::matrix::Dense<double>,0x238fdc0]
[LOG] >>> iteration 40 completed with solver LinOp[gko::solver::Cg<double>,0x23c1460] with residual LinOp[gko::matrix::Dense<double>,0x23c1c80], solution LinOp[gko::matrix::Dense<double>,0x23bfcd0], residual_norm LinOp[gko::LinOp const*,0] and implicit_sq_residual_norm LinOp[gko::matrix::Dense<double>,0x238ff50]
[LOG] >>> iteration 41 completed with solver LinOp[gko::solver::Cg<double>,0x23c1460] with residual LinOp[gko::matrix::Dense<double>,0x23c1c80], solution LinOp[gko::matrix::Dense<double>,0x23bfcd0], residual_norm LinOp[gko::LinOp const*,0] and implicit_sq_residual_norm LinOp[gko::matrix::Dense<double>,0x238fdc0]
[LOG] >>> iteration 42 completed with solver LinOp[gko::solver::Cg<double>,0x23c1460] with residual LinOp[gko::matrix::Dense<double>,0x23c1c80], solution LinOp[gko::matrix::Dense<double>,0x23bfcd0], residual_norm LinOp[gko::LinOp const*,0] and implicit_sq_residual_norm LinOp[gko::matrix::Dense<double>,0x238ff50]
[LOG] >>> iteration 43 completed with solver LinOp[gko::solver::Cg<double>,0x23c1460] with residual LinOp[gko::matrix::Dense<double>,0x23c1c80], solution LinOp[gko::matrix::Dense<double>,0x23bfcd0], residual_norm LinOp[gko::LinOp const*,0] and implicit_sq_residual_norm LinOp[gko::matrix::Dense<double>,0x238fdc0]
[LOG] >>> iteration 44 completed with solver LinOp[gko::solver::Cg<double>,0x23c1460] with residual LinOp[gko::matrix::Dense<double>,0x23c1c80], solution LinOp[gko::matrix::Dense<double>,0x23bfcd0], residual_norm LinOp[gko::LinOp const*,0] and implicit_sq_residual_norm LinOp[gko::matrix::Dense<double>,0x238ff50]
[LOG] >>> iteration 45 completed with solver LinOp[gko::solver::Cg<double>,0x23c1460] with residual LinOp[gko::matrix::Dense<double>,0x23c1c80], solution LinOp[gko::matrix::Dense<double>,0x23bfcd0], residual_norm LinOp[gko::LinOp const*,0] and implicit_sq_residual_norm LinOp[gko::matrix::Dense<double>,0x238fdc0]
[LOG] >>> iteration 46 completed with solver LinOp[gko::solver::Cg<double>,0x23c1460] with residual LinOp[gko::matrix::Dense<double>,0x23c1c80], solution LinOp[gko::matrix::Dense<double>,0x23bfcd0], residual_norm LinOp[gko::LinOp const*,0] and implicit_sq_residual_norm LinOp[gko::matrix::Dense<double>,0x238ff50]
[LOG] >>> iteration 47 completed with solver LinOp[gko::solver::Cg<double>,0x23c1460] with residual LinOp[gko::matrix::Dense<double>,0x23c1c80], solution LinOp[gko::matrix::Dense<double>,0x23bfcd0], residual_norm LinOp[gko::LinOp const*,0] and implicit_sq_residual_norm LinOp[gko::matrix::Dense<double>,0x238fdc0]
[LOG] >>> iteration 48 completed with solver LinOp[gko::solver::Cg<double>,0x23c1460] with residual LinOp[gko::matrix::Dense<double>,0x23c1c80], solution LinOp[gko::matrix::Dense<double>,0x23bfcd0], residual_norm LinOp[gko::LinOp const*,0] and implicit_sq_residual_norm LinOp[gko::matrix::Dense<double>,0x238ff50]
[LOG] >>> iteration 49 completed with solver LinOp[gko::solver::Cg<double>,0x23c1460] with residual LinOp[gko::matrix::Dense<double>,0x23c1c80], solution LinOp[gko::matrix::Dense<double>,0x23bfcd0], residual_norm LinOp[gko::LinOp const*,0] and implicit_sq_residual_norm LinOp[gko::matrix::Dense<double>,0x238fdc0]
[LOG] >>> iteration 50 completed with solver LinOp[gko::solver::Cg<double>,0x23c1460] with residual LinOp[gko::matrix::Dense<double>,0x23c1c80], solution LinOp[gko::matrix::Dense<double>,0x23bfcd0], residual_norm LinOp[gko::LinOp const*,0] and implicit_sq_residual_norm LinOp[gko::matrix::Dense<double>,0x238ff50]
[LOG] >>> iteration 51 completed with solver LinOp[gko::solver::Cg<double>,0x23c1460] with residual LinOp[gko::matrix::Dense<double>,0x23c1c80], solution LinOp[gko::matrix::Dense<double>,0x23bfcd0], residual_norm LinOp[gko::LinOp const*,0] and implicit_sq_residual_norm LinOp[gko::matrix::Dense<double>,0x238fdc0]
[LOG] >>> iteration 52 completed with solver LinOp[gko::solver::Cg<double>,0x23c1460] with residual LinOp[gko::matrix::Dense<double>,0x23c1c80], solution LinOp[gko::matrix::Dense<double>,0x23bfcd0], residual_norm LinOp[gko::LinOp const*,0] and implicit_sq_residual_norm LinOp[gko::matrix::Dense<double>,0x238ff50]
[LOG] >>> iteration 53 completed with solver LinOp[gko::solver::Cg<double>,0x23c1460] with residual LinOp[gko::matrix::Dense<double>,0x23c1c80], solution LinOp[gko::matrix::Dense<double>,0x23bfcd0], residual_norm LinOp[gko::LinOp const*,0] and implicit_sq_residual_norm LinOp[gko::matrix::Dense<double>,0x238fdc0]
[LOG] >>> iteration 54 completed with solver LinOp[gko::solver::Cg<double>,0x23c1460] with residual LinOp[gko::matrix::Dense<double>,0x23c1c80], solution LinOp[gko::matrix::Dense<double>,0x23bfcd0], residual_norm LinOp[gko::LinOp const*,0] and implicit_sq_residual_norm LinOp[gko::matrix::Dense<double>,0x238ff50]
[LOG] >>> iteration 55 completed with solver LinOp[gko::solver::Cg<double>,0x23c1460] with residual LinOp[gko::matrix::Dense<double>,0x23c1c80], solution LinOp[gko::matrix::Dense<double>,0x23bfcd0], residual_norm LinOp[gko::LinOp const*,0] and implicit_sq_residual_norm LinOp[gko::matrix::Dense<double>,0x238fdc0]
[LOG] >>> iteration 56 completed with solver LinOp[gko::solver::Cg<double>,0x23c1460] with residual LinOp[gko::matrix::Dense<double>,0x23c1c80], solution LinOp[gko::matrix::Dense<double>,0x23bfcd0], residual_norm LinOp[gko::LinOp const*,0] and implicit_sq_residual_norm LinOp[gko::matrix::Dense<double>,0x238ff50]
[LOG] >>> iteration 57 completed with solver LinOp[gko::solver::Cg<double>,0x23c1460] with residual LinOp[gko::matrix::Dense<double>,0x23c1c80], solution LinOp[gko::matrix::Dense<double>,0x23bfcd0], residual_norm LinOp[gko::LinOp const*,0] and implicit_sq_residual_norm LinOp[gko::matrix::Dense<double>,0x238fdc0]
[LOG] >>> iteration 58 completed with solver LinOp[gko::solver::Cg<double>,0x23c1460] with residual LinOp[gko::matrix::Dense<double>,0x23c1c80], solution LinOp[gko::matrix::Dense<double>,0x23bfcd0], residual_norm LinOp[gko::LinOp const*,0] and implicit_sq_residual_norm LinOp[gko::matrix::Dense<double>,0x238ff50]
[LOG] >>> iteration 59 completed with solver LinOp[gko::solver::Cg<double>,0x23c1460] with residual LinOp[gko::matrix::Dense<double>,0x23c1c80], solution LinOp[gko::matrix::Dense<double>,0x23bfcd0], residual_norm LinOp[gko::LinOp const*,0] and implicit_sq_residual_norm LinOp[gko::matrix::Dense<double>,0x238fdc0]
[LOG] >>> iteration 60 completed with solver LinOp[gko::solver::Cg<double>,0x23c1460] with residual LinOp[gko::matrix::Dense<double>,0x23c1c80], solution LinOp[gko::matrix::Dense<double>,0x23bfcd0], residual_norm LinOp[gko::LinOp const*,0] and implicit_sq_residual_norm LinOp[gko::matrix::Dense<double>,0x238ff50]
[LOG] >>> iteration 61 completed with solver LinOp[gko::solver::Cg<double>,0x23c1460] with residual LinOp[gko::matrix::Dense<double>,0x23c1c80], solution LinOp[gko::matrix::Dense<double>,0x23bfcd0], residual_norm LinOp[gko::LinOp const*,0] and implicit_sq_residual_norm LinOp[gko::matrix::Dense<double>,0x238fdc0]
[LOG] >>> iteration 62 completed with solver LinOp[gko::solver::Cg<double>,0x23c1460] with residual LinOp[gko::matrix::Dense<double>,0x23c1c80], solution LinOp[gko::matrix::Dense<double>,0x23bfcd0], residual_norm LinOp[gko::LinOp const*,0] and implicit_sq_residual_norm LinOp[gko::matrix::Dense<double>,0x238ff50]
[LOG] >>> iteration 63 completed with solver LinOp[gko::solver::Cg<double>,0x23c1460] with residual LinOp[gko::matrix::Dense<double>,0x23c1c80], solution LinOp[gko::matrix::Dense<double>,0x23bfcd0], residual_norm LinOp[gko::LinOp const*,0] and implicit_sq_residual_norm LinOp[gko::matrix::Dense<double>,0x238fdc0]
[LOG] >>> iteration 64 completed with solver LinOp[gko::solver::Cg<double>,0x23c1460] with residual LinOp[gko::matrix::Dense<double>,0x23c1c80], solution LinOp[gko::matrix::Dense<double>,0x23bfcd0], residual_norm LinOp[gko::LinOp const*,0] and implicit_sq_residual_norm LinOp[gko::matrix::Dense<double>,0x238ff50]
[LOG] >>> iteration 65 completed with solver LinOp[gko::solver::Cg<double>,0x23c1460] with residual LinOp[gko::matrix::Dense<double>,0x23c1c80], solution LinOp[gko::matrix::Dense<double>,0x23bfcd0], residual_norm LinOp[gko::LinOp const*,0] and implicit_sq_residual_norm LinOp[gko::matrix::Dense<double>,0x238fdc0]
[LOG] >>> iteration 66 completed with solver LinOp[gko::solver::Cg<double>,0x23c1460] with residual LinOp[gko::matrix::Dense<double>,0x23c1c80], solution LinOp[gko::matrix::Dense<double>,0x23bfcd0], residual_norm LinOp[gko::LinOp const*,0] and implicit_sq_residual_norm LinOp[gko::matrix::Dense<double>,0x238ff50]
[LOG] >>> iteration 67 completed with solver LinOp[gko::solver::Cg<double>,0x23c1460] with residual LinOp[gko::matrix::Dense<double>,0x23c1c80], solution LinOp[gko::matrix::Dense<double>,0x23bfcd0], residual_norm LinOp[gko::LinOp const*,0] and implicit_sq_residual_norm LinOp[gko::matrix::Dense<double>,0x238fdc0]
[LOG] >>> iteration 68 completed with solver LinOp[gko::solver::Cg<double>,0x23c1460] with residual LinOp[gko::matrix::Dense<double>,0x23c1c80], solution LinOp[gko::matrix::Dense<double>,0x23bfcd0], residual_norm LinOp[gko::LinOp const*,0] and implicit_sq_residual_norm LinOp[gko::matrix::Dense<double>,0x238ff50]
[LOG] >>> iteration 69 completed with solver LinOp[gko::solver::Cg<double>,0x23c1460] with residual LinOp[gko::matrix::Dense<double>,0x23c1c80], solution LinOp[gko::matrix::Dense<double>,0x23bfcd0], residual_norm LinOp[gko::LinOp const*,0] and implicit_sq_residual_norm LinOp[gko::matrix::Dense<double>,0x238fdc0]
[LOG] >>> iteration 70 completed with solver LinOp[gko::solver::Cg<double>,0x23c1460] with residual LinOp[gko::matrix::Dense<double>,0x23c1c80], solution LinOp[gko::matrix::Dense<double>,0x23bfcd0], residual_norm LinOp[gko::LinOp const*,0] and implicit_sq_residual_norm LinOp[gko::matrix::Dense<double>,0x238ff50]
[LOG] >>> iteration 71 completed with solver LinOp[gko::solver::Cg<double>,0x23c1460] with residual LinOp[gko::matrix::Dense<double>,0x23c1c80], solution LinOp[gko::matrix::Dense<double>,0x23bfcd0], residual_norm LinOp[gko::LinOp const*,0] and implicit_sq_residual_norm LinOp[gko::matrix::Dense<double>,0x238fdc0]
[LOG] >>> iteration 72 completed with solver LinOp[gko::solver::Cg<double>,0x23c1460] with residual LinOp[gko::matrix::Dense<double>,0x23c1c80], solution LinOp[gko::matrix::Dense<double>,0x23bfcd0], residual_norm LinOp[gko::LinOp const*,0] and implicit_sq_residual_norm LinOp[gko::matrix::Dense<double>,0x238ff50]
[LOG] >>> iteration 73 completed with solver LinOp[gko::solver::Cg<double>,0x23c1460] with residual LinOp[gko::matrix::Dense<double>,0x23c1c80], solution LinOp[gko::matrix::Dense<double>,0x23bfcd0], residual_norm LinOp[gko::LinOp const*,0] and implicit_sq_residual_norm LinOp[gko::matrix::Dense<double>,0x238fdc0]
[LOG] >>> iteration 74 completed with solver LinOp[gko::solver::Cg<double>,0x23c1460] with residual LinOp[gko::matrix::Dense<double>,0x23c1c80], solution LinOp[gko::matrix::Dense<double>,0x23bfcd0], residual_norm LinOp[gko::LinOp const*,0] and implicit_sq_residual_norm LinOp[gko::matrix::Dense<double>,0x238ff50]
[LOG] >>> iteration 75 completed with solver LinOp[gko::solver::Cg<double>,0x23c1460] with residual LinOp[gko::matrix::Dense<double>,0x23c1c80], solution LinOp[gko::matrix::Dense<double>,0x23bfcd0], residual_norm LinOp[gko::LinOp const*,0] and implicit_sq_residual_norm LinOp[gko::matrix::Dense<double>,0x238fdc0]
[LOG] >>> iteration 76 completed with solver LinOp[gko::solver::Cg<double>,0x23c1460] with residual LinOp[gko::matrix::Dense<double>,0x23c1c80], solution LinOp[gko::matrix::Dense<double>,0x23bfcd0], residual_norm LinOp[gko::LinOp const*,0] and implicit_sq_residual_norm LinOp[gko::matrix::Dense<double>,0x238ff50]
[LOG] >>> iteration 77 completed with solver LinOp[gko::solver::Cg<double>,0x23c1460] with residual LinOp[gko::matrix::Dense<double>,0x23c1c80], solution LinOp[gko::matrix::Dense<double>,0x23bfcd0], residual_norm LinOp[gko::LinOp const*,0] and implicit_sq_residual_norm LinOp[gko::matrix::Dense<double>,0x238fdc0]
[LOG] >>> iteration 78 completed with solver LinOp[gko::solver::Cg<double>,0x23c1460] with residual LinOp[gko::matrix::Dense<double>,0x23c1c80], solution LinOp[gko::matrix::Dense<double>,0x23bfcd0], residual_norm LinOp[gko::LinOp const*,0] and implicit_sq_residual_norm LinOp[gko::matrix::Dense<double>,0x238ff50]
[LOG] >>> iteration 79 completed with solver LinOp[gko::solver::Cg<double>,0x23c1460] with residual LinOp[gko::matrix::Dense<double>,0x23c1c80], solution LinOp[gko::matrix::Dense<double>,0x23bfcd0], residual_norm LinOp[gko::LinOp const*,0] and implicit_sq_residual_norm LinOp[gko::matrix::Dense<double>,0x238fdc0]
[LOG] >>> iteration 80 completed with solver LinOp[gko::solver::Cg<double>,0x23c1460] with residual LinOp[gko::matrix::Dense<double>,0x23c1c80], solution LinOp[gko::matrix::Dense<double>,0x23bfcd0], residual_norm LinOp[gko::LinOp const*,0] and implicit_sq_residual_norm LinOp[gko::matrix::Dense<double>,0x238ff50]
[LOG] >>> iteration 81 completed with solver LinOp[gko::solver::Cg<double>,0x23c1460] with residual LinOp[gko::matrix::Dense<double>,0x23c1c80], solution LinOp[gko::matrix::Dense<double>,0x23bfcd0], residual_norm LinOp[gko::LinOp const*,0] and implicit_sq_residual_norm LinOp[gko::matrix::Dense<double>,0x238fdc0]
[LOG] >>> iteration 82 completed with solver LinOp[gko::solver::Cg<double>,0x23c1460] with residual LinOp[gko::matrix::Dense<double>,0x23c1c80], solution LinOp[gko::matrix::Dense<double>,0x23bfcd0], residual_norm LinOp[gko::LinOp const*,0] and implicit_sq_residual_norm LinOp[gko::matrix::Dense<double>,0x238ff50]
[LOG] >>> iteration 83 completed with solver LinOp[gko::solver::Cg<double>,0x23c1460] with residual LinOp[gko::matrix::Dense<double>,0x23c1c80], solution LinOp[gko::matrix::Dense<double>,0x23bfcd0], residual_norm LinOp[gko::LinOp const*,0] and implicit_sq_residual_norm LinOp[gko::matrix::Dense<double>,0x238fdc0]
[LOG] >>> iteration 84 completed with solver LinOp[gko::solver::Cg<double>,0x23c1460] with residual LinOp[gko::matrix::Dense<double>,0x23c1c80], solution LinOp[gko::matrix::Dense<double>,0x23bfcd0], residual_norm LinOp[gko::LinOp const*,0] and implicit_sq_residual_norm LinOp[gko::matrix::Dense<double>,0x238ff50]
[LOG] >>> iteration 85 completed with solver LinOp[gko::solver::Cg<double>,0x23c1460] with residual LinOp[gko::matrix::Dense<double>,0x23c1c80], solution LinOp[gko::matrix::Dense<double>,0x23bfcd0], residual_norm LinOp[gko::LinOp const*,0] and implicit_sq_residual_norm LinOp[gko::matrix::Dense<double>,0x238fdc0]
[LOG] >>> iteration 86 completed with solver LinOp[gko::solver::Cg<double>,0x23c1460] with residual LinOp[gko::matrix::Dense<double>,0x23c1c80], solution LinOp[gko::matrix::Dense<double>,0x23bfcd0], residual_norm LinOp[gko::LinOp const*,0] and implicit_sq_residual_norm LinOp[gko::matrix::Dense<double>,0x238ff50]
[LOG] >>> iteration 87 completed with solver LinOp[gko::solver::Cg<double>,0x23c1460] with residual LinOp[gko::matrix::Dense<double>,0x23c1c80], solution LinOp[gko::matrix::Dense<double>,0x23bfcd0], residual_norm LinOp[gko::LinOp const*,0] and implicit_sq_residual_norm LinOp[gko::matrix::Dense<double>,0x238fdc0]
[LOG] >>> iteration 88 completed with solver LinOp[gko::solver::Cg<double>,0x23c1460] with residual LinOp[gko::matrix::Dense<double>,0x23c1c80], solution LinOp[gko::matrix::Dense<double>,0x23bfcd0], residual_norm LinOp[gko::LinOp const*,0] and implicit_sq_residual_norm LinOp[gko::matrix::Dense<double>,0x238ff50]
[LOG] >>> iteration 89 completed with solver LinOp[gko::solver::Cg<double>,0x23c1460] with residual LinOp[gko::matrix::Dense<double>,0x23c1c80], solution LinOp[gko::matrix::Dense<double>,0x23bfcd0], residual_norm LinOp[gko::LinOp const*,0] and implicit_sq_residual_norm LinOp[gko::matrix::Dense<double>,0x238fdc0]
[LOG] >>> iteration 90 completed with solver LinOp[gko::solver::Cg<double>,0x23c1460] with residual LinOp[gko::matrix::Dense<double>,0x23c1c80], solution LinOp[gko::matrix::Dense<double>,0x23bfcd0], residual_norm LinOp[gko::LinOp const*,0] and implicit_sq_residual_norm LinOp[gko::matrix::Dense<double>,0x238ff50]
[LOG] >>> iteration 91 completed with solver LinOp[gko::solver::Cg<double>,0x23c1460] with residual LinOp[gko::matrix::Dense<double>,0x23c1c80], solution LinOp[gko::matrix::Dense<double>,0x23bfcd0], residual_norm LinOp[gko::LinOp const*,0] and implicit_sq_residual_norm LinOp[gko::matrix::Dense<double>,0x238fdc0]
[LOG] >>> iteration 92 completed with solver LinOp[gko::solver::Cg<double>,0x23c1460] with residual LinOp[gko::matrix::Dense<double>,0x23c1c80], solution LinOp[gko::matrix::Dense<double>,0x23bfcd0], residual_norm LinOp[gko::LinOp const*,0] and implicit_sq_residual_norm LinOp[gko::matrix::Dense<double>,0x238ff50]
[LOG] >>> iteration 93 completed with solver LinOp[gko::solver::Cg<double>,0x23c1460] with residual LinOp[gko::matrix::Dense<double>,0x23c1c80], solution LinOp[gko::matrix::Dense<double>,0x23bfcd0], residual_norm LinOp[gko::LinOp const*,0] and implicit_sq_residual_norm LinOp[gko::matrix::Dense<double>,0x238fdc0]
[LOG] >>> iteration 94 completed with solver LinOp[gko::solver::Cg<double>,0x23c1460] with residual LinOp[gko::matrix::Dense<double>,0x23c1c80], solution LinOp[gko::matrix::Dense<double>,0x23bfcd0], residual_norm LinOp[gko::LinOp const*,0] and implicit_sq_residual_norm LinOp[gko::matrix::Dense<double>,0x238ff50]
[LOG] >>> iteration 95 completed with solver LinOp[gko::solver::Cg<double>,0x23c1460] with residual LinOp[gko::matrix::Dense<double>,0x23c1c80], solution LinOp[gko::matrix::Dense<double>,0x23bfcd0], residual_norm LinOp[gko::LinOp const*,0] and implicit_sq_residual_norm LinOp[gko::matrix::Dense<double>,0x238fdc0]
[LOG] >>> iteration 96 completed with solver LinOp[gko::solver::Cg<double>,0x23c1460] with residual LinOp[gko::matrix::Dense<double>,0x23c1c80], solution LinOp[gko::matrix::Dense<double>,0x23bfcd0], residual_norm LinOp[gko::LinOp const*,0] and implicit_sq_residual_norm LinOp[gko::matrix::Dense<double>,0x238ff50]
[LOG] >>> iteration 97 completed with solver LinOp[gko::solver::Cg<double>,0x23c1460] with residual LinOp[gko::matrix::Dense<double>,0x23c1c80], solution LinOp[gko::matrix::Dense<double>,0x23bfcd0], residual_norm LinOp[gko::LinOp const*,0] and implicit_sq_residual_norm LinOp[gko::matrix::Dense<double>,0x238fdc0]
[LOG] >>> iteration 98 completed with solver LinOp[gko::solver::Cg<double>,0x23c1460] with residual LinOp[gko::matrix::Dense<double>,0x23c1c80], solution LinOp[gko::matrix::Dense<double>,0x23bfcd0], residual_norm LinOp[gko::LinOp const*,0] and implicit_sq_residual_norm LinOp[gko::matrix::Dense<double>,0x238ff50]
[LOG] >>> iteration 99 completed with solver LinOp[gko::solver::Cg<double>,0x23c1460] with residual LinOp[gko::matrix::Dense<double>,0x23c1c80], solution LinOp[gko::matrix::Dense<double>,0x23bfcd0], residual_norm LinOp[gko::LinOp const*,0] and implicit_sq_residual_norm LinOp[gko::matrix::Dense<double>,0x238fdc0]
[LOG] >>> iteration 100 completed with solver LinOp[gko::solver::Cg<double>,0x23c1460] with residual LinOp[gko::matrix::Dense<double>,0x23c1c80], solution LinOp[gko::matrix::Dense<double>,0x23bfcd0], residual_norm LinOp[gko::LinOp const*,0] and implicit_sq_residual_norm LinOp[gko::matrix::Dense<double>,0x238ff50]
[LOG] >>> iteration 101 completed with solver LinOp[gko::solver::Cg<double>,0x23c1460] with residual LinOp[gko::matrix::Dense<double>,0x23c1c80], solution LinOp[gko::matrix::Dense<double>,0x23bfcd0], residual_norm LinOp[gko::LinOp const*,0] and implicit_sq_residual_norm LinOp[gko::matrix::Dense<double>,0x238fdc0]
[LOG] >>> iteration 102 completed with solver LinOp[gko::solver::Cg<double>,0x23c1460] with residual LinOp[gko::matrix::Dense<double>,0x23c1c80], solution LinOp[gko::matrix::Dense<double>,0x23bfcd0], residual_norm LinOp[gko::LinOp const*,0] and implicit_sq_residual_norm LinOp[gko::matrix::Dense<double>,0x238ff50]
[LOG] >>> iteration 103 completed with solver LinOp[gko::solver::Cg<double>,0x23c1460] with residual LinOp[gko::matrix::Dense<double>,0x23c1c80], solution LinOp[gko::matrix::Dense<double>,0x23bfcd0], residual_norm LinOp[gko::LinOp const*,0] and implicit_sq_residual_norm LinOp[gko::matrix::Dense<double>,0x238fdc0]
[LOG] >>> iteration 104 completed with solver LinOp[gko::solver::Cg<double>,0x23c1460] with residual LinOp[gko::matrix::Dense<double>,0x23c1c80], solution LinOp[gko::matrix::Dense<double>,0x23bfcd0], residual_norm LinOp[gko::LinOp const*,0] and implicit_sq_residual_norm LinOp[gko::matrix::Dense<double>,0x238ff50]
[LOG] >>> iteration 105 completed with solver LinOp[gko::solver::Cg<double>,0x23c1460] with residual LinOp[gko::matrix::Dense<double>,0x23c1c80], solution LinOp[gko::matrix::Dense<double>,0x23bfcd0], residual_norm LinOp[gko::LinOp const*,0] and implicit_sq_residual_norm LinOp[gko::matrix::Dense<double>,0x238fdc0]
[LOG] >>> iteration 106 completed with solver LinOp[gko::solver::Cg<double>,0x23c1460] with residual LinOp[gko::matrix::Dense<double>,0x23c1c80], solution LinOp[gko::matrix::Dense<double>,0x23bfcd0], residual_norm LinOp[gko::LinOp const*,0] and implicit_sq_residual_norm LinOp[gko::matrix::Dense<double>,0x238ff50]
[LOG] >>> iteration 107 completed with solver LinOp[gko::solver::Cg<double>,0x23c1460] with residual LinOp[gko::matrix::Dense<double>,0x23c1c80], solution LinOp[gko::matrix::Dense<double>,0x23bfcd0], residual_norm LinOp[gko::LinOp const*,0] and implicit_sq_residual_norm LinOp[gko::matrix::Dense<double>,0x238fdc0]
[LOG] >>> iteration 108 completed with solver LinOp[gko::solver::Cg<double>,0x23c1460] with residual LinOp[gko::matrix::Dense<double>,0x23c1c80], solution LinOp[gko::matrix::Dense<double>,0x23bfcd0], residual_norm LinOp[gko::LinOp const*,0] and implicit_sq_residual_norm LinOp[gko::matrix::Dense<double>,0x238ff50]
[LOG] >>> iteration 109 completed with solver LinOp[gko::solver::Cg<double>,0x23c1460] with residual LinOp[gko::matrix::Dense<double>,0x23c1c80], solution LinOp[gko::matrix::Dense<double>,0x23bfcd0], residual_norm LinOp[gko::LinOp const*,0] and implicit_sq_residual_norm LinOp[gko::matrix::Dense<double>,0x238fdc0]
[LOG] >>> iteration 110 completed with solver LinOp[gko::solver::Cg<double>,0x23c1460] with residual LinOp[gko::matrix::Dense<double>,0x23c1c80], solution LinOp[gko::matrix::Dense<double>,0x23bfcd0], residual_norm LinOp[gko::LinOp const*,0] and implicit_sq_residual_norm LinOp[gko::matrix::Dense<double>,0x238ff50]
[LOG] >>> iteration 111 completed with solver LinOp[gko::solver::Cg<double>,0x23c1460] with residual LinOp[gko::matrix::Dense<double>,0x23c1c80], solution LinOp[gko::matrix::Dense<double>,0x23bfcd0], residual_norm LinOp[gko::LinOp const*,0] and implicit_sq_residual_norm LinOp[gko::matrix::Dense<double>,0x238fdc0]
[LOG] >>> iteration 112 completed with solver LinOp[gko::solver::Cg<double>,0x23c1460] with residual LinOp[gko::matrix::Dense<double>,0x23c1c80], solution LinOp[gko::matrix::Dense<double>,0x23bfcd0], residual_norm LinOp[gko::LinOp const*,0] and implicit_sq_residual_norm LinOp[gko::matrix::Dense<double>,0x238ff50]
[LOG] >>> iteration 113 completed with solver LinOp[gko::solver::Cg<double>,0x23c1460] with residual LinOp[gko::matrix::Dense<double>,0x23c1c80], solution LinOp[gko::matrix::Dense<double>,0x23bfcd0], residual_norm LinOp[gko::LinOp const*,0] and implicit_sq_residual_norm LinOp[gko::matrix::Dense<double>,0x238fdc0]
[LOG] >>> iteration 114 completed with solver LinOp[gko::solver::Cg<double>,0x23c1460] with residual LinOp[gko::matrix::Dense<double>,0x23c1c80], solution LinOp[gko::matrix::Dense<double>,0x23bfcd0], residual_norm LinOp[gko::LinOp const*,0] and implicit_sq_residual_norm LinOp[gko::matrix::Dense<double>,0x238ff50]
[LOG] >>> iteration 115 completed with solver LinOp[gko::solver::Cg<double>,0x23c1460] with residual LinOp[gko::matrix::Dense<double>,0x23c1c80], solution LinOp[gko::matrix::Dense<double>,0x23bfcd0], residual_norm LinOp[gko::LinOp const*,0] and implicit_sq_residual_norm LinOp[gko::matrix::Dense<double>,0x238fdc0]
[LOG] >>> iteration 116 completed with solver LinOp[gko::solver::Cg<double>,0x23c1460] with residual LinOp[gko::matrix::Dense<double>,0x23c1c80], solution LinOp[gko::matrix::Dense<double>,0x23bfcd0], residual_norm LinOp[gko::LinOp const*,0] and implicit_sq_residual_norm LinOp[gko::matrix::Dense<double>,0x238ff50]
[LOG] >>> iteration 117 completed with solver LinOp[gko::solver::Cg<double>,0x23c1460] with residual LinOp[gko::matrix::Dense<double>,0x23c1c80], solution LinOp[gko::matrix::Dense<double>,0x23bfcd0], residual_norm LinOp[gko::LinOp const*,0] and implicit_sq_residual_norm LinOp[gko::matrix::Dense<double>,0x238fdc0]
[LOG] >>> iteration 118 completed with solver LinOp[gko::solver::Cg<double>,0x23c1460] with residual LinOp[gko::matrix::Dense<double>,0x23c1c80], solution LinOp[gko::matrix::Dense<double>,0x23bfcd0], residual_norm LinOp[gko::LinOp const*,0] and implicit_sq_residual_norm LinOp[gko::matrix::Dense<double>,0x238ff50]
[LOG] >>> iteration 119 completed with solver LinOp[gko::solver::Cg<double>,0x23c1460] with residual LinOp[gko::matrix::Dense<double>,0x23c1c80], solution LinOp[gko::matrix::Dense<double>,0x23bfcd0], residual_norm LinOp[gko::LinOp const*,0] and implicit_sq_residual_norm LinOp[gko::matrix::Dense<double>,0x238fdc0]
[LOG] >>> iteration 120 completed with solver LinOp[gko::solver::Cg<double>,0x23c1460] with residual LinOp[gko::matrix::Dense<double>,0x23c1c80], solution LinOp[gko::matrix::Dense<double>,0x23bfcd0], residual_norm LinOp[gko::LinOp const*,0] and implicit_sq_residual_norm LinOp[gko::matrix::Dense<double>,0x238ff50]
[LOG] >>> iteration 121 completed with solver LinOp[gko::solver::Cg<double>,0x23c1460] with residual LinOp[gko::matrix::Dense<double>,0x23c1c80], solution LinOp[gko::matrix::Dense<double>,0x23bfcd0], residual_norm LinOp[gko::LinOp const*,0] and implicit_sq_residual_norm LinOp[gko::matrix::Dense<double>,0x238fdc0]
[LOG] >>> iteration 122 completed with solver LinOp[gko::solver::Cg<double>,0x23c1460] with residual LinOp[gko::matrix::Dense<double>,0x23c1c80], solution LinOp[gko::matrix::Dense<double>,0x23bfcd0], residual_norm LinOp[gko::LinOp const*,0] and implicit_sq_residual_norm LinOp[gko::matrix::Dense<double>,0x238ff50]
[LOG] >>> iteration 123 completed with solver LinOp[gko::solver::Cg<double>,0x23c1460] with residual LinOp[gko::matrix::Dense<double>,0x23c1c80], solution LinOp[gko::matrix::Dense<double>,0x23bfcd0], residual_norm LinOp[gko::LinOp const*,0] and implicit_sq_residual_norm LinOp[gko::matrix::Dense<double>,0x238fdc0]
[LOG] >>> iteration 124 completed with solver LinOp[gko::solver::Cg<double>,0x23c1460] with residual LinOp[gko::matrix::Dense<double>,0x23c1c80], solution LinOp[gko::matrix::Dense<double>,0x23bfcd0], residual_norm LinOp[gko::LinOp const*,0] and implicit_sq_residual_norm LinOp[gko::matrix::Dense<double>,0x238ff50]
[LOG] >>> iteration 125 completed with solver LinOp[gko::solver::Cg<double>,0x23c1460] with residual LinOp[gko::matrix::Dense<double>,0x23c1c80], solution LinOp[gko::matrix::Dense<double>,0x23bfcd0], residual_norm LinOp[gko::LinOp const*,0] and implicit_sq_residual_norm LinOp[gko::matrix::Dense<double>,0x238fdc0]
[LOG] >>> iteration 126 completed with solver LinOp[gko::solver::Cg<double>,0x23c1460] with residual LinOp[gko::matrix::Dense<double>,0x23c1c80], solution LinOp[gko::matrix::Dense<double>,0x23bfcd0], residual_norm LinOp[gko::LinOp const*,0] and implicit_sq_residual_norm LinOp[gko::matrix::Dense<double>,0x238ff50]
[LOG] >>> iteration 127 completed with solver LinOp[gko::solver::Cg<double>,0x23c1460] with residual LinOp[gko::matrix::Dense<double>,0x23c1c80], solution LinOp[gko::matrix::Dense<double>,0x23bfcd0], residual_norm LinOp[gko::LinOp const*,0] and implicit_sq_residual_norm LinOp[gko::matrix::Dense<double>,0x238fdc0]
[LOG] >>> iteration 128 completed with solver LinOp[gko::solver::Cg<double>,0x23c1460] with residual LinOp[gko::matrix::Dense<double>,0x23c1c80], solution LinOp[gko::matrix::Dense<double>,0x23bfcd0], residual_norm LinOp[gko::LinOp const*,0] and implicit_sq_residual_norm LinOp[gko::matrix::Dense<double>,0x238ff50]
[LOG] >>> iteration 129 completed with solver LinOp[gko::solver::Cg<double>,0x23c1460] with residual LinOp[gko::matrix::Dense<double>,0x23c1c80], solution LinOp[gko::matrix::Dense<double>,0x23bfcd0], residual_norm LinOp[gko::LinOp const*,0] and implicit_sq_residual_norm LinOp[gko::matrix::Dense<double>,0x238fdc0]
[LOG] >>> iteration 130 completed with solver LinOp[gko::solver::Cg<double>,0x23c1460] with residual LinOp[gko::matrix::Dense<double>,0x23c1c80], solution LinOp[gko::matrix::Dense<double>,0x23bfcd0], residual_norm LinOp[gko::LinOp const*,0] and implicit_sq_residual_norm LinOp[gko::matrix::Dense<double>,0x238ff50]
[LOG] >>> iteration 131 completed with solver LinOp[gko::solver::Cg<double>,0x23c1460] with residual LinOp[gko::matrix::Dense<double>,0x23c1c80], solution LinOp[gko::matrix::Dense<double>,0x23bfcd0], residual_norm LinOp[gko::LinOp const*,0] and implicit_sq_residual_norm LinOp[gko::matrix::Dense<double>,0x238fdc0]
[LOG] >>> iteration 132 completed with solver LinOp[gko::solver::Cg<double>,0x23c1460] with residual LinOp[gko::matrix::Dense<double>,0x23c1c80], solution LinOp[gko::matrix::Dense<double>,0x23bfcd0], residual_norm LinOp[gko::LinOp const*,0] and implicit_sq_residual_norm LinOp[gko::matrix::Dense<double>,0x238ff50]
[LOG] >>> iteration 133 completed with solver LinOp[gko::solver::Cg<double>,0x23c1460] with residual LinOp[gko::matrix::Dense<double>,0x23c1c80], solution LinOp[gko::matrix::Dense<double>,0x23bfcd0], residual_norm LinOp[gko::LinOp const*,0] and implicit_sq_residual_norm LinOp[gko::matrix::Dense<double>,0x238fdc0]
[LOG] >>> iteration 134 completed with solver LinOp[gko::solver::Cg<double>,0x23c1460] with residual LinOp[gko::matrix::Dense<double>,0x23c1c80], solution LinOp[gko::matrix::Dense<double>,0x23bfcd0], residual_norm LinOp[gko::LinOp const*,0] and implicit_sq_residual_norm LinOp[gko::matrix::Dense<double>,0x238ff50]
[LOG] >>> iteration 135 completed with solver LinOp[gko::solver::Cg<double>,0x23c1460] with residual LinOp[gko::matrix::Dense<double>,0x23c1c80], solution LinOp[gko::matrix::Dense<double>,0x23bfcd0], residual_norm LinOp[gko::LinOp const*,0] and implicit_sq_residual_norm LinOp[gko::matrix::Dense<double>,0x238fdc0]
[LOG] >>> iteration 136 completed with solver LinOp[gko::solver::Cg<double>,0x23c1460] with residual LinOp[gko::matrix::Dense<double>,0x23c1c80], solution LinOp[gko::matrix::Dense<double>,0x23bfcd0], residual_norm LinOp[gko::LinOp const*,0] and implicit_sq_residual_norm LinOp[gko::matrix::Dense<double>,0x238ff50]
[LOG] >>> iteration 137 completed with solver LinOp[gko::solver::Cg<double>,0x23c1460] with residual LinOp[gko::matrix::Dense<double>,0x23c1c80], solution LinOp[gko::matrix::Dense<double>,0x23bfcd0], residual_norm LinOp[gko::LinOp const*,0] and implicit_sq_residual_norm LinOp[gko::matrix::Dense<double>,0x238fdc0]
[LOG] >>> iteration 138 completed with solver LinOp[gko::solver::Cg<double>,0x23c1460] with residual LinOp[gko::matrix::Dense<double>,0x23c1c80], solution LinOp[gko::matrix::Dense<double>,0x23bfcd0], residual_norm LinOp[gko::LinOp const*,0] and implicit_sq_residual_norm LinOp[gko::matrix::Dense<double>,0x238ff50]
[LOG] >>> iteration 139 completed with solver LinOp[gko::solver::Cg<double>,0x23c1460] with residual LinOp[gko::matrix::Dense<double>,0x23c1c80], solution LinOp[gko::matrix::Dense<double>,0x23bfcd0], residual_norm LinOp[gko::LinOp const*,0] and implicit_sq_residual_norm LinOp[gko::matrix::Dense<double>,0x238fdc0]
[LOG] >>> iteration 140 completed with solver LinOp[gko::solver::Cg<double>,0x23c1460] with residual LinOp[gko::matrix::Dense<double>,0x23c1c80], solution LinOp[gko::matrix::Dense<double>,0x23bfcd0], residual_norm LinOp[gko::LinOp const*,0] and implicit_sq_residual_norm LinOp[gko::matrix::Dense<double>,0x238ff50]
[LOG] >>> iteration 141 completed with solver LinOp[gko::solver::Cg<double>,0x23c1460] with residual LinOp[gko::matrix::Dense<double>,0x23c1c80], solution LinOp[gko::matrix::Dense<double>,0x23bfcd0], residual_norm LinOp[gko::LinOp const*,0] and implicit_sq_residual_norm LinOp[gko::matrix::Dense<double>,0x238fdc0]
[LOG] >>> iteration 142 completed with solver LinOp[gko::solver::Cg<double>,0x23c1460] with residual LinOp[gko::matrix::Dense<double>,0x23c1c80], solution LinOp[gko::matrix::Dense<double>,0x23bfcd0], residual_norm LinOp[gko::LinOp const*,0] and implicit_sq_residual_norm LinOp[gko::matrix::Dense<double>,0x238ff50]
[LOG] >>> iteration 143 completed with solver LinOp[gko::solver::Cg<double>,0x23c1460] with residual LinOp[gko::matrix::Dense<double>,0x23c1c80], solution LinOp[gko::matrix::Dense<double>,0x23bfcd0], residual_norm LinOp[gko::LinOp const*,0] and implicit_sq_residual_norm LinOp[gko::matrix::Dense<double>,0x238fdc0]
[LOG] >>> iteration 144 completed with solver LinOp[gko::solver::Cg<double>,0x23c1460] with residual LinOp[gko::matrix::Dense<double>,0x23c1c80], solution LinOp[gko::matrix::Dense<double>,0x23bfcd0], residual_norm LinOp[gko::LinOp const*,0] and implicit_sq_residual_norm LinOp[gko::matrix::Dense<double>,0x238ff50]
[LOG] >>> iteration 145 completed with solver LinOp[gko::solver::Cg<double>,0x23c1460] with residual LinOp[gko::matrix::Dense<double>,0x23c1c80], solution LinOp[gko::matrix::Dense<double>,0x23bfcd0], residual_norm LinOp[gko::LinOp const*,0] and implicit_sq_residual_norm LinOp[gko::matrix::Dense<double>,0x238fdc0]
[LOG] >>> iteration 146 completed with solver LinOp[gko::solver::Cg<double>,0x23c1460] with residual LinOp[gko::matrix::Dense<double>,0x23c1c80], solution LinOp[gko::matrix::Dense<double>,0x23bfcd0], residual_norm LinOp[gko::LinOp const*,0] and implicit_sq_residual_norm LinOp[gko::matrix::Dense<double>,0x238ff50]
[LOG] >>> iteration 147 completed with solver LinOp[gko::solver::Cg<double>,0x23c1460] with residual LinOp[gko::matrix::Dense<double>,0x23c1c80], solution LinOp[gko::matrix::Dense<double>,0x23bfcd0], residual_norm LinOp[gko::LinOp const*,0] and implicit_sq_residual_norm LinOp[gko::matrix::Dense<double>,0x238fdc0]
[LOG] >>> iteration 148 completed with solver LinOp[gko::solver::Cg<double>,0x23c1460] with residual LinOp[gko::matrix::Dense<double>,0x23c1c80], solution LinOp[gko::matrix::Dense<double>,0x23bfcd0], residual_norm LinOp[gko::LinOp const*,0] and implicit_sq_residual_norm LinOp[gko::matrix::Dense<double>,0x238ff50]
[LOG] >>> iteration 149 completed with solver LinOp[gko::solver::Cg<double>,0x23c1460] with residual LinOp[gko::matrix::Dense<double>,0x23c1c80], solution LinOp[gko::matrix::Dense<double>,0x23bfcd0], residual_norm LinOp[gko::LinOp const*,0] and implicit_sq_residual_norm LinOp[gko::matrix::Dense<double>,0x238fdc0]
[LOG] >>> iteration 150 completed with solver LinOp[gko::solver::Cg<double>,0x23c1460] with residual LinOp[gko::matrix::Dense<double>,0x23c1c80], solution LinOp[gko::matrix::Dense<double>,0x23bfcd0], residual_norm LinOp[gko::LinOp const*,0] and implicit_sq_residual_norm LinOp[gko::matrix::Dense<double>,0x238ff50]
[LOG] >>> iteration 151 completed with solver LinOp[gko::solver::Cg<double>,0x23c1460] with residual LinOp[gko::matrix::Dense<double>,0x23c1c80], solution LinOp[gko::matrix::Dense<double>,0x23bfcd0], residual_norm LinOp[gko::LinOp const*,0] and implicit_sq_residual_norm LinOp[gko::matrix::Dense<double>,0x238fdc0]
[LOG] >>> iteration 152 completed with solver LinOp[gko::solver::Cg<double>,0x23c1460] with residual LinOp[gko::matrix::Dense<double>,0x23c1c80], solution LinOp[gko::matrix::Dense<double>,0x23bfcd0], residual_norm LinOp[gko::LinOp const*,0] and implicit_sq_residual_norm LinOp[gko::matrix::Dense<double>,0x238ff50]
[LOG] >>> iteration 153 completed with solver LinOp[gko::solver::Cg<double>,0x23c1460] with residual LinOp[gko::matrix::Dense<double>,0x23c1c80], solution LinOp[gko::matrix::Dense<double>,0x23bfcd0], residual_norm LinOp[gko::LinOp const*,0] and implicit_sq_residual_norm LinOp[gko::matrix::Dense<double>,0x238fdc0]
[LOG] >>> iteration 154 completed with solver LinOp[gko::solver::Cg<double>,0x23c1460] with residual LinOp[gko::matrix::Dense<double>,0x23c1c80], solution LinOp[gko::matrix::Dense<double>,0x23bfcd0], residual_norm LinOp[gko::LinOp const*,0] and implicit_sq_residual_norm LinOp[gko::matrix::Dense<double>,0x238ff50]
[LOG] >>> iteration 155 completed with solver LinOp[gko::solver::Cg<double>,0x23c1460] with residual LinOp[gko::matrix::Dense<double>,0x23c1c80], solution LinOp[gko::matrix::Dense<double>,0x23bfcd0], residual_norm LinOp[gko::LinOp const*,0] and implicit_sq_residual_norm LinOp[gko::matrix::Dense<double>,0x238fdc0]
[LOG] >>> iteration 156 completed with solver LinOp[gko::solver::Cg<double>,0x23c1460] with residual LinOp[gko::matrix::Dense<double>,0x23c1c80], solution LinOp[gko::matrix::Dense<double>,0x23bfcd0], residual_norm LinOp[gko::LinOp const*,0] and implicit_sq_residual_norm LinOp[gko::matrix::Dense<double>,0x238ff50]
[LOG] >>> iteration 157 completed with solver LinOp[gko::solver::Cg<double>,0x23c1460] with residual LinOp[gko::matrix::Dense<double>,0x23c1c80], solution LinOp[gko::matrix::Dense<double>,0x23bfcd0], residual_norm LinOp[gko::LinOp const*,0] and implicit_sq_residual_norm LinOp[gko::matrix::Dense<double>,0x238fdc0]
[LOG] >>> iteration 158 completed with solver LinOp[gko::solver::Cg<double>,0x23c1460] with residual LinOp[gko::matrix::Dense<double>,0x23c1c80], solution LinOp[gko::matrix::Dense<double>,0x23bfcd0], residual_norm LinOp[gko::LinOp const*,0] and implicit_sq_residual_norm LinOp[gko::matrix::Dense<double>,0x238ff50]
[LOG] >>> iteration 159 completed with solver LinOp[gko::solver::Cg<double>,0x23c1460] with residual LinOp[gko::matrix::Dense<double>,0x23c1c80], solution LinOp[gko::matrix::Dense<double>,0x23bfcd0], residual_norm LinOp[gko::LinOp const*,0] and implicit_sq_residual_norm LinOp[gko::matrix::Dense<double>,0x238fdc0]
[LOG] >>> iteration 160 completed with solver LinOp[gko::solver::Cg<double>,0x23c1460] with residual LinOp[gko::matrix::Dense<double>,0x23c1c80], solution LinOp[gko::matrix::Dense<double>,0x23bfcd0], residual_norm LinOp[gko::LinOp const*,0] and implicit_sq_residual_norm LinOp[gko::matrix::Dense<double>,0x238ff50]
[LOG] >>> iteration 161 completed with solver LinOp[gko::solver::Cg<double>,0x23c1460] with residual LinOp[gko::matrix::Dense<double>,0x23c1c80], solution LinOp[gko::matrix::Dense<double>,0x23bfcd0], residual_norm LinOp[gko::LinOp const*,0] and implicit_sq_residual_norm LinOp[gko::matrix::Dense<double>,0x238fdc0]
[LOG] >>> iteration 162 completed with solver LinOp[gko::solver::Cg<double>,0x23c1460] with residual LinOp[gko::matrix::Dense<double>,0x23c1c80], solution LinOp[gko::matrix::Dense<double>,0x23bfcd0], residual_norm LinOp[gko::LinOp const*,0] and implicit_sq_residual_norm LinOp[gko::matrix::Dense<double>,0x238ff50]
[LOG] >>> iteration 163 completed with solver LinOp[gko::solver::Cg<double>,0x23c1460] with residual LinOp[gko::matrix::Dense<double>,0x23c1c80], solution LinOp[gko::matrix::Dense<double>,0x23bfcd0], residual_norm LinOp[gko::LinOp const*,0] and implicit_sq_residual_norm LinOp[gko::matrix::Dense<double>,0x238fdc0]
[LOG] >>> iteration 164 completed with solver LinOp[gko::solver::Cg<double>,0x23c1460] with residual LinOp[gko::matrix::Dense<double>,0x23c1c80], solution LinOp[gko::matrix::Dense<double>,0x23bfcd0], residual_norm LinOp[gko::LinOp const*,0] and implicit_sq_residual_norm LinOp[gko::matrix::Dense<double>,0x238ff50]
[LOG] >>> iteration 165 completed with solver LinOp[gko::solver::Cg<double>,0x23c1460] with residual LinOp[gko::matrix::Dense<double>,0x23c1c80], solution LinOp[gko::matrix::Dense<double>,0x23bfcd0], residual_norm LinOp[gko::LinOp const*,0] and implicit_sq_residual_norm LinOp[gko::matrix::Dense<double>,0x238fdc0]
[LOG] >>> iteration 166 completed with solver LinOp[gko::solver::Cg<double>,0x23c1460] with residual LinOp[gko::matrix::Dense<double>,0x23c1c80], solution LinOp[gko::matrix::Dense<double>,0x23bfcd0], residual_norm LinOp[gko::LinOp const*,0] and implicit_sq_residual_norm LinOp[gko::matrix::Dense<double>,0x238ff50]
[LOG] >>> iteration 167 completed with solver LinOp[gko::solver::Cg<double>,0x23c1460] with residual LinOp[gko::matrix::Dense<double>,0x23c1c80], solution LinOp[gko::matrix::Dense<double>,0x23bfcd0], residual_norm LinOp[gko::LinOp const*,0] and implicit_sq_residual_norm LinOp[gko::matrix::Dense<double>,0x238fdc0]
[LOG] >>> iteration 168 completed with solver LinOp[gko::solver::Cg<double>,0x23c1460] with residual LinOp[gko::matrix::Dense<double>,0x23c1c80], solution LinOp[gko::matrix::Dense<double>,0x23bfcd0], residual_norm LinOp[gko::LinOp const*,0] and implicit_sq_residual_norm LinOp[gko::matrix::Dense<double>,0x238ff50]
[LOG] >>> iteration 169 completed with solver LinOp[gko::solver::Cg<double>,0x23c1460] with residual LinOp[gko::matrix::Dense<double>,0x23c1c80], solution LinOp[gko::matrix::Dense<double>,0x23bfcd0], residual_norm LinOp[gko::LinOp const*,0] and implicit_sq_residual_norm LinOp[gko::matrix::Dense<double>,0x238fdc0]
[LOG] >>> iteration 170 completed with solver LinOp[gko::solver::Cg<double>,0x23c1460] with residual LinOp[gko::matrix::Dense<double>,0x23c1c80], solution LinOp[gko::matrix::Dense<double>,0x23bfcd0], residual_norm LinOp[gko::LinOp const*,0] and implicit_sq_residual_norm LinOp[gko::matrix::Dense<double>,0x238ff50]
[LOG] >>> iteration 171 completed with solver LinOp[gko::solver::Cg<double>,0x23c1460] with residual LinOp[gko::matrix::Dense<double>,0x23c1c80], solution LinOp[gko::matrix::Dense<double>,0x23bfcd0], residual_norm LinOp[gko::LinOp const*,0] and implicit_sq_residual_norm LinOp[gko::matrix::Dense<double>,0x238fdc0]
[LOG] >>> iteration 172 completed with solver LinOp[gko::solver::Cg<double>,0x23c1460] with residual LinOp[gko::matrix::Dense<double>,0x23c1c80], solution LinOp[gko::matrix::Dense<double>,0x23bfcd0], residual_norm LinOp[gko::LinOp const*,0] and implicit_sq_residual_norm LinOp[gko::matrix::Dense<double>,0x238ff50]
[LOG] >>> iteration 173 completed with solver LinOp[gko::solver::Cg<double>,0x23c1460] with residual LinOp[gko::matrix::Dense<double>,0x23c1c80], solution LinOp[gko::matrix::Dense<double>,0x23bfcd0], residual_norm LinOp[gko::LinOp const*,0] and implicit_sq_residual_norm LinOp[gko::matrix::Dense<double>,0x238fdc0]
[LOG] >>> iteration 174 completed with solver LinOp[gko::solver::Cg<double>,0x23c1460] with residual LinOp[gko::matrix::Dense<double>,0x23c1c80], solution LinOp[gko::matrix::Dense<double>,0x23bfcd0], residual_norm LinOp[gko::LinOp const*,0] and implicit_sq_residual_norm LinOp[gko::matrix::Dense<double>,0x238ff50]
[LOG] >>> iteration 175 completed with solver LinOp[gko::solver::Cg<double>,0x23c1460] with residual LinOp[gko::matrix::Dense<double>,0x23c1c80], solution LinOp[gko::matrix::Dense<double>,0x23bfcd0], residual_norm LinOp[gko::LinOp const*,0] and implicit_sq_residual_norm LinOp[gko::matrix::Dense<double>,0x238fdc0]
[LOG] >>> iteration 176 completed with solver LinOp[gko::solver::Cg<double>,0x23c1460] with residual LinOp[gko::matrix::Dense<double>,0x23c1c80], solution LinOp[gko::matrix::Dense<double>,0x23bfcd0], residual_norm LinOp[gko::LinOp const*,0] and implicit_sq_residual_norm LinOp[gko::matrix::Dense<double>,0x238ff50]
[LOG] >>> iteration 177 completed with solver LinOp[gko::solver::Cg<double>,0x23c1460] with residual LinOp[gko::matrix::Dense<double>,0x23c1c80], solution LinOp[gko::matrix::Dense<double>,0x23bfcd0], residual_norm LinOp[gko::LinOp const*,0] and implicit_sq_residual_norm LinOp[gko::matrix::Dense<double>,0x238fdc0]
[LOG] >>> iteration 178 completed with solver LinOp[gko::solver::Cg<double>,0x23c1460] with residual LinOp[gko::matrix::Dense<double>,0x23c1c80], solution LinOp[gko::matrix::Dense<double>,0x23bfcd0], residual_norm LinOp[gko::LinOp const*,0] and implicit_sq_residual_norm LinOp[gko::matrix::Dense<double>,0x238ff50]
[LOG] >>> iteration 179 completed with solver LinOp[gko::solver::Cg<double>,0x23c1460] with residual LinOp[gko::matrix::Dense<double>,0x23c1c80], solution LinOp[gko::matrix::Dense<double>,0x23bfcd0], residual_norm LinOp[gko::LinOp const*,0] and implicit_sq_residual_norm LinOp[gko::matrix::Dense<double>,0x238fdc0]
[LOG] >>> iteration 180 completed with solver LinOp[gko::solver::Cg<double>,0x23c1460] with residual LinOp[gko::matrix::Dense<double>,0x23c1c80], solution LinOp[gko::matrix::Dense<double>,0x23bfcd0], residual_norm LinOp[gko::LinOp const*,0] and implicit_sq_residual_norm LinOp[gko::matrix::Dense<double>,0x238ff50]
[LOG] >>> iteration 181 completed with solver LinOp[gko::solver::Cg<double>,0x23c1460] with residual LinOp[gko::matrix::Dense<double>,0x23c1c80], solution LinOp[gko::matrix::Dense<double>,0x23bfcd0], residual_norm LinOp[gko::LinOp const*,0] and implicit_sq_residual_norm LinOp[gko::matrix::Dense<double>,0x238fdc0]
[LOG] >>> iteration 182 completed with solver LinOp[gko::solver::Cg<double>,0x23c1460] with residual LinOp[gko::matrix::Dense<double>,0x23c1c80], solution LinOp[gko::matrix::Dense<double>,0x23bfcd0], residual_norm LinOp[gko::LinOp const*,0] and implicit_sq_residual_norm LinOp[gko::matrix::Dense<double>,0x238ff50]
[LOG] >>> iteration 183 completed with solver LinOp[gko::solver::Cg<double>,0x23c1460] with residual LinOp[gko::matrix::Dense<double>,0x23c1c80], solution LinOp[gko::matrix::Dense<double>,0x23bfcd0], residual_norm LinOp[gko::LinOp const*,0] and implicit_sq_residual_norm LinOp[gko::matrix::Dense<double>,0x238fdc0]
[LOG] >>> iteration 184 completed with solver LinOp[gko::solver::Cg<double>,0x23c1460] with residual LinOp[gko::matrix::Dense<double>,0x23c1c80], solution LinOp[gko::matrix::Dense<double>,0x23bfcd0], residual_norm LinOp[gko::LinOp const*,0] and implicit_sq_residual_norm LinOp[gko::matrix::Dense<double>,0x238ff50]
[LOG] >>> iteration 185 completed with solver LinOp[gko::solver::Cg<double>,0x23c1460] with residual LinOp[gko::matrix::Dense<double>,0x23c1c80], solution LinOp[gko::matrix::Dense<double>,0x23bfcd0], residual_norm LinOp[gko::LinOp const*,0] and implicit_sq_residual_norm LinOp[gko::matrix::Dense<double>,0x238fdc0]
[LOG] >>> iteration 186 completed with solver LinOp[gko::solver::Cg<double>,0x23c1460] with residual LinOp[gko::matrix::Dense<double>,0x23c1c80], solution LinOp[gko::matrix::Dense<double>,0x23bfcd0], residual_norm LinOp[gko::LinOp const*,0] and implicit_sq_residual_norm LinOp[gko::matrix::Dense<double>,0x238ff50]
[LOG] >>> iteration 187 completed with solver LinOp[gko::solver::Cg<double>,0x23c1460] with residual LinOp[gko::matrix::Dense<double>,0x23c1c80], solution LinOp[gko::matrix::Dense<double>,0x23bfcd0], residual_norm LinOp[gko::LinOp const*,0] and implicit_sq_residual_norm LinOp[gko::matrix::Dense<double>,0x238fdc0]
[LOG] >>> iteration 188 completed with solver LinOp[gko::solver::Cg<double>,0x23c1460] with residual LinOp[gko::matrix::Dense<double>,0x23c1c80], solution LinOp[gko::matrix::Dense<double>,0x23bfcd0], residual_norm LinOp[gko::LinOp const*,0] and implicit_sq_residual_norm LinOp[gko::matrix::Dense<double>,0x238ff50]
[LOG] >>> iteration 189 completed with solver LinOp[gko::solver::Cg<double>,0x23c1460] with residual LinOp[gko::matrix::Dense<double>,0x23c1c80], solution LinOp[gko::matrix::Dense<double>,0x23bfcd0], residual_norm LinOp[gko::LinOp const*,0] and implicit_sq_residual_norm LinOp[gko::matrix::Dense<double>,0x238fdc0]
[LOG] >>> iteration 190 completed with solver LinOp[gko::solver::Cg<double>,0x23c1460] with residual LinOp[gko::matrix::Dense<double>,0x23c1c80], solution LinOp[gko::matrix::Dense<double>,0x23bfcd0], residual_norm LinOp[gko::LinOp const*,0] and implicit_sq_residual_norm LinOp[gko::matrix::Dense<double>,0x238ff50]
[LOG] >>> iteration 191 completed with solver LinOp[gko::solver::Cg<double>,0x23c1460] with residual LinOp[gko::matrix::Dense<double>,0x23c1c80], solution LinOp[gko::matrix::Dense<double>,0x23bfcd0], residual_norm LinOp[gko::LinOp const*,0] and implicit_sq_residual_norm LinOp[gko::matrix::Dense<double>,0x238fdc0]
[LOG] >>> iteration 192 completed with solver LinOp[gko::solver::Cg<double>,0x23c1460] with residual LinOp[gko::matrix::Dense<double>,0x23c1c80], solution LinOp[gko::matrix::Dense<double>,0x23bfcd0], residual_norm LinOp[gko::LinOp const*,0] and implicit_sq_residual_norm LinOp[gko::matrix::Dense<double>,0x238ff50]
[LOG] >>> iteration 193 completed with solver LinOp[gko::solver::Cg<double>,0x23c1460] with residual LinOp[gko::matrix::Dense<double>,0x23c1c80], solution LinOp[gko::matrix::Dense<double>,0x23bfcd0], residual_norm LinOp[gko::LinOp const*,0] and implicit_sq_residual_norm LinOp[gko::matrix::Dense<double>,0x238fdc0]
[LOG] >>> iteration 194 completed with solver LinOp[gko::solver::Cg<double>,0x23c1460] with residual LinOp[gko::matrix::Dense<double>,0x23c1c80], solution LinOp[gko::matrix::Dense<double>,0x23bfcd0], residual_norm LinOp[gko::LinOp const*,0] and implicit_sq_residual_norm LinOp[gko::matrix::Dense<double>,0x238ff50]
[LOG] >>> iteration 195 completed with solver LinOp[gko::solver::Cg<double>,0x23c1460] with residual LinOp[gko::matrix::Dense<double>,0x23c1c80], solution LinOp[gko::matrix::Dense<double>,0x23bfcd0], residual_norm LinOp[gko::LinOp const*,0] and implicit_sq_residual_norm LinOp[gko::matrix::Dense<double>,0x238fdc0]
[LOG] >>> iteration 196 completed with solver LinOp[gko::solver::Cg<double>,0x23c1460] with residual LinOp[gko::matrix::Dense<double>,0x23c1c80], solution LinOp[gko::matrix::Dense<double>,0x23bfcd0], residual_norm LinOp[gko::LinOp const*,0] and implicit_sq_residual_norm LinOp[gko::matrix::Dense<double>,0x238ff50]
[LOG] >>> iteration 197 completed with solver LinOp[gko::solver::Cg<double>,0x23c1460] with residual LinOp[gko::matrix::Dense<double>,0x23c1c80], solution LinOp[gko::matrix::Dense<double>,0x23bfcd0], residual_norm LinOp[gko::LinOp const*,0] and implicit_sq_residual_norm LinOp[gko::matrix::Dense<double>,0x238fdc0]
[LOG] >>> iteration 198 completed with solver LinOp[gko::solver::Cg<double>,0x23c1460] with residual LinOp[gko::matrix::Dense<double>,0x23c1c80], solution LinOp[gko::matrix::Dense<double>,0x23bfcd0], residual_norm LinOp[gko::LinOp const*,0] and implicit_sq_residual_norm LinOp[gko::matrix::Dense<double>,0x238ff50]
[LOG] >>> iteration 199 completed with solver LinOp[gko::solver::Cg<double>,0x23c1460] with residual LinOp[gko::matrix::Dense<double>,0x23c1c80], solution LinOp[gko::matrix::Dense<double>,0x23bfcd0], residual_norm LinOp[gko::LinOp const*,0] and implicit_sq_residual_norm LinOp[gko::matrix::Dense<double>,0x238fdc0]
[LOG] >>> iteration 200 completed with solver LinOp[gko::solver::Cg<double>,0x23c1460] with residual LinOp[gko::matrix::Dense<double>,0x23c1c80], solution LinOp[gko::matrix::Dense<double>,0x23bfcd0], residual_norm LinOp[gko::LinOp const*,0] and implicit_sq_residual_norm LinOp[gko::matrix::Dense<double>,0x238ff50]
[LOG] >>> iteration 201 completed with solver LinOp[gko::solver::Cg<double>,0x23c1460] with residual LinOp[gko::matrix::Dense<double>,0x23c1c80], solution LinOp[gko::matrix::Dense<double>,0x23bfcd0], residual_norm LinOp[gko::LinOp const*,0] and implicit_sq_residual_norm LinOp[gko::matrix::Dense<double>,0x238fdc0]
[LOG] >>> iteration 202 completed with solver LinOp[gko::solver::Cg<double>,0x23c1460] with residual LinOp[gko::matrix::Dense<double>,0x23c1c80], solution LinOp[gko::matrix::Dense<double>,0x23bfcd0], residual_norm LinOp[gko::LinOp const*,0] and implicit_sq_residual_norm LinOp[gko::matrix::Dense<double>,0x238ff50]
[LOG] >>> iteration 203 completed with solver LinOp[gko::solver::Cg<double>,0x23c1460] with residual LinOp[gko::matrix::Dense<double>,0x23c1c80], solution LinOp[gko::matrix::Dense<double>,0x23bfcd0], residual_norm LinOp[gko::LinOp const*,0] and implicit_sq_residual_norm LinOp[gko::matrix::Dense<double>,0x238fdc0]
[LOG] >>> iteration 204 completed with solver LinOp[gko::solver::Cg<double>,0x23c1460] with residual LinOp[gko::matrix::Dense<double>,0x23c1c80], solution LinOp[gko::matrix::Dense<double>,0x23bfcd0], residual_norm LinOp[gko::LinOp const*,0] and implicit_sq_residual_norm LinOp[gko::matrix::Dense<double>,0x238ff50]
[LOG] >>> iteration 205 completed with solver LinOp[gko::solver::Cg<double>,0x23c1460] with residual LinOp[gko::matrix::Dense<double>,0x23c1c80], solution LinOp[gko::matrix::Dense<double>,0x23bfcd0], residual_norm LinOp[gko::LinOp const*,0] and implicit_sq_residual_norm LinOp[gko::matrix::Dense<double>,0x238fdc0]
[LOG] >>> iteration 206 completed with solver LinOp[gko::solver::Cg<double>,0x23c1460] with residual LinOp[gko::matrix::Dense<double>,0x23c1c80], solution LinOp[gko::matrix::Dense<double>,0x23bfcd0], residual_norm LinOp[gko::LinOp const*,0] and implicit_sq_residual_norm LinOp[gko::matrix::Dense<double>,0x238ff50]
[LOG] >>> iteration 207 completed with solver LinOp[gko::solver::Cg<double>,0x23c1460] with residual LinOp[gko::matrix::Dense<double>,0x23c1c80], solution LinOp[gko::matrix::Dense<double>,0x23bfcd0], residual_norm LinOp[gko::LinOp const*,0] and implicit_sq_residual_norm LinOp[gko::matrix::Dense<double>,0x238fdc0]
[LOG] >>> iteration 208 completed with solver LinOp[gko::solver::Cg<double>,0x23c1460] with residual LinOp[gko::matrix::Dense<double>,0x23c1c80], solution LinOp[gko::matrix::Dense<double>,0x23bfcd0], residual_norm LinOp[gko::LinOp const*,0] and implicit_sq_residual_norm LinOp[gko::matrix::Dense<double>,0x238ff50]
[...]
[LOG] >>> iteration 149 completed with solver LinOp[gko::solver::Cg<double>,0x28e9af0] with residual LinOp[gko::matrix::Dense<double>,0x2e95c30], solution LinOp[gko::matrix::Dense<double>,0x23bfcd0], residual_norm LinOp[gko::LinOp const*,0] and implicit_sq_residual_norm LinOp[gko::matrix::Dense<double>,0x28ea1b0]
[LOG] >>> iteration 150 completed with solver LinOp[gko::solver::Cg<double>,0x28e9af0] with residual LinOp[gko::matrix::Dense<double>,0x2e95c30], solution LinOp[gko::matrix::Dense<double>,0x23bfcd0], residual_norm LinOp[gko::LinOp const*,0] and implicit_sq_residual_norm LinOp[gko::matrix::Dense<double>,0x28ea340]
[LOG] >>> iteration 151 completed with solver LinOp[gko::solver::Cg<double>,0x28e9af0] with residual LinOp[gko::matrix::Dense<double>,0x2e95c30], solution LinOp[gko::matrix::Dense<double>,0x23bfcd0], residual_norm LinOp[gko::LinOp const*,0] and implicit_sq_residual_norm LinOp[gko::matrix::Dense<double>,0x28ea1b0]
[LOG] >>> iteration 152 completed with solver LinOp[gko::solver::Cg<double>,0x28e9af0] with residual LinOp[gko::matrix::Dense<double>,0x2e95c30], solution LinOp[gko::matrix::Dense<double>,0x23bfcd0], residual_norm LinOp[gko::LinOp const*,0] and implicit_sq_residual_norm LinOp[gko::matrix::Dense<double>,0x28ea340]
[LOG] >>> iteration 153 completed with solver LinOp[gko::solver::Cg<double>,0x28e9af0] with residual LinOp[gko::matrix::Dense<double>,0x2e95c30], solution LinOp[gko::matrix::Dense<double>,0x23bfcd0], residual_norm LinOp[gko::LinOp const*,0] and implicit_sq_residual_norm LinOp[gko::matrix::Dense<double>,0x28ea1b0]
[LOG] >>> iteration 154 completed with solver LinOp[gko::solver::Cg<double>,0x28e9af0] with residual LinOp[gko::matrix::Dense<double>,0x2e95c30], solution LinOp[gko::matrix::Dense<double>,0x23bfcd0], residual_norm LinOp[gko::LinOp const*,0] and implicit_sq_residual_norm LinOp[gko::matrix::Dense<double>,0x28ea340]
[LOG] >>> iteration 155 completed with solver LinOp[gko::solver::Cg<double>,0x28e9af0] with residual LinOp[gko::matrix::Dense<double>,0x2e95c30], solution LinOp[gko::matrix::Dense<double>,0x23bfcd0], residual_norm LinOp[gko::LinOp const*,0] and implicit_sq_residual_norm LinOp[gko::matrix::Dense<double>,0x28ea1b0]
[LOG] >>> iteration 156 completed with solver LinOp[gko::solver::Cg<double>,0x28e9af0] with residual LinOp[gko::matrix::Dense<double>,0x2e95c30], solution LinOp[gko::matrix::Dense<double>,0x23bfcd0], residual_norm LinOp[gko::LinOp const*,0] and implicit_sq_residual_norm LinOp[gko::matrix::Dense<double>,0x28ea340]
[LOG] >>> iteration 157 completed with solver LinOp[gko::solver::Cg<double>,0x28e9af0] with residual LinOp[gko::matrix::Dense<double>,0x2e95c30], solution LinOp[gko::matrix::Dense<double>,0x23bfcd0], residual_norm LinOp[gko::LinOp const*,0] and implicit_sq_residual_norm LinOp[gko::matrix::Dense<double>,0x28ea1b0]
[LOG] >>> iteration 158 completed with solver LinOp[gko::solver::Cg<double>,0x28e9af0] with residual LinOp[gko::matrix::Dense<double>,0x2e95c30], solution LinOp[gko::matrix::Dense<double>,0x23bfcd0], residual_norm LinOp[gko::LinOp const*,0] and implicit_sq_residual_norm LinOp[gko::matrix::Dense<double>,0x28ea340]
[LOG] >>> iteration 159 completed with solver LinOp[gko::solver::Cg<double>,0x28e9af0] with residual LinOp[gko::matrix::Dense<double>,0x2e95c30], solution LinOp[gko::matrix::Dense<double>,0x23bfcd0], residual_norm LinOp[gko::LinOp const*,0] and implicit_sq_residual_norm LinOp[gko::matrix::Dense<double>,0x28ea1b0]
[LOG] >>> iteration 160 completed with solver LinOp[gko::solver::Cg<double>,0x28e9af0] with residual LinOp[gko::matrix::Dense<double>,0x2e95c30], solution LinOp[gko::matrix::Dense<double>,0x23bfcd0], residual_norm LinOp[gko::LinOp const*,0] and implicit_sq_residual_norm LinOp[gko::matrix::Dense<double>,0x28ea340]
[LOG] >>> iteration 161 completed with solver LinOp[gko::solver::Cg<double>,0x28e9af0] with residual LinOp[gko::matrix::Dense<double>,0x2e95c30], solution LinOp[gko::matrix::Dense<double>,0x23bfcd0], residual_norm LinOp[gko::LinOp const*,0] and implicit_sq_residual_norm LinOp[gko::matrix::Dense<double>,0x28ea1b0]
[LOG] >>> iteration 162 completed with solver LinOp[gko::solver::Cg<double>,0x28e9af0] with residual LinOp[gko::matrix::Dense<double>,0x2e95c30], solution LinOp[gko::matrix::Dense<double>,0x23bfcd0], residual_norm LinOp[gko::LinOp const*,0] and implicit_sq_residual_norm LinOp[gko::matrix::Dense<double>,0x28ea340]
[LOG] >>> iteration 163 completed with solver LinOp[gko::solver::Cg<double>,0x28e9af0] with residual LinOp[gko::matrix::Dense<double>,0x2e95c30], solution LinOp[gko::matrix::Dense<double>,0x23bfcd0], residual_norm LinOp[gko::LinOp const*,0] and implicit_sq_residual_norm LinOp[gko::matrix::Dense<double>,0x28ea1b0]
[LOG] >>> iteration 164 completed with solver LinOp[gko::solver::Cg<double>,0x28e9af0] with residual LinOp[gko::matrix::Dense<double>,0x2e95c30], solution LinOp[gko::matrix::Dense<double>,0x23bfcd0], residual_norm LinOp[gko::LinOp const*,0] and implicit_sq_residual_norm LinOp[gko::matrix::Dense<double>,0x28ea340]
[LOG] >>> iteration 165 completed with solver LinOp[gko::solver::Cg<double>,0x28e9af0] with residual LinOp[gko::matrix::Dense<double>,0x2e95c30], solution LinOp[gko::matrix::Dense<double>,0x23bfcd0], residual_norm LinOp[gko::LinOp const*,0] and implicit_sq_residual_norm LinOp[gko::matrix::Dense<double>,0x28ea1b0]
[LOG] >>> iteration 166 completed with solver LinOp[gko::solver::Cg<double>,0x28e9af0] with residual LinOp[gko::matrix::Dense<double>,0x2e95c30], solution LinOp[gko::matrix::Dense<double>,0x23bfcd0], residual_norm LinOp[gko::LinOp const*,0] and implicit_sq_residual_norm LinOp[gko::matrix::Dense<double>,0x28ea340]
[LOG] >>> iteration 167 completed with solver LinOp[gko::solver::Cg<double>,0x28e9af0] with residual LinOp[gko::matrix::Dense<double>,0x2e95c30], solution LinOp[gko::matrix::Dense<double>,0x23bfcd0], residual_norm LinOp[gko::LinOp const*,0] and implicit_sq_residual_norm LinOp[gko::matrix::Dense<double>,0x28ea1b0]
[LOG] >>> iteration 168 completed with solver LinOp[gko::solver::Cg<double>,0x28e9af0] with residual LinOp[gko::matrix::Dense<double>,0x2e95c30], solution LinOp[gko::matrix::Dense<double>,0x23bfcd0], residual_norm LinOp[gko::LinOp const*,0] and implicit_sq_residual_norm LinOp[gko::matrix::Dense<double>,0x28ea340]
[LOG] >>> iteration 169 completed with solver LinOp[gko::solver::Cg<double>,0x28e9af0] with residual LinOp[gko::matrix::Dense<double>,0x2e95c30], solution LinOp[gko::matrix::Dense<double>,0x23bfcd0], residual_norm LinOp[gko::LinOp const*,0] and implicit_sq_residual_norm LinOp[gko::matrix::Dense<double>,0x28ea1b0]
[LOG] >>> iteration 170 completed with solver LinOp[gko::solver::Cg<double>,0x28e9af0] with residual LinOp[gko::matrix::Dense<double>,0x2e95c30], solution LinOp[gko::matrix::Dense<double>,0x23bfcd0], residual_norm LinOp[gko::LinOp const*,0] and implicit_sq_residual_norm LinOp[gko::matrix::Dense<double>,0x28ea340]
[LOG] >>> iteration 171 completed with solver LinOp[gko::solver::Cg<double>,0x28e9af0] with residual LinOp[gko::matrix::Dense<double>,0x2e95c30], solution LinOp[gko::matrix::Dense<double>,0x23bfcd0], residual_norm LinOp[gko::LinOp const*,0] and implicit_sq_residual_norm LinOp[gko::matrix::Dense<double>,0x28ea1b0]
[LOG] >>> iteration 172 completed with solver LinOp[gko::solver::Cg<double>,0x28e9af0] with residual LinOp[gko::matrix::Dense<double>,0x2e95c30], solution LinOp[gko::matrix::Dense<double>,0x23bfcd0], residual_norm LinOp[gko::LinOp const*,0] and implicit_sq_residual_norm LinOp[gko::matrix::Dense<double>,0x28ea340]
[LOG] >>> iteration 173 completed with solver LinOp[gko::solver::Cg<double>,0x28e9af0] with residual LinOp[gko::matrix::Dense<double>,0x2e95c30], solution LinOp[gko::matrix::Dense<double>,0x23bfcd0], residual_norm LinOp[gko::LinOp const*,0] and implicit_sq_residual_norm LinOp[gko::matrix::Dense<double>,0x28ea1b0]
[LOG] >>> iteration 174 completed with solver LinOp[gko::solver::Cg<double>,0x28e9af0] with residual LinOp[gko::matrix::Dense<double>,0x2e95c30], solution LinOp[gko::matrix::Dense<double>,0x23bfcd0], residual_norm LinOp[gko::LinOp const*,0] and implicit_sq_residual_norm LinOp[gko::matrix::Dense<double>,0x28ea340]
[LOG] >>> iteration 175 completed with solver LinOp[gko::solver::Cg<double>,0x28e9af0] with residual LinOp[gko::matrix::Dense<double>,0x2e95c30], solution LinOp[gko::matrix::Dense<double>,0x23bfcd0], residual_norm LinOp[gko::LinOp const*,0] and implicit_sq_residual_norm LinOp[gko::matrix::Dense<double>,0x28ea1b0]
[LOG] >>> iteration 176 completed with solver LinOp[gko::solver::Cg<double>,0x28e9af0] with residual LinOp[gko::matrix::Dense<double>,0x2e95c30], solution LinOp[gko::matrix::Dense<double>,0x23bfcd0], residual_norm LinOp[gko::LinOp const*,0] and implicit_sq_residual_norm LinOp[gko::matrix::Dense<double>,0x28ea340]
[LOG] >>> iteration 177 completed with solver LinOp[gko::solver::Cg<double>,0x28e9af0] with residual LinOp[gko::matrix::Dense<double>,0x2e95c30], solution LinOp[gko::matrix::Dense<double>,0x23bfcd0], residual_norm LinOp[gko::LinOp const*,0] and implicit_sq_residual_norm LinOp[gko::matrix::Dense<double>,0x28ea1b0]
[LOG] >>> iteration 178 completed with solver LinOp[gko::solver::Cg<double>,0x28e9af0] with residual LinOp[gko::matrix::Dense<double>,0x2e95c30], solution LinOp[gko::matrix::Dense<double>,0x23bfcd0], residual_norm LinOp[gko::LinOp const*,0] and implicit_sq_residual_norm LinOp[gko::matrix::Dense<double>,0x28ea340]
[LOG] >>> iteration 179 completed with solver LinOp[gko::solver::Cg<double>,0x28e9af0] with residual LinOp[gko::matrix::Dense<double>,0x2e95c30], solution LinOp[gko::matrix::Dense<double>,0x23bfcd0], residual_norm LinOp[gko::LinOp const*,0] and implicit_sq_residual_norm LinOp[gko::matrix::Dense<double>,0x28ea1b0]
[LOG] >>> iteration 180 completed with solver LinOp[gko::solver::Cg<double>,0x28e9af0] with residual LinOp[gko::matrix::Dense<double>,0x2e95c30], solution LinOp[gko::matrix::Dense<double>,0x23bfcd0], residual_norm LinOp[gko::LinOp const*,0] and implicit_sq_residual_norm LinOp[gko::matrix::Dense<double>,0x28ea340]
[LOG] >>> iteration 181 completed with solver LinOp[gko::solver::Cg<double>,0x28e9af0] with residual LinOp[gko::matrix::Dense<double>,0x2e95c30], solution LinOp[gko::matrix::Dense<double>,0x23bfcd0], residual_norm LinOp[gko::LinOp const*,0] and implicit_sq_residual_norm LinOp[gko::matrix::Dense<double>,0x28ea1b0]
[LOG] >>> iteration 182 completed with solver LinOp[gko::solver::Cg<double>,0x28e9af0] with residual LinOp[gko::matrix::Dense<double>,0x2e95c30], solution LinOp[gko::matrix::Dense<double>,0x23bfcd0], residual_norm LinOp[gko::LinOp const*,0] and implicit_sq_residual_norm LinOp[gko::matrix::Dense<double>,0x28ea340]
[LOG] >>> iteration 183 completed with solver LinOp[gko::solver::Cg<double>,0x28e9af0] with residual LinOp[gko::matrix::Dense<double>,0x2e95c30], solution LinOp[gko::matrix::Dense<double>,0x23bfcd0], residual_norm LinOp[gko::LinOp const*,0] and implicit_sq_residual_norm LinOp[gko::matrix::Dense<double>,0x28ea1b0]
[LOG] >>> iteration 184 completed with solver LinOp[gko::solver::Cg<double>,0x28e9af0] with residual LinOp[gko::matrix::Dense<double>,0x2e95c30], solution LinOp[gko::matrix::Dense<double>,0x23bfcd0], residual_norm LinOp[gko::LinOp const*,0] and implicit_sq_residual_norm LinOp[gko::matrix::Dense<double>,0x28ea340]
[LOG] >>> iteration 185 completed with solver LinOp[gko::solver::Cg<double>,0x28e9af0] with residual LinOp[gko::matrix::Dense<double>,0x2e95c30], solution LinOp[gko::matrix::Dense<double>,0x23bfcd0], residual_norm LinOp[gko::LinOp const*,0] and implicit_sq_residual_norm LinOp[gko::matrix::Dense<double>,0x28ea1b0]
[LOG] >>> iteration 186 completed with solver LinOp[gko::solver::Cg<double>,0x28e9af0] with residual LinOp[gko::matrix::Dense<double>,0x2e95c30], solution LinOp[gko::matrix::Dense<double>,0x23bfcd0], residual_norm LinOp[gko::LinOp const*,0] and implicit_sq_residual_norm LinOp[gko::matrix::Dense<double>,0x28ea340]
[LOG] >>> iteration 187 completed with solver LinOp[gko::solver::Cg<double>,0x28e9af0] with residual LinOp[gko::matrix::Dense<double>,0x2e95c30], solution LinOp[gko::matrix::Dense<double>,0x23bfcd0], residual_norm LinOp[gko::LinOp const*,0] and implicit_sq_residual_norm LinOp[gko::matrix::Dense<double>,0x28ea1b0]
[LOG] >>> iteration 188 completed with solver LinOp[gko::solver::Cg<double>,0x28e9af0] with residual LinOp[gko::matrix::Dense<double>,0x2e95c30], solution LinOp[gko::matrix::Dense<double>,0x23bfcd0], residual_norm LinOp[gko::LinOp const*,0] and implicit_sq_residual_norm LinOp[gko::matrix::Dense<double>,0x28ea340]
[LOG] >>> iteration 189 completed with solver LinOp[gko::solver::Cg<double>,0x28e9af0] with residual LinOp[gko::matrix::Dense<double>,0x2e95c30], solution LinOp[gko::matrix::Dense<double>,0x23bfcd0], residual_norm LinOp[gko::LinOp const*,0] and implicit_sq_residual_norm LinOp[gko::matrix::Dense<double>,0x28ea1b0]
[LOG] >>> iteration 190 completed with solver LinOp[gko::solver::Cg<double>,0x28e9af0] with residual LinOp[gko::matrix::Dense<double>,0x2e95c30], solution LinOp[gko::matrix::Dense<double>,0x23bfcd0], residual_norm LinOp[gko::LinOp const*,0] and implicit_sq_residual_norm LinOp[gko::matrix::Dense<double>,0x28ea340]
[LOG] >>> iteration 191 completed with solver LinOp[gko::solver::Cg<double>,0x28e9af0] with residual LinOp[gko::matrix::Dense<double>,0x2e95c30], solution LinOp[gko::matrix::Dense<double>,0x23bfcd0], residual_norm LinOp[gko::LinOp const*,0] and implicit_sq_residual_norm LinOp[gko::matrix::Dense<double>,0x28ea1b0]
[LOG] >>> iteration 192 completed with solver LinOp[gko::solver::Cg<double>,0x28e9af0] with residual LinOp[gko::matrix::Dense<double>,0x2e95c30], solution LinOp[gko::matrix::Dense<double>,0x23bfcd0], residual_norm LinOp[gko::LinOp const*,0] and implicit_sq_residual_norm LinOp[gko::matrix::Dense<double>,0x28ea340]
[LOG] >>> iteration 193 completed with solver LinOp[gko::solver::Cg<double>,0x28e9af0] with residual LinOp[gko::matrix::Dense<double>,0x2e95c30], solution LinOp[gko::matrix::Dense<double>,0x23bfcd0], residual_norm LinOp[gko::LinOp const*,0] and implicit_sq_residual_norm LinOp[gko::matrix::Dense<double>,0x28ea1b0]
[LOG] >>> iteration 194 completed with solver LinOp[gko::solver::Cg<double>,0x28e9af0] with residual LinOp[gko::matrix::Dense<double>,0x2e95c30], solution LinOp[gko::matrix::Dense<double>,0x23bfcd0], residual_norm LinOp[gko::LinOp const*,0] and implicit_sq_residual_norm LinOp[gko::matrix::Dense<double>,0x28ea340]
[LOG] >>> iteration 195 completed with solver LinOp[gko::solver::Cg<double>,0x28e9af0] with residual LinOp[gko::matrix::Dense<double>,0x2e95c30], solution LinOp[gko::matrix::Dense<double>,0x23bfcd0], residual_norm LinOp[gko::LinOp const*,0] and implicit_sq_residual_norm LinOp[gko::matrix::Dense<double>,0x28ea1b0]
[LOG] >>> iteration 196 completed with solver LinOp[gko::solver::Cg<double>,0x28e9af0] with residual LinOp[gko::matrix::Dense<double>,0x2e95c30], solution LinOp[gko::matrix::Dense<double>,0x23bfcd0], residual_norm LinOp[gko::LinOp const*,0] and implicit_sq_residual_norm LinOp[gko::matrix::Dense<double>,0x28ea340]
[LOG] >>> iteration 197 completed with solver LinOp[gko::solver::Cg<double>,0x28e9af0] with residual LinOp[gko::matrix::Dense<double>,0x2e95c30], solution LinOp[gko::matrix::Dense<double>,0x23bfcd0], residual_norm LinOp[gko::LinOp const*,0] and implicit_sq_residual_norm LinOp[gko::matrix::Dense<double>,0x28ea1b0]
[LOG] >>> iteration 198 completed with solver LinOp[gko::solver::Cg<double>,0x28e9af0] with residual LinOp[gko::matrix::Dense<double>,0x2e95c30], solution LinOp[gko::matrix::Dense<double>,0x23bfcd0], residual_norm LinOp[gko::LinOp const*,0] and implicit_sq_residual_norm LinOp[gko::matrix::Dense<double>,0x28ea340]
[LOG] >>> iteration 199 completed with solver LinOp[gko::solver::Cg<double>,0x28e9af0] with residual LinOp[gko::matrix::Dense<double>,0x2e95c30], solution LinOp[gko::matrix::Dense<double>,0x23bfcd0], residual_norm LinOp[gko::LinOp const*,0] and implicit_sq_residual_norm LinOp[gko::matrix::Dense<double>,0x28ea1b0]
[LOG] >>> iteration 200 completed with solver LinOp[gko::solver::Cg<double>,0x28e9af0] with residual LinOp[gko::matrix::Dense<double>,0x2e95c30], solution LinOp[gko::matrix::Dense<double>,0x23bfcd0], residual_norm LinOp[gko::LinOp const*,0] and implicit_sq_residual_norm LinOp[gko::matrix::Dense<double>,0x28ea340]
[LOG] >>> iteration 201 completed with solver LinOp[gko::solver::Cg<double>,0x28e9af0] with residual LinOp[gko::matrix::Dense<double>,0x2e95c30], solution LinOp[gko::matrix::Dense<double>,0x23bfcd0], residual_norm LinOp[gko::LinOp const*,0] and implicit_sq_residual_norm LinOp[gko::matrix::Dense<double>,0x28ea1b0]
[LOG] >>> iteration 202 completed with solver LinOp[gko::solver::Cg<double>,0x28e9af0] with residual LinOp[gko::matrix::Dense<double>,0x2e95c30], solution LinOp[gko::matrix::Dense<double>,0x23bfcd0], residual_norm LinOp[gko::LinOp const*,0] and implicit_sq_residual_norm LinOp[gko::matrix::Dense<double>,0x28ea340]
[LOG] >>> iteration 203 completed with solver LinOp[gko::solver::Cg<double>,0x28e9af0] with residual LinOp[gko::matrix::Dense<double>,0x2e95c30], solution LinOp[gko::matrix::Dense<double>,0x23bfcd0], residual_norm LinOp[gko::LinOp const*,0] and implicit_sq_residual_norm LinOp[gko::matrix::Dense<double>,0x28ea1b0]
[LOG] >>> iteration 204 completed with solver LinOp[gko::solver::Cg<double>,0x28e9af0] with residual LinOp[gko::matrix::Dense<double>,0x2e95c30], solution LinOp[gko::matrix::Dense<double>,0x23bfcd0], residual_norm LinOp[gko::LinOp const*,0] and implicit_sq_residual_norm LinOp[gko::matrix::Dense<double>,0x28ea340]
[LOG] >>> iteration 205 completed with solver LinOp[gko::solver::Cg<double>,0x28e9af0] with residual LinOp[gko::matrix::Dense<double>,0x2e95c30], solution LinOp[gko::matrix::Dense<double>,0x23bfcd0], residual_norm LinOp[gko::LinOp const*,0] and implicit_sq_residual_norm LinOp[gko::matrix::Dense<double>,0x28ea1b0]
[LOG] >>> iteration 206 completed with solver LinOp[gko::solver::Cg<double>,0x28e9af0] with residual LinOp[gko::matrix::Dense<double>,0x2e95c30], solution LinOp[gko::matrix::Dense<double>,0x23bfcd0], residual_norm LinOp[gko::LinOp const*,0] and implicit_sq_residual_norm LinOp[gko::matrix::Dense<double>,0x28ea340]
[LOG] >>> iteration 207 completed with solver LinOp[gko::solver::Cg<double>,0x28e9af0] with residual LinOp[gko::matrix::Dense<double>,0x2e95c30], solution LinOp[gko::matrix::Dense<double>,0x23bfcd0], residual_norm LinOp[gko::LinOp const*,0] and implicit_sq_residual_norm LinOp[gko::matrix::Dense<double>,0x28ea1b0]
[LOG] >>> iteration 208 completed with solver LinOp[gko::solver::Cg<double>,0x28e9af0] with residual LinOp[gko::matrix::Dense<double>,0x2e95c30], solution LinOp[gko::matrix::Dense<double>,0x23bfcd0], residual_norm LinOp[gko::LinOp const*,0] and implicit_sq_residual_norm LinOp[gko::matrix::Dense<double>,0x28ea340]
[LOG] >>> iteration 209 completed with solver LinOp[gko::solver::Cg<double>,0x28e9af0] with residual LinOp[gko::matrix::Dense<double>,0x2e95c30], solution LinOp[gko::matrix::Dense<double>,0x23bfcd0], residual_norm LinOp[gko::LinOp const*,0] and implicit_sq_residual_norm LinOp[gko::matrix::Dense<double>,0x28ea1b0]
[LOG] >>> apply completed on A LinOp[gko::solver::Cg<double>,0x28e9af0] with b LinOp[gko::matrix::Dense<double>,0x23c0a00] and x LinOp[gko::matrix::Dense<double>,0x23bfcd0]
Gingko solve : 50 ms
 copy back
 get iters 
noneGKOCG:  Solving for p, Initial residual = 0.234834, Final residual = 9.75797e-07, No Iterations 209
time step continuity errors : sum local = 4.48062e-09, global = -2.81361e-20, cumulative = -8.91327e-21
ExecutionTime = 15.09 s  ClockTime = 1 s

End

