/*---------------------------------------------------------------------------*\
  =========                 |
  \\      /  F ield         | OpenFOAM: The Open Source CFD Toolbox
   \\    /   O peration     | Website:  https://openfoam.org
    \\  /    A nd           | Version:  8
     \\/     M anipulation  |
\*---------------------------------------------------------------------------*/
Build  : 8-13d66902f78c
Exec   : icoFoam
Date   : Jun 26 2021
Time   : 23:36:14
Host   : "uc2n442.localdomain"
PID    : 1059800
I/O    : uncollated
Case   : /pfs/data5/home/kit/scc/nq7776/code/OGL_DATA/lidDrivenCavity3D/v0.1-117-g6793da2/f584ccac99/IntelXeonGold6230CPU@2.10GHz/Test_2021-06-26-23:01:02/50/p-BiCGStab-GKO-none-omp/lidDrivenCavity3D
nProcs : 1
sigFpe : Enabling floating point exception trapping (FOAM_SIGFPE).
fileModificationChecking : Monitoring run-time modified files using timeStampMaster (fileModificationSkew 10)
allowSystemOperations : Allowing user-supplied system call operations

// * * * * * * * * * * * * * * * * * * * * * * * * * * * * * * * * * * * * * //
Create time

Create mesh for time = 0

Reading transportProperties

Reading field p

Reading field U

Reading/calculating face flux field phi


Starting time loop

Time = 0.002

Courant Number mean: 0 max: 0
nonePBiCGStab:  Solving for Ux, Initial residual = 1, Final residual = 0.0592055, No Iterations 5
nonePBiCGStab:  Solving for Uy, Initial residual = 0, Final residual = 0, No Iterations 0
nonePBiCGStab:  Solving for Uz, Initial residual = 0, Final residual = 0, No Iterations 0
Gingko init_host_sparsity_pattern : 35 ms
 matrix not stored update host matrix 
Gingko update_host_mtx : 19 ms
matrix is not yet sorted, compute sorting idxs 
 compute sorting idxs 860000
Gingko compute_sort : 993 ms
matrix is not yet sorted,  sorting host matrix 
Gingko sort_host_mtx_sparsity_pattern : 24 ms
Gingko sort_host_mtx : 15 ms
Gingko init_preconditioner : 0 ms
 get_precond == NULL
Gingko solve : 1260 ms
 copy back
 get iters 
noneompGKOBiCGStab:  Solving for p, Initial residual = 0, Final residual = 5.67034e-07, No Iterations 354
time step continuity errors : sum local = 4.66391e-07, global = -1.86455e-20, cumulative = -1.86455e-20
Gingko init_preconditioner : 0 ms
 get_precond == NULL
Gingko solve : 1182 ms
 copy back
 get iters 
noneompGKOBiCGStab:  Solving for p, Initial residual = 1, Final residual = 9.61971e-07, No Iterations 369
time step continuity errors : sum local = 1.27935e-08, global = 1.30026e-20, cumulative = -5.64286e-21
ExecutionTime = 158.45 s  ClockTime = 4 s

Time = 0.004

Courant Number mean: 0.0636233 max: 0.723792
nonePBiCGStab:  Solving for Ux, Initial residual = 0.144132, Final residual = 0.0219189, No Iterations 5
nonePBiCGStab:  Solving for Uy, Initial residual = 0.363932, Final residual = 0.0523886, No Iterations 5
nonePBiCGStab:  Solving for Uz, Initial residual = 0.973325, Final residual = 0.16013, No Iterations 5
Gingko init_preconditioner : 0 ms
 get_precond == NULL
Gingko solve : 1095 ms
 copy back
 get iters 
noneompGKOBiCGStab:  Solving for p, Initial residual = 0.676743, Final residual = 6.07012e-07, No Iterations 318
time step continuity errors : sum local = 1.138e-05, global = -1.30211e-20, cumulative = -1.86639e-20
Gingko init_preconditioner : 0 ms
 get_precond == NULL
Gingko solve : 1363 ms
 copy back
 get iters 
noneompGKOBiCGStab:  Solving for p, Initial residual = 0.668401, Final residual = 8.16923e-07, No Iterations 377
time step continuity errors : sum local = 4.03409e-06, global = -2.40974e-20, cumulative = -4.27613e-20
ExecutionTime = 316.01 s  ClockTime = 7 s

Time = 0.006

Courant Number mean: 0.0972217 max: 0.862503
nonePBiCGStab:  Solving for Ux, Initial residual = 0.0523915, Final residual = 0.00692737, No Iterations 5
nonePBiCGStab:  Solving for Uy, Initial residual = 0.127536, Final residual = 0.0210112, No Iterations 5
nonePBiCGStab:  Solving for Uz, Initial residual = 0.375856, Final residual = 0.0640759, No Iterations 5
Gingko init_preconditioner : 0 ms
 get_precond == NULL
Gingko solve : 1263 ms
 copy back
 get iters 
noneompGKOBiCGStab:  Solving for p, Initial residual = 0.586057, Final residual = 8.79185e-07, No Iterations 357
time step continuity errors : sum local = 1.13206e-07, global = 4.91509e-20, cumulative = 6.38962e-21
Gingko init_preconditioner : 0 ms
 get_precond == NULL
Gingko solve : 1253 ms
 copy back
 get iters 
noneompGKOBiCGStab:  Solving for p, Initial residual = 0.594835, Final residual = 9.99943e-07, No Iterations 354
time step continuity errors : sum local = 1.48844e-08, global = 1.42406e-20, cumulative = 2.06302e-20
ExecutionTime = 477.28 s  ClockTime = 9 s

Time = 0.008

Courant Number mean: 0.113748 max: 0.882405
nonePBiCGStab:  Solving for Ux, Initial residual = 0.0289698, Final residual = 0.00359148, No Iterations 5
nonePBiCGStab:  Solving for Uy, Initial residual = 0.0845072, Final residual = 0.0109951, No Iterations 5
nonePBiCGStab:  Solving for Uz, Initial residual = 0.233378, Final residual = 0.0365485, No Iterations 5
Gingko init_preconditioner : 0 ms
 get_precond == NULL
Gingko solve : 1196 ms
 copy back
 get iters 
noneompGKOBiCGStab:  Solving for p, Initial residual = 0.528622, Final residual = 9.44381e-07, No Iterations 339
time step continuity errors : sum local = 1.96521e-07, global = 1.95396e-20, cumulative = 4.01698e-20
Gingko init_preconditioner : 0 ms
 get_precond == NULL
Gingko solve : 1251 ms
 copy back
 get iters 
noneompGKOBiCGStab:  Solving for p, Initial residual = 0.411223, Final residual = 8.73478e-07, No Iterations 344
time step continuity errors : sum local = 2.7757e-08, global = 9.98321e-21, cumulative = 5.0153e-20
ExecutionTime = 634.16 s  ClockTime = 12 s

Time = 0.01

Courant Number mean: 0.127286 max: 0.898877
nonePBiCGStab:  Solving for Ux, Initial residual = 0.020312, Final residual = 0.00214883, No Iterations 5
nonePBiCGStab:  Solving for Uy, Initial residual = 0.0504554, Final residual = 0.00685031, No Iterations 5
nonePBiCGStab:  Solving for Uz, Initial residual = 0.116664, Final residual = 0.0186988, No Iterations 5
Gingko init_preconditioner : 0 ms
 get_precond == NULL
Gingko solve : 648 ms
 copy back
 get iters 
noneompGKOBiCGStab:  Solving for p, Initial residual = 0.34216, Final residual = 9.31726e-07, No Iterations 184
time step continuity errors : sum local = 1.51001e-09, global = -4.31542e-21, cumulative = 4.58376e-20
Gingko init_preconditioner : 0 ms
 get_precond == NULL
Gingko solve : 1193 ms
 copy back
 get iters 
noneompGKOBiCGStab:  Solving for p, Initial residual = 0.355933, Final residual = 9.79437e-07, No Iterations 342
time step continuity errors : sum local = 1.32609e-08, global = 2.49289e-20, cumulative = 7.07665e-20
ExecutionTime = 752.41 s  ClockTime = 14 s

End

