/*---------------------------------------------------------------------------*\
  =========                 |
  \\      /  F ield         | OpenFOAM: The Open Source CFD Toolbox
   \\    /   O peration     | Website:  https://openfoam.org
    \\  /    A nd           | Version:  8
     \\/     M anipulation  |
\*---------------------------------------------------------------------------*/
Build  : 8-13d66902f78c
Exec   : icoFoam
Date   : Jun 26 2021
Time   : 23:54:21
Host   : "uc2n454.localdomain"
PID    : 1992994
I/O    : uncollated
Case   : /pfs/data5/home/kit/scc/nq7776/code/OGL_DATA/lidDrivenCavity3D/v0.1-117-g6793da2/f584ccac99/IntelXeonGold6230CPU@2.10GHz/Test_2021-06-26-23:18:48/50/p-BiCGStab-GKO-BJ-omp/lidDrivenCavity3D
nProcs : 1
sigFpe : Enabling floating point exception trapping (FOAM_SIGFPE).
fileModificationChecking : Monitoring run-time modified files using timeStampMaster (fileModificationSkew 10)
allowSystemOperations : Allowing user-supplied system call operations

// * * * * * * * * * * * * * * * * * * * * * * * * * * * * * * * * * * * * * //
Create time

Create mesh for time = 0

Reading transportProperties

Reading field p

Reading field U

Reading/calculating face flux field phi


Starting time loop

Time = 0.002

Courant Number mean: 0 max: 0
nonePBiCGStab:  Solving for Ux, Initial residual = 1, Final residual = 0.0592055, No Iterations 5
nonePBiCGStab:  Solving for Uy, Initial residual = 0, Final residual = 0, No Iterations 0
nonePBiCGStab:  Solving for Uz, Initial residual = 0, Final residual = 0, No Iterations 0
Gingko init_host_sparsity_pattern : 35 ms
 matrix not stored update host matrix 
Gingko update_host_mtx : 18 ms
matrix is not yet sorted, compute sorting idxs 
 compute sorting idxs 860000
Gingko compute_sort : 994 ms
matrix is not yet sorted,  sorting host matrix 
Gingko sort_host_mtx_sparsity_pattern : 23 ms
Gingko sort_host_mtx : 14 ms
Gingko init_preconditioner : 5 ms
Gingko solve : 1274 ms
 copy back
 get iters 
BJompGKOBiCGStab:  Solving for p, Initial residual = 0, Final residual = 9.53558e-07, No Iterations 281
time step continuity errors : sum local = 2.92948e-09, global = -7.52993e-21, cumulative = -7.52993e-21
 found preconditioner 
Gingko init_preconditioner : 0 ms
Gingko solve : 976 ms
 copy back
 get iters 
BJompGKOBiCGStab:  Solving for p, Initial residual = 1, Final residual = 9.28234e-07, No Iterations 269
time step continuity errors : sum local = 1.88748e-08, global = 2.10161e-20, cumulative = 1.34862e-20
ExecutionTime = 37.92 s  ClockTime = 4 s

Time = 0.004

Courant Number mean: 0.0636233 max: 0.723792
nonePBiCGStab:  Solving for Ux, Initial residual = 0.144135, Final residual = 0.02192, No Iterations 5
nonePBiCGStab:  Solving for Uy, Initial residual = 0.363931, Final residual = 0.0522817, No Iterations 5
nonePBiCGStab:  Solving for Uz, Initial residual = 0.973584, Final residual = 0.158931, No Iterations 5
 found preconditioner 
Gingko init_preconditioner : 0 ms
Gingko solve : 995 ms
 copy back
 get iters 
BJompGKOBiCGStab:  Solving for p, Initial residual = 0.676727, Final residual = 2.05877e-07, No Iterations 269
time step continuity errors : sum local = 1.26195e-07, global = 2.42307e-20, cumulative = 3.77169e-20
 found preconditioner 
Gingko init_preconditioner : 0 ms
Gingko solve : 947 ms
 copy back
 get iters 
BJompGKOBiCGStab:  Solving for p, Initial residual = 0.66851, Final residual = 6.77465e-07, No Iterations 258
time step continuity errors : sum local = 2.24393e-08, global = -4.15324e-20, cumulative = -3.81547e-21
ExecutionTime = 69.16 s  ClockTime = 6 s

Time = 0.006

Courant Number mean: 0.0972275 max: 0.862514
nonePBiCGStab:  Solving for Ux, Initial residual = 0.0524152, Final residual = 0.00685513, No Iterations 5
nonePBiCGStab:  Solving for Uy, Initial residual = 0.127059, Final residual = 0.0201228, No Iterations 5
nonePBiCGStab:  Solving for Uz, Initial residual = 0.366586, Final residual = 0.0531501, No Iterations 5
 found preconditioner 
Gingko init_preconditioner : 0 ms
Gingko solve : 956 ms
 copy back
 get iters 
BJompGKOBiCGStab:  Solving for p, Initial residual = 0.584673, Final residual = 9.2664e-07, No Iterations 261
time step continuity errors : sum local = 1.29511e-07, global = 9.6045e-21, cumulative = 5.78903e-21
 found preconditioner 
Gingko init_preconditioner : 0 ms
Gingko solve : 961 ms
 copy back
 get iters 
BJompGKOBiCGStab:  Solving for p, Initial residual = 0.594545, Final residual = 9.08949e-07, No Iterations 262
time step continuity errors : sum local = 7.52113e-09, global = 8.62761e-21, cumulative = 1.44166e-20
ExecutionTime = 100.03 s  ClockTime = 8 s

Time = 0.008

Courant Number mean: 0.113794 max: 0.88248
nonePBiCGStab:  Solving for Ux, Initial residual = 0.0289569, Final residual = 0.00344492, No Iterations 5
nonePBiCGStab:  Solving for Uy, Initial residual = 0.0844267, Final residual = 0.0109269, No Iterations 5
nonePBiCGStab:  Solving for Uz, Initial residual = 0.229291, Final residual = 0.0304824, No Iterations 5
 found preconditioner 
Gingko init_preconditioner : 0 ms
Gingko solve : 956 ms
 copy back
 get iters 
BJompGKOBiCGStab:  Solving for p, Initial residual = 0.528722, Final residual = 9.32444e-07, No Iterations 261
time step continuity errors : sum local = 6.70936e-09, global = -5.60396e-21, cumulative = 8.81268e-21
 found preconditioner 
Gingko init_preconditioner : 0 ms
Gingko solve : 906 ms
 copy back
 get iters 
BJompGKOBiCGStab:  Solving for p, Initial residual = 0.411453, Final residual = 8.86695e-07, No Iterations 252
time step continuity errors : sum local = 4.28359e-08, global = 9.29961e-21, cumulative = 1.81123e-20
ExecutionTime = 130 s  ClockTime = 10 s

Time = 0.01

Courant Number mean: 0.127339 max: 0.898877
nonePBiCGStab:  Solving for Ux, Initial residual = 0.0202773, Final residual = 0.00208499, No Iterations 5
nonePBiCGStab:  Solving for Uy, Initial residual = 0.0505587, Final residual = 0.00623982, No Iterations 5
nonePBiCGStab:  Solving for Uz, Initial residual = 0.113065, Final residual = 0.0182193, No Iterations 5
 found preconditioner 
Gingko init_preconditioner : 0 ms
Gingko solve : 897 ms
 copy back
 get iters 
BJompGKOBiCGStab:  Solving for p, Initial residual = 0.342709, Final residual = 3.82714e-07, No Iterations 255
time step continuity errors : sum local = 4.88966e-10, global = 8.18919e-21, cumulative = 2.63015e-20
 found preconditioner 
Gingko init_preconditioner : 0 ms
Gingko solve : 947 ms
 copy back
 get iters 
BJompGKOBiCGStab:  Solving for p, Initial residual = 0.354056, Final residual = 1.68386e-07, No Iterations 258
time step continuity errors : sum local = 2.1411e-08, global = 9.1334e-21, cumulative = 3.54349e-20
ExecutionTime = 159.69 s  ClockTime = 12 s

End

