/*---------------------------------------------------------------------------*\
  =========                 |
  \\      /  F ield         | OpenFOAM: The Open Source CFD Toolbox
   \\    /   O peration     | Website:  https://openfoam.org
    \\  /    A nd           | Version:  8
     \\/     M anipulation  |
\*---------------------------------------------------------------------------*/
Build  : 8-13d66902f78c
Exec   : icoFoam
Date   : Jun 26 2021
Time   : 23:52:16
Host   : "uc2n388.localdomain"
PID    : 3950352
I/O    : uncollated
Case   : /pfs/data5/home/kit/scc/nq7776/code/OGL_DATA/lidDrivenCavity3D/v0.1-117-g6793da2/f584ccac99/IntelXeonGold6230CPU@2.10GHz/Test_2021-06-26-23:29:56/50/p-U-CG-GKO-BJ-omp/lidDrivenCavity3D
nProcs : 1
sigFpe : Enabling floating point exception trapping (FOAM_SIGFPE).
fileModificationChecking : Monitoring run-time modified files using timeStampMaster (fileModificationSkew 10)
allowSystemOperations : Allowing user-supplied system call operations

// * * * * * * * * * * * * * * * * * * * * * * * * * * * * * * * * * * * * * //
Create time

Create mesh for time = 0

Reading transportProperties

Reading field p

Reading field U

Reading/calculating face flux field phi


Starting time loop

Time = 0.002

Courant Number mean: 0 max: 0
Gingko init_host_sparsity_pattern : 35 ms
 matrix not stored update host matrix 
Gingko update_host_mtx : 18 ms
matrix is not yet sorted, compute sorting idxs 
 compute sorting idxs 860000
Gingko compute_sort : 991 ms
matrix is not yet sorted,  sorting host matrix 
Gingko sort_host_mtx_sparsity_pattern : 24 ms
Gingko sort_host_mtx : 14 ms
Gingko init_preconditioner : 5 ms
Gingko solve : 175 ms
 copy back
 get iters 
BJompGKOBiCGStab:  Solving for Ux, Initial residual = 0, Final residual = 8.40984e-07, No Iterations 31
Gingko init_host_sparsity_pattern : 35 ms
 matrix not stored update host matrix 
Gingko update_host_mtx : 18 ms
matrix is not yet sorted,  sorting host matrix 
Gingko sort_host_mtx_sparsity_pattern : 23 ms
Gingko sort_host_mtx : 12 ms
Gingko init_preconditioner : 5 ms
Gingko solve : 2 ms
 copy back
 get iters 
BJompGKOBiCGStab:  Solving for Uy, Initial residual = 1, Final residual = 0, No Iterations 0
Gingko init_host_sparsity_pattern : 34 ms
 matrix not stored update host matrix 
Gingko update_host_mtx : 15 ms
matrix is not yet sorted,  sorting host matrix 
Gingko sort_host_mtx_sparsity_pattern : 23 ms
Gingko sort_host_mtx : 12 ms
Gingko init_preconditioner : 5 ms
Gingko solve : 2 ms
 copy back
 get iters 
BJompGKOBiCGStab:  Solving for Uz, Initial residual = 0, Final residual = 0, No Iterations 0
Gingko init_host_sparsity_pattern : 33 ms
 matrix not stored update host matrix 
Gingko update_host_mtx : 18 ms
matrix is not yet sorted,  sorting host matrix 
Gingko sort_host_mtx_sparsity_pattern : 23 ms
Gingko sort_host_mtx : 14 ms
Gingko init_preconditioner : 5 ms
 CG create  precond 
Gingko solve : 994 ms
 copy back
 get iters 
BJompGKOCG:  Solving for p, Initial residual = 0, Final residual = 9.57569e-07, No Iterations 404
time step continuity errors : sum local = 1.57675e-09, global = -8.49035e-21, cumulative = -8.49035e-21
 found preconditioner 
Gingko init_preconditioner : 0 ms
 CG create  precond 
Gingko solve : 765 ms
 copy back
 get iters 
BJompGKOCG:  Solving for p, Initial residual = 1, Final residual = 9.47224e-07, No Iterations 385
time step continuity errors : sum local = 2.06792e-09, global = -1.32825e-21, cumulative = -9.8186e-21
ExecutionTime = 33.89 s  ClockTime = 4 s

Time = 0.004

Courant Number mean: 0.0720722 max: 0.726639
Gingko init_host_sparsity_pattern : 32 ms
 matrix not stored update host matrix 
Gingko update_host_mtx : 18 ms
matrix is not yet sorted,  sorting host matrix 
Gingko sort_host_mtx_sparsity_pattern : 26 ms
Gingko sort_host_mtx : 15 ms
 found preconditioner 
Gingko init_preconditioner : 0 ms
Gingko solve : 129 ms
 copy back
 get iters 
BJompGKOBiCGStab:  Solving for Ux, Initial residual = 0.721583, Final residual = 5.55771e-07, No Iterations 23
Gingko init_host_sparsity_pattern : 33 ms
 matrix not stored update host matrix 
Gingko update_host_mtx : 16 ms
matrix is not yet sorted,  sorting host matrix 
Gingko sort_host_mtx_sparsity_pattern : 22 ms
Gingko sort_host_mtx : 13 ms
 found preconditioner 
Gingko init_preconditioner : 0 ms
Gingko solve : 155 ms
 copy back
 get iters 
BJompGKOBiCGStab:  Solving for Uy, Initial residual = 0.203465, Final residual = 9.30168e-07, No Iterations 32
Gingko init_host_sparsity_pattern : 33 ms
 matrix not stored update host matrix 
Gingko update_host_mtx : 15 ms
matrix is not yet sorted,  sorting host matrix 
Gingko sort_host_mtx_sparsity_pattern : 22 ms
Gingko sort_host_mtx : 12 ms
 found preconditioner 
Gingko init_preconditioner : 0 ms
Gingko solve : 128 ms
 copy back
 get iters 
BJompGKOBiCGStab:  Solving for Uz, Initial residual = 0.618431, Final residual = 9.90216e-07, No Iterations 31
 found preconditioner 
Gingko init_preconditioner : 0 ms
 CG create  precond 
Gingko solve : 759 ms
 copy back
 get iters 
BJompGKOCG:  Solving for p, Initial residual = 0.536268, Final residual = 9.36062e-07, No Iterations 377
time step continuity errors : sum local = 2.21985e-09, global = -3.27649e-20, cumulative = -4.25835e-20
 found preconditioner 
Gingko init_preconditioner : 0 ms
 CG create  precond 
Gingko solve : 738 ms
 copy back
 get iters 
BJompGKOCG:  Solving for p, Initial residual = 0.673319, Final residual = 9.48279e-07, No Iterations 376
time step continuity errors : sum local = 2.30809e-09, global = -2.10796e-21, cumulative = -4.46914e-20
ExecutionTime = 65.19 s  ClockTime = 6 s

Time = 0.006

Courant Number mean: 0.107408 max: 0.881754
Gingko init_host_sparsity_pattern : 33 ms
 matrix not stored update host matrix 
Gingko update_host_mtx : 17 ms
matrix is not yet sorted,  sorting host matrix 
Gingko sort_host_mtx_sparsity_pattern : 24 ms
Gingko sort_host_mtx : 13 ms
 found preconditioner 
Gingko init_preconditioner : 0 ms
Gingko solve : 87 ms
 copy back
 get iters 
BJompGKOBiCGStab:  Solving for Ux, Initial residual = 0.598888, Final residual = 7.01793e-07, No Iterations 21
Gingko init_host_sparsity_pattern : 33 ms
 matrix not stored update host matrix 
Gingko update_host_mtx : 16 ms
matrix is not yet sorted,  sorting host matrix 
Gingko sort_host_mtx_sparsity_pattern : 22 ms
Gingko sort_host_mtx : 12 ms
 found preconditioner 
Gingko init_preconditioner : 0 ms
Gingko solve : 116 ms
 copy back
 get iters 
BJompGKOBiCGStab:  Solving for Uy, Initial residual = 0.0995685, Final residual = 8.21534e-07, No Iterations 29
Gingko init_host_sparsity_pattern : 33 ms
 matrix not stored update host matrix 
Gingko update_host_mtx : 15 ms
matrix is not yet sorted,  sorting host matrix 
Gingko sort_host_mtx_sparsity_pattern : 22 ms
Gingko sort_host_mtx : 12 ms
 found preconditioner 
Gingko init_preconditioner : 0 ms
Gingko solve : 127 ms
 copy back
 get iters 
BJompGKOBiCGStab:  Solving for Uz, Initial residual = 0.249969, Final residual = 9.0151e-07, No Iterations 32
 found preconditioner 
Gingko init_preconditioner : 0 ms
 CG create  precond 
Gingko solve : 799 ms
 copy back
 get iters 
BJompGKOCG:  Solving for p, Initial residual = 0.540949, Final residual = 9.38926e-07, No Iterations 408
time step continuity errors : sum local = 1.59881e-09, global = -8.12568e-21, cumulative = -5.28171e-20
 found preconditioner 
Gingko init_preconditioner : 0 ms
 CG create  precond 
Gingko solve : 804 ms
 copy back
 get iters 
BJompGKOCG:  Solving for p, Initial residual = 0.60689, Final residual = 9.19105e-07, No Iterations 407
time step continuity errors : sum local = 1.51283e-09, global = -3.27692e-20, cumulative = -8.55863e-20
ExecutionTime = 96.86 s  ClockTime = 9 s

Time = 0.008

Courant Number mean: 0.123244 max: 0.890102
Gingko init_host_sparsity_pattern : 33 ms
 matrix not stored update host matrix 
Gingko update_host_mtx : 18 ms
matrix is not yet sorted,  sorting host matrix 
Gingko sort_host_mtx_sparsity_pattern : 24 ms
Gingko sort_host_mtx : 13 ms
 found preconditioner 
Gingko init_preconditioner : 0 ms
Gingko solve : 101 ms
 copy back
 get iters 
BJompGKOBiCGStab:  Solving for Ux, Initial residual = 0.560846, Final residual = 7.88556e-07, No Iterations 25
Gingko init_host_sparsity_pattern : 33 ms
 matrix not stored update host matrix 
Gingko update_host_mtx : 15 ms
matrix is not yet sorted,  sorting host matrix 
Gingko sort_host_mtx_sparsity_pattern : 22 ms
Gingko sort_host_mtx : 12 ms
 found preconditioner 
Gingko init_preconditioner : 0 ms
Gingko solve : 113 ms
 copy back
 get iters 
BJompGKOBiCGStab:  Solving for Uy, Initial residual = 0.0341421, Final residual = 8.14451e-07, No Iterations 28
Gingko init_host_sparsity_pattern : 33 ms
 matrix not stored update host matrix 
Gingko update_host_mtx : 16 ms
matrix is not yet sorted,  sorting host matrix 
Gingko sort_host_mtx_sparsity_pattern : 22 ms
Gingko sort_host_mtx : 12 ms
 found preconditioner 
Gingko init_preconditioner : 0 ms
Gingko solve : 123 ms
 copy back
 get iters 
BJompGKOBiCGStab:  Solving for Uz, Initial residual = 0.13238, Final residual = 9.25507e-07, No Iterations 31
 found preconditioner 
Gingko init_preconditioner : 0 ms
 CG create  precond 
Gingko solve : 783 ms
 copy back
 get iters 
BJompGKOCG:  Solving for p, Initial residual = 0.47195, Final residual = 9.07284e-07, No Iterations 403
time step continuity errors : sum local = 1.43249e-09, global = 2.0407e-20, cumulative = -6.51793e-20
 found preconditioner 
Gingko init_preconditioner : 0 ms
 CG create  precond 
Gingko solve : 756 ms
 copy back
 get iters 
BJompGKOCG:  Solving for p, Initial residual = 0.42304, Final residual = 9.22106e-07, No Iterations 402
time step continuity errors : sum local = 1.47704e-09, global = -2.86993e-20, cumulative = -9.38786e-20
ExecutionTime = 127.65 s  ClockTime = 11 s

Time = 0.01

Courant Number mean: 0.136096 max: 0.906942
Gingko init_host_sparsity_pattern : 32 ms
 matrix not stored update host matrix 
Gingko update_host_mtx : 16 ms
matrix is not yet sorted,  sorting host matrix 
Gingko sort_host_mtx_sparsity_pattern : 22 ms
Gingko sort_host_mtx : 12 ms
 found preconditioner 
Gingko init_preconditioner : 0 ms
Gingko solve : 93 ms
 copy back
 get iters 
BJompGKOBiCGStab:  Solving for Ux, Initial residual = 0.368379, Final residual = 7.32556e-07, No Iterations 24
Gingko init_host_sparsity_pattern : 33 ms
 matrix not stored update host matrix 
Gingko update_host_mtx : 16 ms
matrix is not yet sorted,  sorting host matrix 
Gingko sort_host_mtx_sparsity_pattern : 22 ms
Gingko sort_host_mtx : 12 ms
 found preconditioner 
Gingko init_preconditioner : 0 ms
Gingko solve : 96 ms
 copy back
 get iters 
BJompGKOBiCGStab:  Solving for Uy, Initial residual = 0.0230738, Final residual = 9.76199e-07, No Iterations 25
Gingko init_host_sparsity_pattern : 33 ms
 matrix not stored update host matrix 
Gingko update_host_mtx : 15 ms
matrix is not yet sorted,  sorting host matrix 
Gingko sort_host_mtx_sparsity_pattern : 22 ms
Gingko sort_host_mtx : 12 ms
 found preconditioner 
Gingko init_preconditioner : 0 ms
Gingko solve : 107 ms
 copy back
 get iters 
BJompGKOBiCGStab:  Solving for Uz, Initial residual = 0.0484117, Final residual = 8.49944e-07, No Iterations 28
 found preconditioner 
Gingko init_preconditioner : 0 ms
 CG create  precond 
Gingko solve : 728 ms
 copy back
 get iters 
BJompGKOCG:  Solving for p, Initial residual = 0.159037, Final residual = 9.8715e-07, No Iterations 381
time step continuity errors : sum local = 1.34865e-09, global = -8.85625e-21, cumulative = -1.02735e-19
 found preconditioner 
Gingko init_preconditioner : 0 ms
 CG create  precond 
Gingko solve : 745 ms
 copy back
 get iters 
BJompGKOCG:  Solving for p, Initial residual = 0.361668, Final residual = 9.57799e-07, No Iterations 380
time step continuity errors : sum local = 1.29683e-09, global = 1.53723e-20, cumulative = -8.73626e-20
ExecutionTime = 156.71 s  ClockTime = 13 s

End

