hash: c7bb7e69115f36e6717fa3afcfc43e55
--------------------------------------------------------------------------
WARNING: No preset parameters were found for the device that Open MPI
detected:

  Local host:            nla-gpu2
  Device name:           mlx5_0
  Device vendor ID:      0x02c9
  Device vendor part ID: 4123

Default device parameters will be used, which may result in lower
performance.  You can edit any of the files specified by the
btl_openib_device_param_files MCA parameter to set values for your
device.

NOTE: You can turn off this warning by setting the MCA parameter
      btl_openib_warn_no_device_params_found to 0.
--------------------------------------------------------------------------
--------------------------------------------------------------------------
WARNING: There is at least non-excluded one OpenFabrics device found,
but there are no active ports detected (or Open MPI was unable to use
them).  This is most certainly not what you wanted.  Check your
cables, subnet manager configuration, etc.  The openib BTL will be
ignored for this job.

  Local host: nla-gpu2
--------------------------------------------------------------------------
/*---------------------------------------------------------------------------*\
  =========                 |
  \\      /  F ield         | OpenFOAM: The Open Source CFD Toolbox
   \\    /   O peration     | Website:  https://openfoam.org
    \\  /    A nd           | Version:  8
     \\/     M anipulation  |
\*---------------------------------------------------------------------------*/
Build  : 8-ef60d22ea792
Exec   : icoFoam -parallel
Date   : Dec 28 2021
Time   : 00:05:48
Host   : "nla-gpu2.ianm.kit.edu"
PID    : 3218094
I/O    : uncollated
Case   : /tmp/lidDrivenCavity3D/Variation_mesh/100/Variation_matrix_solver/CG_NoPrecond_HIP/Variation_mpiRank/2/1640646347
nProcs : 2
Slaves : 1("nla-gpu2.ianm.kit.edu.3218095")
Pstream initialized with:
    floatTransfer      : 0
    nProcsSimpleSum    : 0
    commsType          : nonBlocking
    polling iterations : 0
sigFpe : Enabling floating point exception trapping (FOAM_SIGFPE).
fileModificationChecking : Monitoring run-time modified files using timeStampMaster (fileModificationSkew 10)
allowSystemOperations : Allowing user-supplied system call operations

// * * * * * * * * * * * * * * * * * * * * * * * * * * * * * * * * * * * * * //
Create time

--> FOAM Warning : 
    From function virtual void Foam::Time::readDict()
    in file db/Time/TimeIO.C at line 408
    Reading "/tmp/lidDrivenCavity3D/Variation_mesh/100/Variation_matrix_solver/CG_NoPrecond_HIP/Variation_mpiRank/2/1640646347/system/controlDict" from line 20 to line 52
    Selecting compressed binary is inefficient and ineffective, resetting to uncompressed binary
Create mesh for time = 0

Reading transportProperties

Reading field p

Reading field U

Reading/calculating face flux field phi


Starting time loop

Time = 0.001

Courant Number mean: 1.7257e-17 max: 1.73472e-14
DILUPBiCGStab:  Solving for Ux, Initial residual = 1, Final residual = 0.00925439, No Iterations 5
DILUPBiCGStab:  Solving for Uy:  solution singularity
DILUPBiCGStab:  Solving for Uz:  solution singularity
linear solve U 207237
nonehipGKOCG:  Solving for p, Initial residual = 1, Final residual = 9.85816e-07, No Iterations 902
linear solve p 19310146
time step continuity errors : sum local = 5.72427e-10, global = 1.13572e-20, cumulative = 1.13572e-20
nonehipGKOCG:  Solving for p, Initial residual = 0.778244, Final residual = 7.22356e-07, No Iterations 901
linear solve p 934790
time step continuity errors : sum local = 5.28202e-10, global = 1.67093e-21, cumulative = 1.30282e-20
ExecutionTime = 22.2 s  ClockTime = 21 s

Time = 0.002

Courant Number mean: 0.0556419 max: 0.807423
DILUPBiCGStab:  Solving for Ux, Initial residual = 0.137577, Final residual = 0.00439424, No Iterations 5
DILUPBiCGStab:  Solving for Uy, Initial residual = 0.431171, Final residual = 0.0102569, No Iterations 5
DILUPBiCGStab:  Solving for Uz, Initial residual = 0.982243, Final residual = 0.025856, No Iterations 5
linear solve U 403252
nonehipGKOCG:  Solving for p, Initial residual = 0.807234, Final residual = 4.93525e-07, No Iterations 901
linear solve p 937266
time step continuity errors : sum local = 5.24599e-10, global = 8.83134e-22, cumulative = 1.39113e-20
nonehipGKOCG:  Solving for p, Initial residual = 0.748137, Final residual = 4.19991e-07, No Iterations 901
linear solve p 930175
time step continuity errors : sum local = 4.55557e-10, global = 1.03929e-20, cumulative = 2.43042e-20
ExecutionTime = 25.67 s  ClockTime = 23 s

Time = 0.003

Courant Number mean: 0.084845 max: 0.943164
DILUPBiCGStab:  Solving for Ux, Initial residual = 0.0647396, Final residual = 0.00150704, No Iterations 5
DILUPBiCGStab:  Solving for Uy, Initial residual = 0.225469, Final residual = 0.0034392, No Iterations 5
DILUPBiCGStab:  Solving for Uz, Initial residual = 0.78448, Final residual = 0.0188446, No Iterations 5
linear solve U 396182
nonehipGKOCG:  Solving for p, Initial residual = 0.837152, Final residual = 4.32197e-07, No Iterations 901
linear solve p 933420
time step continuity errors : sum local = 4.26569e-10, global = 1.05673e-20, cumulative = 3.48715e-20
nonehipGKOCG:  Solving for p, Initial residual = 0.805084, Final residual = 4.10936e-07, No Iterations 901
linear solve p 929164
time step continuity errors : sum local = 3.95766e-10, global = -3.67868e-21, cumulative = 3.11929e-20
ExecutionTime = 29.1 s  ClockTime = 26 s

End

Finalising parallel run
================================================================================
hash: eb551ae1b7a5eaf4dbf626ec7cde6f17
--------------------------------------------------------------------------
WARNING: No preset parameters were found for the device that Open MPI
detected:

  Local host:            nla-gpu2
  Device name:           mlx5_0
  Device vendor ID:      0x02c9
  Device vendor part ID: 4123

Default device parameters will be used, which may result in lower
performance.  You can edit any of the files specified by the
btl_openib_device_param_files MCA parameter to set values for your
device.

NOTE: You can turn off this warning by setting the MCA parameter
      btl_openib_warn_no_device_params_found to 0.
--------------------------------------------------------------------------
--------------------------------------------------------------------------
WARNING: There is at least non-excluded one OpenFabrics device found,
but there are no active ports detected (or Open MPI was unable to use
them).  This is most certainly not what you wanted.  Check your
cables, subnet manager configuration, etc.  The openib BTL will be
ignored for this job.

  Local host: nla-gpu2
--------------------------------------------------------------------------
/*---------------------------------------------------------------------------*\
  =========                 |
  \\      /  F ield         | OpenFOAM: The Open Source CFD Toolbox
   \\    /   O peration     | Website:  https://openfoam.org
    \\  /    A nd           | Version:  8
     \\/     M anipulation  |
\*---------------------------------------------------------------------------*/
Build  : 8-ef60d22ea792
Exec   : icoFoam -parallel
Date   : Dec 28 2021
Time   : 00:06:14
Host   : "nla-gpu2.ianm.kit.edu"
PID    : 3218342
I/O    : uncollated
Case   : /tmp/lidDrivenCavity3D/Variation_mesh/100/Variation_matrix_solver/CG_NoPrecond_HIP/Variation_mpiRank/4/1640646374
nProcs : 4
Slaves : 
3
(
"nla-gpu2.ianm.kit.edu.3218343"
"nla-gpu2.ianm.kit.edu.3218344"
"nla-gpu2.ianm.kit.edu.3218345"
)

Pstream initialized with:
    floatTransfer      : 0
    nProcsSimpleSum    : 0
    commsType          : nonBlocking
    polling iterations : 0
sigFpe : Enabling floating point exception trapping (FOAM_SIGFPE).
fileModificationChecking : Monitoring run-time modified files using timeStampMaster (fileModificationSkew 10)
allowSystemOperations : Allowing user-supplied system call operations

// * * * * * * * * * * * * * * * * * * * * * * * * * * * * * * * * * * * * * //
Create time

--> FOAM Warning : 
    From function virtual void Foam::Time::readDict()
    in file db/Time/TimeIO.C at line 408
    Reading "/tmp/lidDrivenCavity3D/Variation_mesh/100/Variation_matrix_solver/CG_NoPrecond_HIP/Variation_mpiRank/4/1640646374/system/controlDict" from line 20 to line 52
    Selecting compressed binary is inefficient and ineffective, resetting to uncompressed binary
Create mesh for time = 0

Reading transportProperties

Reading field p

Reading field U

Reading/calculating face flux field phi


Starting time loop

Time = 0.001

Courant Number mean: 1.7257e-17 max: 1.73472e-14
DILUPBiCGStab:  Solving for Ux, Initial residual = 1, Final residual = 0.00880699, No Iterations 5
DILUPBiCGStab:  Solving for Uy:  solution singularity
DILUPBiCGStab:  Solving for Uz:  solution singularity
linear solve U 114342
nonehipGKOCG:  Solving for p, Initial residual = 1, Final residual = 9.72241e-07, No Iterations 865
linear solve p 10577542
time step continuity errors : sum local = 5.64483e-10, global = 1.46933e-20, cumulative = 1.46933e-20
nonehipGKOCG:  Solving for p, Initial residual = 0.775102, Final residual = 3.02924e-07, No Iterations 885
linear solve p 769083
time step continuity errors : sum local = 2.22424e-10, global = 3.78227e-21, cumulative = 1.84756e-20
ExecutionTime = 12.95 s  ClockTime = 12 s

Time = 0.002

Courant Number mean: 0.0557183 max: 0.806996
DILUPBiCGStab:  Solving for Ux, Initial residual = 0.137707, Final residual = 0.0043086, No Iterations 5
DILUPBiCGStab:  Solving for Uy, Initial residual = 0.431166, Final residual = 0.0116368, No Iterations 5
DILUPBiCGStab:  Solving for Uz, Initial residual = 0.983326, Final residual = 0.0269728, No Iterations 5
linear solve U 204087
nonehipGKOCG:  Solving for p, Initial residual = 0.808482, Final residual = 3.63515e-07, No Iterations 876
linear solve p 756527
time step continuity errors : sum local = 3.89091e-10, global = 7.21326e-21, cumulative = 2.56888e-20
nonehipGKOCG:  Solving for p, Initial residual = 0.747916, Final residual = 3.30889e-07, No Iterations 876
linear solve p 770134
time step continuity errors : sum local = 3.62161e-10, global = -5.01304e-21, cumulative = 2.06758e-20
ExecutionTime = 15.69 s  ClockTime = 14 s

Time = 0.003

Courant Number mean: 0.0848233 max: 0.943569
DILUPBiCGStab:  Solving for Ux, Initial residual = 0.0647857, Final residual = 0.00149915, No Iterations 5
DILUPBiCGStab:  Solving for Uy, Initial residual = 0.226496, Final residual = 0.00375465, No Iterations 5
DILUPBiCGStab:  Solving for Uz, Initial residual = 0.78004, Final residual = 0.0188028, No Iterations 5
linear solve U 204484
nonehipGKOCG:  Solving for p, Initial residual = 0.837489, Final residual = 2.22781e-07, No Iterations 876
linear solve p 769251
time step continuity errors : sum local = 2.20414e-10, global = -9.02375e-21, cumulative = 1.1652e-20
nonehipGKOCG:  Solving for p, Initial residual = 0.804963, Final residual = 9.16147e-07, No Iterations 841
linear solve p 744094
time step continuity errors : sum local = 8.8471e-10, global = -1.54145e-20, cumulative = -3.76251e-21
ExecutionTime = 18.4 s  ClockTime = 16 s

End

Finalising parallel run
================================================================================
hash: 44531f12d34818b9ee78bf861b0c08cf
--------------------------------------------------------------------------
WARNING: No preset parameters were found for the device that Open MPI
detected:

  Local host:            nla-gpu2
  Device name:           mlx5_0
  Device vendor ID:      0x02c9
  Device vendor part ID: 4123

Default device parameters will be used, which may result in lower
performance.  You can edit any of the files specified by the
btl_openib_device_param_files MCA parameter to set values for your
device.

NOTE: You can turn off this warning by setting the MCA parameter
      btl_openib_warn_no_device_params_found to 0.
--------------------------------------------------------------------------
--------------------------------------------------------------------------
WARNING: There is at least non-excluded one OpenFabrics device found,
but there are no active ports detected (or Open MPI was unable to use
them).  This is most certainly not what you wanted.  Check your
cables, subnet manager configuration, etc.  The openib BTL will be
ignored for this job.

  Local host: nla-gpu2
--------------------------------------------------------------------------
/*---------------------------------------------------------------------------*\
  =========                 |
  \\      /  F ield         | OpenFOAM: The Open Source CFD Toolbox
   \\    /   O peration     | Website:  https://openfoam.org
    \\  /    A nd           | Version:  8
     \\/     M anipulation  |
\*---------------------------------------------------------------------------*/
Build  : 8-ef60d22ea792
Exec   : icoFoam -parallel
Date   : Dec 28 2021
Time   : 00:06:30
Host   : "nla-gpu2.ianm.kit.edu"
PID    : 3218580
I/O    : uncollated
Case   : /tmp/lidDrivenCavity3D/Variation_mesh/100/Variation_matrix_solver/CG_NoPrecond_HIP/Variation_mpiRank/4/1640646390
nProcs : 4
Slaves : 
3
(
"nla-gpu2.ianm.kit.edu.3218581"
"nla-gpu2.ianm.kit.edu.3218582"
"nla-gpu2.ianm.kit.edu.3218583"
)

Pstream initialized with:
    floatTransfer      : 0
    nProcsSimpleSum    : 0
    commsType          : nonBlocking
    polling iterations : 0
sigFpe : Enabling floating point exception trapping (FOAM_SIGFPE).
fileModificationChecking : Monitoring run-time modified files using timeStampMaster (fileModificationSkew 10)
allowSystemOperations : Allowing user-supplied system call operations

// * * * * * * * * * * * * * * * * * * * * * * * * * * * * * * * * * * * * * //
Create time

--> FOAM Warning : 
    From function virtual void Foam::Time::readDict()
    in file db/Time/TimeIO.C at line 408
    Reading "/tmp/lidDrivenCavity3D/Variation_mesh/100/Variation_matrix_solver/CG_NoPrecond_HIP/Variation_mpiRank/4/1640646390/system/controlDict" from line 20 to line 52
    Selecting compressed binary is inefficient and ineffective, resetting to uncompressed binary
Create mesh for time = 0

Reading transportProperties

Reading field p

Reading field U

Reading/calculating face flux field phi


Starting time loop

Time = 0.001

Courant Number mean: 1.7257e-17 max: 1.73472e-14
DILUPBiCGStab:  Solving for Ux, Initial residual = 1, Final residual = 0.00880699, No Iterations 5
DILUPBiCGStab:  Solving for Uy:  solution singularity
DILUPBiCGStab:  Solving for Uz:  solution singularity
linear solve U 116361
nonehipGKOCG:  Solving for p, Initial residual = 1, Final residual = 9.72241e-07, No Iterations 865
linear solve p 10635730
time step continuity errors : sum local = 5.64483e-10, global = 1.46933e-20, cumulative = 1.46933e-20
nonehipGKOCG:  Solving for p, Initial residual = 0.775102, Final residual = 3.02924e-07, No Iterations 885
linear solve p 766637
time step continuity errors : sum local = 2.22424e-10, global = 3.78227e-21, cumulative = 1.84756e-20
ExecutionTime = 13 s  ClockTime = 12 s

Time = 0.002

Courant Number mean: 0.0557183 max: 0.806996
DILUPBiCGStab:  Solving for Ux, Initial residual = 0.137707, Final residual = 0.0043086, No Iterations 5
DILUPBiCGStab:  Solving for Uy, Initial residual = 0.431166, Final residual = 0.0116368, No Iterations 5
DILUPBiCGStab:  Solving for Uz, Initial residual = 0.983326, Final residual = 0.0269728, No Iterations 5
linear solve U 204334
nonehipGKOCG:  Solving for p, Initial residual = 0.808482, Final residual = 3.63515e-07, No Iterations 876
linear solve p 761033
time step continuity errors : sum local = 3.89091e-10, global = 7.21326e-21, cumulative = 2.56888e-20
nonehipGKOCG:  Solving for p, Initial residual = 0.747916, Final residual = 3.30889e-07, No Iterations 876
linear solve p 762156
time step continuity errors : sum local = 3.62161e-10, global = -5.01304e-21, cumulative = 2.06758e-20
ExecutionTime = 15.75 s  ClockTime = 14 s

Time = 0.003

Courant Number mean: 0.0848233 max: 0.943569
DILUPBiCGStab:  Solving for Ux, Initial residual = 0.0647857, Final residual = 0.00149915, No Iterations 5
DILUPBiCGStab:  Solving for Uy, Initial residual = 0.226496, Final residual = 0.00375465, No Iterations 5
DILUPBiCGStab:  Solving for Uz, Initial residual = 0.78004, Final residual = 0.0188028, No Iterations 5
linear solve U 205370
nonehipGKOCG:  Solving for p, Initial residual = 0.837489, Final residual = 2.22781e-07, No Iterations 876
linear solve p 765662
time step continuity errors : sum local = 2.20414e-10, global = -9.02375e-21, cumulative = 1.1652e-20
nonehipGKOCG:  Solving for p, Initial residual = 0.804963, Final residual = 9.16147e-07, No Iterations 841
linear solve p 737417
time step continuity errors : sum local = 8.8471e-10, global = -1.54145e-20, cumulative = -3.76251e-21
ExecutionTime = 18.46 s  ClockTime = 16 s

End

Finalising parallel run
================================================================================
hash: 5e42f962f0a968fd7090bca7dd4f7083
--------------------------------------------------------------------------
WARNING: No preset parameters were found for the device that Open MPI
detected:

  Local host:            nla-gpu2
  Device name:           mlx5_0
  Device vendor ID:      0x02c9
  Device vendor part ID: 4123

Default device parameters will be used, which may result in lower
performance.  You can edit any of the files specified by the
btl_openib_device_param_files MCA parameter to set values for your
device.

NOTE: You can turn off this warning by setting the MCA parameter
      btl_openib_warn_no_device_params_found to 0.
--------------------------------------------------------------------------
--------------------------------------------------------------------------
WARNING: There is at least non-excluded one OpenFabrics device found,
but there are no active ports detected (or Open MPI was unable to use
them).  This is most certainly not what you wanted.  Check your
cables, subnet manager configuration, etc.  The openib BTL will be
ignored for this job.

  Local host: nla-gpu2
--------------------------------------------------------------------------
/*---------------------------------------------------------------------------*\
  =========                 |
  \\      /  F ield         | OpenFOAM: The Open Source CFD Toolbox
   \\    /   O peration     | Website:  https://openfoam.org
    \\  /    A nd           | Version:  8
     \\/     M anipulation  |
\*---------------------------------------------------------------------------*/
Build  : 8-ef60d22ea792
Exec   : icoFoam -parallel
Date   : Dec 28 2021
Time   : 00:06:47
Host   : "nla-gpu2.ianm.kit.edu"
PID    : 3218735
I/O    : uncollated
Case   : /tmp/lidDrivenCavity3D/Variation_mesh/100/Variation_matrix_solver/CG_NoPrecond_HIP/Variation_mpiRank/4/1640646406
nProcs : 4
Slaves : 
3
(
"nla-gpu2.ianm.kit.edu.3218736"
"nla-gpu2.ianm.kit.edu.3218737"
"nla-gpu2.ianm.kit.edu.3218738"
)

Pstream initialized with:
    floatTransfer      : 0
    nProcsSimpleSum    : 0
    commsType          : nonBlocking
    polling iterations : 0
sigFpe : Enabling floating point exception trapping (FOAM_SIGFPE).
fileModificationChecking : Monitoring run-time modified files using timeStampMaster (fileModificationSkew 10)
allowSystemOperations : Allowing user-supplied system call operations

// * * * * * * * * * * * * * * * * * * * * * * * * * * * * * * * * * * * * * //
Create time

--> FOAM Warning : 
    From function virtual void Foam::Time::readDict()
    in file db/Time/TimeIO.C at line 408
    Reading "/tmp/lidDrivenCavity3D/Variation_mesh/100/Variation_matrix_solver/CG_NoPrecond_HIP/Variation_mpiRank/4/1640646406/system/controlDict" from line 20 to line 52
    Selecting compressed binary is inefficient and ineffective, resetting to uncompressed binary
Create mesh for time = 0

Reading transportProperties

Reading field p

Reading field U

Reading/calculating face flux field phi


Starting time loop

Time = 0.001

Courant Number mean: 1.7257e-17 max: 1.73472e-14
DILUPBiCGStab:  Solving for Ux, Initial residual = 1, Final residual = 0.00880699, No Iterations 5
DILUPBiCGStab:  Solving for Uy:  solution singularity
DILUPBiCGStab:  Solving for Uz:  solution singularity
linear solve U 115470
nonehipGKOCG:  Solving for p, Initial residual = 1, Final residual = 9.72241e-07, No Iterations 865
linear solve p 10310938
time step continuity errors : sum local = 5.64483e-10, global = 1.46933e-20, cumulative = 1.46933e-20
nonehipGKOCG:  Solving for p, Initial residual = 0.775102, Final residual = 3.02924e-07, No Iterations 885
linear solve p 774450
time step continuity errors : sum local = 2.22424e-10, global = 3.78227e-21, cumulative = 1.84756e-20
ExecutionTime = 12.69 s  ClockTime = 11 s

Time = 0.002

Courant Number mean: 0.0557183 max: 0.806996
DILUPBiCGStab:  Solving for Ux, Initial residual = 0.137707, Final residual = 0.0043086, No Iterations 5
DILUPBiCGStab:  Solving for Uy, Initial residual = 0.431166, Final residual = 0.0116368, No Iterations 5
DILUPBiCGStab:  Solving for Uz, Initial residual = 0.983326, Final residual = 0.0269728, No Iterations 5
linear solve U 201404
nonehipGKOCG:  Solving for p, Initial residual = 0.808482, Final residual = 3.63515e-07, No Iterations 876
linear solve p 767387
time step continuity errors : sum local = 3.89091e-10, global = 7.21326e-21, cumulative = 2.56888e-20
nonehipGKOCG:  Solving for p, Initial residual = 0.747916, Final residual = 3.30889e-07, No Iterations 876
linear solve p 760960
time step continuity errors : sum local = 3.62161e-10, global = -5.01304e-21, cumulative = 2.06758e-20
ExecutionTime = 15.44 s  ClockTime = 13 s

Time = 0.003

Courant Number mean: 0.0848233 max: 0.943569
DILUPBiCGStab:  Solving for Ux, Initial residual = 0.0647857, Final residual = 0.00149915, No Iterations 5
DILUPBiCGStab:  Solving for Uy, Initial residual = 0.226496, Final residual = 0.00375465, No Iterations 5
DILUPBiCGStab:  Solving for Uz, Initial residual = 0.78004, Final residual = 0.0188028, No Iterations 5
linear solve U 199889
nonehipGKOCG:  Solving for p, Initial residual = 0.837489, Final residual = 2.22781e-07, No Iterations 876
linear solve p 762846
time step continuity errors : sum local = 2.20414e-10, global = -9.02375e-21, cumulative = 1.1652e-20
nonehipGKOCG:  Solving for p, Initial residual = 0.804963, Final residual = 9.16147e-07, No Iterations 841
linear solve p 739656
time step continuity errors : sum local = 8.8471e-10, global = -1.54145e-20, cumulative = -3.76251e-21
ExecutionTime = 18.14 s  ClockTime = 15 s

End

Finalising parallel run
================================================================================
hash: 1948e4caeaa8aebfba32f630f982feec
--------------------------------------------------------------------------
WARNING: No preset parameters were found for the device that Open MPI
detected:

  Local host:            nla-gpu2
  Device name:           mlx5_0
  Device vendor ID:      0x02c9
  Device vendor part ID: 4123

Default device parameters will be used, which may result in lower
performance.  You can edit any of the files specified by the
btl_openib_device_param_files MCA parameter to set values for your
device.

NOTE: You can turn off this warning by setting the MCA parameter
      btl_openib_warn_no_device_params_found to 0.
--------------------------------------------------------------------------
--------------------------------------------------------------------------
WARNING: There is at least non-excluded one OpenFabrics device found,
but there are no active ports detected (or Open MPI was unable to use
them).  This is most certainly not what you wanted.  Check your
cables, subnet manager configuration, etc.  The openib BTL will be
ignored for this job.

  Local host: nla-gpu2
--------------------------------------------------------------------------
/*---------------------------------------------------------------------------*\
  =========                 |
  \\      /  F ield         | OpenFOAM: The Open Source CFD Toolbox
   \\    /   O peration     | Website:  https://openfoam.org
    \\  /    A nd           | Version:  8
     \\/     M anipulation  |
\*---------------------------------------------------------------------------*/
Build  : 8-ef60d22ea792
Exec   : icoFoam -parallel
Date   : Dec 28 2021
Time   : 00:07:03
Host   : "nla-gpu2.ianm.kit.edu"
PID    : 3218871
I/O    : uncollated
Case   : /tmp/lidDrivenCavity3D/Variation_mesh/100/Variation_matrix_solver/CG_NoPrecond_HIP/Variation_mpiRank/8/1640646422
nProcs : 8
Slaves : 
7
(
"nla-gpu2.ianm.kit.edu.3218872"
"nla-gpu2.ianm.kit.edu.3218873"
"nla-gpu2.ianm.kit.edu.3218874"
"nla-gpu2.ianm.kit.edu.3218875"
"nla-gpu2.ianm.kit.edu.3218876"
"nla-gpu2.ianm.kit.edu.3218877"
"nla-gpu2.ianm.kit.edu.3218878"
)

Pstream initialized with:
    floatTransfer      : 0
    nProcsSimpleSum    : 0
    commsType          : nonBlocking
    polling iterations : 0
sigFpe : Enabling floating point exception trapping (FOAM_SIGFPE).
fileModificationChecking : Monitoring run-time modified files using timeStampMaster (fileModificationSkew 10)
allowSystemOperations : Allowing user-supplied system call operations

// * * * * * * * * * * * * * * * * * * * * * * * * * * * * * * * * * * * * * //
Create time

--> FOAM Warning : 
    From function virtual void Foam::Time::readDict()
    in file db/Time/TimeIO.C at line 408
    Reading "/tmp/lidDrivenCavity3D/Variation_mesh/100/Variation_matrix_solver/CG_NoPrecond_HIP/Variation_mpiRank/8/1640646422/system/controlDict" from line 20 to line 52
    Selecting compressed binary is inefficient and ineffective, resetting to uncompressed binary
Create mesh for time = 0

Reading transportProperties

Reading field p

Reading field U

Reading/calculating face flux field phi


Starting time loop

Time = 0.001

Courant Number mean: 1.7257e-17 max: 1.73472e-14
DILUPBiCGStab:  Solving for Ux, Initial residual = 1, Final residual = 0.00976191, No Iterations 5
DILUPBiCGStab:  Solving for Uy:  solution singularity
DILUPBiCGStab:  Solving for Uz:  solution singularity
linear solve U 56751
nonehipGKOCG:  Solving for p, Initial residual = 1, Final residual = 9.67297e-07, No Iterations 901
linear solve p 5324515
time step continuity errors : sum local = 5.5973e-10, global = 3.76222e-21, cumulative = 3.76222e-21
nonehipGKOCG:  Solving for p, Initial residual = 0.777378, Final residual = 6.70167e-07, No Iterations 901
linear solve p 699680
time step continuity errors : sum local = 4.88727e-10, global = 3.35628e-21, cumulative = 7.1185e-21
ExecutionTime = 7.46 s  ClockTime = 6 s

Time = 0.002

Courant Number mean: 0.0555224 max: 0.807219
DILUPBiCGStab:  Solving for Ux, Initial residual = 0.137481, Final residual = 0.00480444, No Iterations 5
DILUPBiCGStab:  Solving for Uy, Initial residual = 0.431367, Final residual = 0.0127824, No Iterations 5
DILUPBiCGStab:  Solving for Uz, Initial residual = 0.97357, Final residual = 0.0274119, No Iterations 5
linear solve U 102048
nonehipGKOCG:  Solving for p, Initial residual = 0.808994, Final residual = 4.77156e-07, No Iterations 901
linear solve p 697684
time step continuity errors : sum local = 5.11532e-10, global = -1.06816e-20, cumulative = -3.56307e-21
nonehipGKOCG:  Solving for p, Initial residual = 0.74964, Final residual = 4.06032e-07, No Iterations 901
linear solve p 700556
time step continuity errors : sum local = 4.4421e-10, global = -9.04905e-21, cumulative = -1.26121e-20
ExecutionTime = 9.95 s  ClockTime = 8 s

Time = 0.003

Courant Number mean: 0.0846038 max: 0.943672
DILUPBiCGStab:  Solving for Ux, Initial residual = 0.0646795, Final residual = 0.00170435, No Iterations 5
DILUPBiCGStab:  Solving for Uy, Initial residual = 0.226339, Final residual = 0.00427099, No Iterations 5
DILUPBiCGStab:  Solving for Uz, Initial residual = 0.765697, Final residual = 0.0189349, No Iterations 5
linear solve U 101552
nonehipGKOCG:  Solving for p, Initial residual = 0.837716, Final residual = 4.1872e-07, No Iterations 901
linear solve p 696756
time step continuity errors : sum local = 4.14454e-10, global = 1.26893e-20, cumulative = 7.71656e-23
nonehipGKOCG:  Solving for p, Initial residual = 0.805107, Final residual = 3.93572e-07, No Iterations 901
linear solve p 692912
time step continuity errors : sum local = 3.80108e-10, global = 9.82071e-21, cumulative = 9.89788e-21
ExecutionTime = 12.42 s  ClockTime = 9 s

End

Finalising parallel run
================================================================================
hash: d25a1b30e28268bd3ff4d743f87c6753
--------------------------------------------------------------------------
WARNING: No preset parameters were found for the device that Open MPI
detected:

  Local host:            nla-gpu2
  Device name:           mlx5_0
  Device vendor ID:      0x02c9
  Device vendor part ID: 4123

Default device parameters will be used, which may result in lower
performance.  You can edit any of the files specified by the
btl_openib_device_param_files MCA parameter to set values for your
device.

NOTE: You can turn off this warning by setting the MCA parameter
      btl_openib_warn_no_device_params_found to 0.
--------------------------------------------------------------------------
--------------------------------------------------------------------------
WARNING: There is at least non-excluded one OpenFabrics device found,
but there are no active ports detected (or Open MPI was unable to use
them).  This is most certainly not what you wanted.  Check your
cables, subnet manager configuration, etc.  The openib BTL will be
ignored for this job.

  Local host: nla-gpu2
--------------------------------------------------------------------------
/*---------------------------------------------------------------------------*\
  =========                 |
  \\      /  F ield         | OpenFOAM: The Open Source CFD Toolbox
   \\    /   O peration     | Website:  https://openfoam.org
    \\  /    A nd           | Version:  8
     \\/     M anipulation  |
\*---------------------------------------------------------------------------*/
Build  : 8-ef60d22ea792
Exec   : icoFoam -parallel
Date   : Dec 28 2021
Time   : 00:07:13
Host   : "nla-gpu2.ianm.kit.edu"
PID    : 3219049
I/O    : uncollated
Case   : /tmp/lidDrivenCavity3D/Variation_mesh/100/Variation_matrix_solver/CG_NoPrecond_HIP/Variation_mpiRank/16/1640646432
nProcs : 16
Slaves : 
15
(
"nla-gpu2.ianm.kit.edu.3219050"
"nla-gpu2.ianm.kit.edu.3219051"
"nla-gpu2.ianm.kit.edu.3219052"
"nla-gpu2.ianm.kit.edu.3219053"
"nla-gpu2.ianm.kit.edu.3219054"
"nla-gpu2.ianm.kit.edu.3219055"
"nla-gpu2.ianm.kit.edu.3219056"
"nla-gpu2.ianm.kit.edu.3219057"
"nla-gpu2.ianm.kit.edu.3219058"
"nla-gpu2.ianm.kit.edu.3219059"
"nla-gpu2.ianm.kit.edu.3219060"
"nla-gpu2.ianm.kit.edu.3219061"
"nla-gpu2.ianm.kit.edu.3219062"
"nla-gpu2.ianm.kit.edu.3219063"
"nla-gpu2.ianm.kit.edu.3219064"
)

Pstream initialized with:
    floatTransfer      : 0
    nProcsSimpleSum    : 0
    commsType          : nonBlocking
    polling iterations : 0
sigFpe : Enabling floating point exception trapping (FOAM_SIGFPE).
fileModificationChecking : Monitoring run-time modified files using timeStampMaster (fileModificationSkew 10)
allowSystemOperations : Allowing user-supplied system call operations

// * * * * * * * * * * * * * * * * * * * * * * * * * * * * * * * * * * * * * //
Create time

--> FOAM Warning : 
    From function virtual void Foam::Time::readDict()
    in file db/Time/TimeIO.C at line 408
    Reading "/tmp/lidDrivenCavity3D/Variation_mesh/100/Variation_matrix_solver/CG_NoPrecond_HIP/Variation_mpiRank/16/1640646432/system/controlDict" from line 20 to line 52
    Selecting compressed binary is inefficient and ineffective, resetting to uncompressed binary
Create mesh for time = 0

Reading transportProperties

Reading field p

Reading field U

Reading/calculating face flux field phi


Starting time loop

Time = 0.001

Courant Number mean: 1.7257e-17 max: 1.73472e-14
DILUPBiCGStab:  Solving for Ux, Initial residual = 1, Final residual = 0.0106366, No Iterations 5
DILUPBiCGStab:  Solving for Uy:  solution singularity
DILUPBiCGStab:  Solving for Uz:  solution singularity
linear solve U 33184
nonehipGKOCG:  Solving for p, Initial residual = 1, Final residual = 9.92105e-07, No Iterations 848
linear solve p 5521277
time step continuity errors : sum local = 5.8957e-10, global = 1.37791e-20, cumulative = 1.37791e-20
nonehipGKOCG:  Solving for p, Initial residual = 0.77912, Final residual = 4.95047e-07, No Iterations 859
linear solve p 1775662
time step continuity errors : sum local = 3.69523e-10, global = -2.36331e-21, cumulative = 1.14158e-20
ExecutionTime = 8.6 s  ClockTime = 7 s

Time = 0.002

Courant Number mean: 0.0553682 max: 0.807377
DILUPBiCGStab:  Solving for Ux, Initial residual = 0.137293, Final residual = 0.00539642, No Iterations 5
DILUPBiCGStab:  Solving for Uy, Initial residual = 0.431441, Final residual = 0.0150262, No Iterations 5
DILUPBiCGStab:  Solving for Uz, Initial residual = 0.964638, Final residual = 0.0322596, No Iterations 5
linear solve U 52542
nonehipGKOCG:  Solving for p, Initial residual = 0.81554, Final residual = 9.30171e-07, No Iterations 851
linear solve p 1849556
time step continuity errors : sum local = 1.03253e-09, global = 1.8214e-20, cumulative = 2.96298e-20
nonehipGKOCG:  Solving for p, Initial residual = 0.755551, Final residual = 8.44976e-07, No Iterations 851
linear solve p 1438654
time step continuity errors : sum local = 9.5772e-10, global = -2.5555e-21, cumulative = 2.70743e-20
ExecutionTime = 12.82 s  ClockTime = 11 s

Time = 0.003

Courant Number mean: 0.0843648 max: 0.943993
DILUPBiCGStab:  Solving for Ux, Initial residual = 0.064587, Final residual = 0.00195245, No Iterations 5
DILUPBiCGStab:  Solving for Uy, Initial residual = 0.226245, Final residual = 0.00501225, No Iterations 5
DILUPBiCGStab:  Solving for Uz, Initial residual = 0.748087, Final residual = 0.0216918, No Iterations 5
linear solve U 55660
nonehipGKOCG:  Solving for p, Initial residual = 0.840441, Final residual = 9.50188e-07, No Iterations 817
linear solve p 1465374
time step continuity errors : sum local = 9.56887e-10, global = -1.81161e-20, cumulative = 8.9582e-21
nonehipGKOCG:  Solving for p, Initial residual = 0.806749, Final residual = 2.73488e-07, No Iterations 865
linear solve p 1509908
time step continuity errors : sum local = 2.68745e-10, global = 1.51775e-20, cumulative = 2.41357e-20
ExecutionTime = 16.72 s  ClockTime = 14 s

End

Finalising parallel run
================================================================================
hash: bba7a76e76bec0fecc4dd61d1d4f8ddb
--------------------------------------------------------------------------
WARNING: No preset parameters were found for the device that Open MPI
detected:

  Local host:            nla-gpu2
  Device name:           mlx5_0
  Device vendor ID:      0x02c9
  Device vendor part ID: 4123

Default device parameters will be used, which may result in lower
performance.  You can edit any of the files specified by the
btl_openib_device_param_files MCA parameter to set values for your
device.

NOTE: You can turn off this warning by setting the MCA parameter
      btl_openib_warn_no_device_params_found to 0.
--------------------------------------------------------------------------
--------------------------------------------------------------------------
WARNING: There is at least non-excluded one OpenFabrics device found,
but there are no active ports detected (or Open MPI was unable to use
them).  This is most certainly not what you wanted.  Check your
cables, subnet manager configuration, etc.  The openib BTL will be
ignored for this job.

  Local host: nla-gpu2
--------------------------------------------------------------------------
/*---------------------------------------------------------------------------*\
  =========                 |
  \\      /  F ield         | OpenFOAM: The Open Source CFD Toolbox
   \\    /   O peration     | Website:  https://openfoam.org
    \\  /    A nd           | Version:  8
     \\/     M anipulation  |
\*---------------------------------------------------------------------------*/
Build  : 8-ef60d22ea792
Exec   : icoFoam -parallel
Date   : Dec 28 2021
Time   : 00:07:28
Host   : "nla-gpu2.ianm.kit.edu"
PID    : 3219329
I/O    : uncollated
Case   : /tmp/lidDrivenCavity3D/Variation_mesh/100/Variation_matrix_solver/CG_NoPrecond_HIP/Variation_mpiRank/32/1640646447
nProcs : 32
Slaves : 
31
(
"nla-gpu2.ianm.kit.edu.3219330"
"nla-gpu2.ianm.kit.edu.3219331"
"nla-gpu2.ianm.kit.edu.3219332"
"nla-gpu2.ianm.kit.edu.3219333"
"nla-gpu2.ianm.kit.edu.3219334"
"nla-gpu2.ianm.kit.edu.3219335"
"nla-gpu2.ianm.kit.edu.3219336"
"nla-gpu2.ianm.kit.edu.3219337"
"nla-gpu2.ianm.kit.edu.3219338"
"nla-gpu2.ianm.kit.edu.3219339"
"nla-gpu2.ianm.kit.edu.3219340"
"nla-gpu2.ianm.kit.edu.3219341"
"nla-gpu2.ianm.kit.edu.3219342"
"nla-gpu2.ianm.kit.edu.3219343"
"nla-gpu2.ianm.kit.edu.3219344"
"nla-gpu2.ianm.kit.edu.3219345"
"nla-gpu2.ianm.kit.edu.3219346"
"nla-gpu2.ianm.kit.edu.3219347"
"nla-gpu2.ianm.kit.edu.3219348"
"nla-gpu2.ianm.kit.edu.3219349"
"nla-gpu2.ianm.kit.edu.3219350"
"nla-gpu2.ianm.kit.edu.3219351"
"nla-gpu2.ianm.kit.edu.3219352"
"nla-gpu2.ianm.kit.edu.3219353"
"nla-gpu2.ianm.kit.edu.3219354"
"nla-gpu2.ianm.kit.edu.3219355"
"nla-gpu2.ianm.kit.edu.3219356"
"nla-gpu2.ianm.kit.edu.3219357"
"nla-gpu2.ianm.kit.edu.3219358"
"nla-gpu2.ianm.kit.edu.3219359"
"nla-gpu2.ianm.kit.edu.3219361"
)

Pstream initialized with:
    floatTransfer      : 0
    nProcsSimpleSum    : 0
    commsType          : nonBlocking
    polling iterations : 0
sigFpe : Enabling floating point exception trapping (FOAM_SIGFPE).
fileModificationChecking : Monitoring run-time modified files using timeStampMaster (fileModificationSkew 10)
allowSystemOperations : Allowing user-supplied system call operations

// * * * * * * * * * * * * * * * * * * * * * * * * * * * * * * * * * * * * * //
Create time

--> FOAM Warning : 
    From function virtual void Foam::Time::readDict()
    in file db/Time/TimeIO.C at line 408
    Reading "/tmp/lidDrivenCavity3D/Variation_mesh/100/Variation_matrix_solver/CG_NoPrecond_HIP/Variation_mpiRank/32/1640646447/system/controlDict" from line 20 to line 52
    Selecting compressed binary is inefficient and ineffective, resetting to uncompressed binary
Create mesh for time = 0

Reading transportProperties

Reading field p

Reading field U

Reading/calculating face flux field phi


Starting time loop

Time = 0.001

Courant Number mean: 1.7257e-17 max: 1.73472e-14
DILUPBiCGStab:  Solving for Ux, Initial residual = 1, Final residual = 0.0110863, No Iterations 5
DILUPBiCGStab:  Solving for Uy:  solution singularity
DILUPBiCGStab:  Solving for Uz:  solution singularity
linear solve U 23389
nonehipGKOCG:  Solving for p, Initial residual = 1, Final residual = 9.90946e-07, No Iterations 861
linear solve p 6262369
time step continuity errors : sum local = 5.90024e-10, global = 4.31731e-21, cumulative = 4.31731e-21
nonehipGKOCG:  Solving for p, Initial residual = 0.779449, Final residual = 1.24912e-07, No Iterations 885
linear solve p 2930632
time step continuity errors : sum local = 9.33701e-11, global = -4.03399e-21, cumulative = 2.83327e-22
ExecutionTime = 10.6 s  ClockTime = 9 s

Time = 0.002

Courant Number mean: 0.055271 max: 0.806869
DILUPBiCGStab:  Solving for Ux, Initial residual = 0.137243, Final residual = 0.00582378, No Iterations 5
DILUPBiCGStab:  Solving for Uy, Initial residual = 0.431558, Final residual = 0.0166736, No Iterations 5
DILUPBiCGStab:  Solving for Uz, Initial residual = 0.958311, Final residual = 0.0351542, No Iterations 5
linear solve U 29409
nonehipGKOCG:  Solving for p, Initial residual = 0.818201, Final residual = 1.38989e-07, No Iterations 876
linear solve p 3962651
time step continuity errors : sum local = 1.56606e-10, global = 6.62306e-21, cumulative = 6.90639e-21
nonehipGKOCG:  Solving for p, Initial residual = 0.758654, Final residual = 1.15815e-07, No Iterations 876
linear solve p 4819163
time step continuity errors : sum local = 1.3322e-10, global = -1.4628e-20, cumulative = -7.72165e-21
ExecutionTime = 20.33 s  ClockTime = 18 s

Time = 0.003

Courant Number mean: 0.0842046 max: 0.944461
DILUPBiCGStab:  Solving for Ux, Initial residual = 0.0645685, Final residual = 0.00208091, No Iterations 5
DILUPBiCGStab:  Solving for Uy, Initial residual = 0.226398, Final residual = 0.00558124, No Iterations 5
DILUPBiCGStab:  Solving for Uz, Initial residual = 0.734204, Final residual = 0.0235716, No Iterations 5
linear solve U 30039
nonehipGKOCG:  Solving for p, Initial residual = 0.84138, Final residual = 1.46513e-07, No Iterations 876
linear solve p 3386592
time step continuity errors : sum local = 1.48548e-10, global = 1.6639e-20, cumulative = 8.91731e-21
nonehipGKOCG:  Solving for p, Initial residual = 0.807913, Final residual = 1.33467e-07, No Iterations 876
linear solve p 3333943
time step continuity errors : sum local = 1.31993e-10, global = 9.61227e-21, cumulative = 1.85296e-20
ExecutionTime = 27.98 s  ClockTime = 25 s

End

Finalising parallel run
================================================================================
hash: bb4689d835e88a35c376e4f3cf1df944
--------------------------------------------------------------------------
WARNING: No preset parameters were found for the device that Open MPI
detected:

  Local host:            nla-gpu2
  Device name:           mlx5_0
  Device vendor ID:      0x02c9
  Device vendor part ID: 4123

Default device parameters will be used, which may result in lower
performance.  You can edit any of the files specified by the
btl_openib_device_param_files MCA parameter to set values for your
device.

NOTE: You can turn off this warning by setting the MCA parameter
      btl_openib_warn_no_device_params_found to 0.
--------------------------------------------------------------------------
--------------------------------------------------------------------------
WARNING: There is at least non-excluded one OpenFabrics device found,
but there are no active ports detected (or Open MPI was unable to use
them).  This is most certainly not what you wanted.  Check your
cables, subnet manager configuration, etc.  The openib BTL will be
ignored for this job.

  Local host: nla-gpu2
--------------------------------------------------------------------------
/*---------------------------------------------------------------------------*\
  =========                 |
  \\      /  F ield         | OpenFOAM: The Open Source CFD Toolbox
   \\    /   O peration     | Website:  https://openfoam.org
    \\  /    A nd           | Version:  8
     \\/     M anipulation  |
\*---------------------------------------------------------------------------*/
Build  : 8-ef60d22ea792
Exec   : icoFoam -parallel
Date   : Dec 28 2021
Time   : 00:07:54
Host   : "nla-gpu2.ianm.kit.edu"
PID    : 3219707
I/O    : uncollated
Case   : /tmp/lidDrivenCavity3D/Variation_mesh/100/Variation_matrix_solver/CG_NoPrecond_HIP/Variation_mpiRank/40/1640646473
nProcs : 40
Slaves : 
39
(
"nla-gpu2.ianm.kit.edu.3219708"
"nla-gpu2.ianm.kit.edu.3219709"
"nla-gpu2.ianm.kit.edu.3219710"
"nla-gpu2.ianm.kit.edu.3219711"
"nla-gpu2.ianm.kit.edu.3219712"
"nla-gpu2.ianm.kit.edu.3219713"
"nla-gpu2.ianm.kit.edu.3219714"
"nla-gpu2.ianm.kit.edu.3219715"
"nla-gpu2.ianm.kit.edu.3219716"
"nla-gpu2.ianm.kit.edu.3219717"
"nla-gpu2.ianm.kit.edu.3219718"
"nla-gpu2.ianm.kit.edu.3219719"
"nla-gpu2.ianm.kit.edu.3219720"
"nla-gpu2.ianm.kit.edu.3219721"
"nla-gpu2.ianm.kit.edu.3219722"
"nla-gpu2.ianm.kit.edu.3219723"
"nla-gpu2.ianm.kit.edu.3219724"
"nla-gpu2.ianm.kit.edu.3219725"
"nla-gpu2.ianm.kit.edu.3219726"
"nla-gpu2.ianm.kit.edu.3219727"
"nla-gpu2.ianm.kit.edu.3219728"
"nla-gpu2.ianm.kit.edu.3219729"
"nla-gpu2.ianm.kit.edu.3219730"
"nla-gpu2.ianm.kit.edu.3219731"
"nla-gpu2.ianm.kit.edu.3219732"
"nla-gpu2.ianm.kit.edu.3219733"
"nla-gpu2.ianm.kit.edu.3219734"
"nla-gpu2.ianm.kit.edu.3219735"
"nla-gpu2.ianm.kit.edu.3219736"
"nla-gpu2.ianm.kit.edu.3219737"
"nla-gpu2.ianm.kit.edu.3219738"
"nla-gpu2.ianm.kit.edu.3219739"
"nla-gpu2.ianm.kit.edu.3219740"
"nla-gpu2.ianm.kit.edu.3219741"
"nla-gpu2.ianm.kit.edu.3219742"
"nla-gpu2.ianm.kit.edu.3219743"
"nla-gpu2.ianm.kit.edu.3219744"
"nla-gpu2.ianm.kit.edu.3219745"
"nla-gpu2.ianm.kit.edu.3219746"
)

Pstream initialized with:
    floatTransfer      : 0
    nProcsSimpleSum    : 0
    commsType          : nonBlocking
    polling iterations : 0
sigFpe : Enabling floating point exception trapping (FOAM_SIGFPE).
fileModificationChecking : Monitoring run-time modified files using timeStampMaster (fileModificationSkew 10)
allowSystemOperations : Allowing user-supplied system call operations

// * * * * * * * * * * * * * * * * * * * * * * * * * * * * * * * * * * * * * //
Create time

--> FOAM Warning : 
    From function virtual void Foam::Time::readDict()
    in file db/Time/TimeIO.C at line 408
    Reading "/tmp/lidDrivenCavity3D/Variation_mesh/100/Variation_matrix_solver/CG_NoPrecond_HIP/Variation_mpiRank/40/1640646473/system/controlDict" from line 20 to line 52
    Selecting compressed binary is inefficient and ineffective, resetting to uncompressed binary
Create mesh for time = 0

Reading transportProperties

Reading field p

Reading field U

Reading/calculating face flux field phi


Starting time loop

Time = 0.001

Courant Number mean: 1.7257e-17 max: 1.73472e-14
DILUPBiCGStab:  Solving for Ux, Initial residual = 1, Final residual = 0.0114353, No Iterations 5
DILUPBiCGStab:  Solving for Uy:  solution singularity
DILUPBiCGStab:  Solving for Uz:  solution singularity
linear solve U 20819
nonehipGKOCG:  Solving for p, Initial residual = 1, Final residual = 9.97121e-07, No Iterations 900
linear solve p 11439474
time step continuity errors : sum local = 5.95127e-10, global = -5.38085e-22, cumulative = -5.38085e-22
nonehipGKOCG:  Solving for p, Initial residual = 0.780017, Final residual = 6.7325e-07, No Iterations 901
linear solve p 6527269
time step continuity errors : sum local = 5.03751e-10, global = 4.88646e-21, cumulative = 4.34837e-21
ExecutionTime = 19.42 s  ClockTime = 19 s

Time = 0.002

Courant Number mean: 0.0551999 max: 0.808035
DILUPBiCGStab:  Solving for Ux, Initial residual = 0.137199, Final residual = 0.00615129, No Iterations 5
DILUPBiCGStab:  Solving for Uy, Initial residual = 0.431814, Final residual = 0.0174492, No Iterations 5
DILUPBiCGStab:  Solving for Uz, Initial residual = 0.94707, Final residual = 0.0361847, No Iterations 5
linear solve U 38503
nonehipGKOCG:  Solving for p, Initial residual = 0.819441, Final residual = 4.49848e-07, No Iterations 901
linear solve p 7247107
time step continuity errors : sum local = 5.10515e-10, global = 1.25858e-20, cumulative = 1.69341e-20
nonehipGKOCG:  Solving for p, Initial residual = 0.760071, Final residual = 3.81362e-07, No Iterations 901
linear solve p 5718708
time step continuity errors : sum local = 4.41669e-10, global = 4.6747e-21, cumulative = 2.16088e-20
ExecutionTime = 33.38 s  ClockTime = 32 s

Time = 0.003

Courant Number mean: 0.0840928 max: 0.944382
DILUPBiCGStab:  Solving for Ux, Initial residual = 0.0645217, Final residual = 0.00219687, No Iterations 5
DILUPBiCGStab:  Solving for Uy, Initial residual = 0.22648, Final residual = 0.00589811, No Iterations 5
DILUPBiCGStab:  Solving for Uz, Initial residual = 0.729982, Final residual = 0.0244414, No Iterations 5
linear solve U 37211
nonehipGKOCG:  Solving for p, Initial residual = 0.841829, Final residual = 4.3418e-07, No Iterations 901
linear solve p 7576232
time step continuity errors : sum local = 4.41805e-10, global = 8.36392e-22, cumulative = 2.24452e-20
nonehipGKOCG:  Solving for p, Initial residual = 0.808037, Final residual = 4.03269e-07, No Iterations 901
linear solve p 6946715
time step continuity errors : sum local = 4.00203e-10, global = 1.69797e-20, cumulative = 3.94249e-20
ExecutionTime = 48.88 s  ClockTime = 46 s

End

Finalising parallel run
================================================================================
hash: d3d067c0fefe34e378e0f30d9f703e7f
--------------------------------------------------------------------------
WARNING: No preset parameters were found for the device that Open MPI
detected:

  Local host:            nla-gpu2
  Device name:           mlx5_0
  Device vendor ID:      0x02c9
  Device vendor part ID: 4123

Default device parameters will be used, which may result in lower
performance.  You can edit any of the files specified by the
btl_openib_device_param_files MCA parameter to set values for your
device.

NOTE: You can turn off this warning by setting the MCA parameter
      btl_openib_warn_no_device_params_found to 0.
--------------------------------------------------------------------------
--------------------------------------------------------------------------
WARNING: There is at least non-excluded one OpenFabrics device found,
but there are no active ports detected (or Open MPI was unable to use
them).  This is most certainly not what you wanted.  Check your
cables, subnet manager configuration, etc.  The openib BTL will be
ignored for this job.

  Local host: nla-gpu2
--------------------------------------------------------------------------
/*---------------------------------------------------------------------------*\
  =========                 |
  \\      /  F ield         | OpenFOAM: The Open Source CFD Toolbox
   \\    /   O peration     | Website:  https://openfoam.org
    \\  /    A nd           | Version:  8
     \\/     M anipulation  |
\*---------------------------------------------------------------------------*/
Build  : 8-ef60d22ea792
Exec   : icoFoam -parallel
Date   : Dec 28 2021
Time   : 00:08:41
Host   : "nla-gpu2.ianm.kit.edu"
PID    : 3220398
I/O    : uncollated
Case   : /tmp/lidDrivenCavity3D/Variation_mesh/100/Variation_matrix_solver/BiCGStab_NoPrecond_HIP/Variation_mpiRank/2/1640646521
nProcs : 2
Slaves : 1("nla-gpu2.ianm.kit.edu.3220399")
Pstream initialized with:
    floatTransfer      : 0
    nProcsSimpleSum    : 0
    commsType          : nonBlocking
    polling iterations : 0
sigFpe : Enabling floating point exception trapping (FOAM_SIGFPE).
fileModificationChecking : Monitoring run-time modified files using timeStampMaster (fileModificationSkew 10)
allowSystemOperations : Allowing user-supplied system call operations

// * * * * * * * * * * * * * * * * * * * * * * * * * * * * * * * * * * * * * //
Create time

--> FOAM Warning : 
    From function virtual void Foam::Time::readDict()
    in file db/Time/TimeIO.C at line 408
    Reading "/tmp/lidDrivenCavity3D/Variation_mesh/100/Variation_matrix_solver/BiCGStab_NoPrecond_HIP/Variation_mpiRank/2/1640646521/system/controlDict" from line 20 to line 52
    Selecting compressed binary is inefficient and ineffective, resetting to uncompressed binary
Create mesh for time = 0

Reading transportProperties

Reading field p

Reading field U

Reading/calculating face flux field phi


Starting time loop

Time = 0.001

Courant Number mean: 1.7257e-17 max: 1.73472e-14
DILUPBiCGStab:  Solving for Ux, Initial residual = 1, Final residual = 0.00925439, No Iterations 5
DILUPBiCGStab:  Solving for Uy:  solution singularity
DILUPBiCGStab:  Solving for Uz:  solution singularity
linear solve U 217302
nonehipGKOBiCGStab:  Solving for p, Initial residual = 1, Final residual = 9.87258e-07, No Iterations 725
linear solve p 19915730
time step continuity errors : sum local = 0.000347769, global = -1.21295e-18, cumulative = -1.21295e-18
nonehipGKOBiCGStab:  Solving for p, Initial residual = 0.852868, Final residual = 2.26244e-07, No Iterations 740
linear solve p 1277957
time step continuity errors : sum local = 5.95332e-05, global = 1.65171e-19, cumulative = -1.04778e-18
ExecutionTime = 23.82 s  ClockTime = 22 s

Time = 0.002

Courant Number mean: 0.0556655 max: 0.807179
DILUPBiCGStab:  Solving for Ux, Initial residual = 0.139437, Final residual = 0.0044724, No Iterations 5
DILUPBiCGStab:  Solving for Uy, Initial residual = 0.433849, Final residual = 0.0112026, No Iterations 5
DILUPBiCGStab:  Solving for Uz, Initial residual = 0.868064, Final residual = 0.0286266, No Iterations 5
linear solve U 398119
nonehipGKOBiCGStab:  Solving for p, Initial residual = 0.860364, Final residual = 5.28194e-07, No Iterations 754
linear solve p 1292734
time step continuity errors : sum local = 2.9764e-09, global = 6.24966e-21, cumulative = -1.04153e-18
nonehipGKOBiCGStab:  Solving for p, Initial residual = 0.791624, Final residual = 5.66508e-07, No Iterations 750
linear solve p 1287247
time step continuity errors : sum local = 1.87732e-09, global = 2.95883e-21, cumulative = -1.03857e-18
ExecutionTime = 28.48 s  ClockTime = 25 s

Time = 0.003

Courant Number mean: 0.0851273 max: 0.948266
DILUPBiCGStab:  Solving for Ux, Initial residual = 0.0668962, Final residual = 0.00149667, No Iterations 5
DILUPBiCGStab:  Solving for Uy, Initial residual = 0.231728, Final residual = 0.00361897, No Iterations 5
DILUPBiCGStab:  Solving for Uz, Initial residual = 0.825656, Final residual = 0.0195579, No Iterations 5
linear solve U 400815
nonehipGKOBiCGStab:  Solving for p, Initial residual = 0.876112, Final residual = 8.13653e-07, No Iterations 795
linear solve p 1344995
time step continuity errors : sum local = 2.24199e-09, global = 4.28531e-21, cumulative = -1.03429e-18
nonehipGKOBiCGStab:  Solving for p, Initial residual = 0.82261, Final residual = 5.05398e-07, No Iterations 729
linear solve p 1255285
time step continuity errors : sum local = 4.39311e-07, global = -3.16314e-21, cumulative = -1.03745e-18
ExecutionTime = 33.17 s  ClockTime = 28 s

End

Finalising parallel run
================================================================================
hash: 765201d0081388f47980777d98ee9392
--------------------------------------------------------------------------
WARNING: No preset parameters were found for the device that Open MPI
detected:

  Local host:            nla-gpu2
  Device name:           mlx5_0
  Device vendor ID:      0x02c9
  Device vendor part ID: 4123

Default device parameters will be used, which may result in lower
performance.  You can edit any of the files specified by the
btl_openib_device_param_files MCA parameter to set values for your
device.

NOTE: You can turn off this warning by setting the MCA parameter
      btl_openib_warn_no_device_params_found to 0.
--------------------------------------------------------------------------
--------------------------------------------------------------------------
WARNING: There is at least non-excluded one OpenFabrics device found,
but there are no active ports detected (or Open MPI was unable to use
them).  This is most certainly not what you wanted.  Check your
cables, subnet manager configuration, etc.  The openib BTL will be
ignored for this job.

  Local host: nla-gpu2
--------------------------------------------------------------------------
/*---------------------------------------------------------------------------*\
  =========                 |
  \\      /  F ield         | OpenFOAM: The Open Source CFD Toolbox
   \\    /   O peration     | Website:  https://openfoam.org
    \\  /    A nd           | Version:  8
     \\/     M anipulation  |
\*---------------------------------------------------------------------------*/
Build  : 8-ef60d22ea792
Exec   : icoFoam -parallel
Date   : Dec 28 2021
Time   : 00:09:10
Host   : "nla-gpu2.ianm.kit.edu"
PID    : 3220739
I/O    : uncollated
Case   : /tmp/lidDrivenCavity3D/Variation_mesh/100/Variation_matrix_solver/BiCGStab_NoPrecond_HIP/Variation_mpiRank/4/1640646550
nProcs : 4
Slaves : 
3
(
"nla-gpu2.ianm.kit.edu.3220740"
"nla-gpu2.ianm.kit.edu.3220741"
"nla-gpu2.ianm.kit.edu.3220742"
)

Pstream initialized with:
    floatTransfer      : 0
    nProcsSimpleSum    : 0
    commsType          : nonBlocking
    polling iterations : 0
sigFpe : Enabling floating point exception trapping (FOAM_SIGFPE).
fileModificationChecking : Monitoring run-time modified files using timeStampMaster (fileModificationSkew 10)
allowSystemOperations : Allowing user-supplied system call operations

// * * * * * * * * * * * * * * * * * * * * * * * * * * * * * * * * * * * * * //
Create time

--> FOAM Warning : 
    From function virtual void Foam::Time::readDict()
    in file db/Time/TimeIO.C at line 408
    Reading "/tmp/lidDrivenCavity3D/Variation_mesh/100/Variation_matrix_solver/BiCGStab_NoPrecond_HIP/Variation_mpiRank/4/1640646550/system/controlDict" from line 20 to line 52
    Selecting compressed binary is inefficient and ineffective, resetting to uncompressed binary
Create mesh for time = 0

Reading transportProperties

Reading field p

Reading field U

Reading/calculating face flux field phi


Starting time loop

Time = 0.001

Courant Number mean: 1.7257e-17 max: 1.73472e-14
DILUPBiCGStab:  Solving for Ux, Initial residual = 1, Final residual = 0.00880699, No Iterations 5
DILUPBiCGStab:  Solving for Uy:  solution singularity
DILUPBiCGStab:  Solving for Uz:  solution singularity
linear solve U 115299
nonehipGKOBiCGStab:  Solving for p, Initial residual = 1, Final residual = 9.96025e-07, No Iterations 664
linear solve p 10775263
time step continuity errors : sum local = 3.26514e-05, global = -2.38863e-19, cumulative = -2.38863e-19
nonehipGKOBiCGStab:  Solving for p, Initial residual = 0.787345, Final residual = 2.34429e-07, No Iterations 806
linear solve p 1223120
time step continuity errors : sum local = 2.08757e-10, global = -6.68515e-21, cumulative = -2.45548e-19
ExecutionTime = 14.21 s  ClockTime = 12 s

Time = 0.002

Courant Number mean: 0.0557184 max: 0.806963
DILUPBiCGStab:  Solving for Ux, Initial residual = 0.13795, Final residual = 0.00431432, No Iterations 5
DILUPBiCGStab:  Solving for Uy, Initial residual = 0.432094, Final residual = 0.01178, No Iterations 5
DILUPBiCGStab:  Solving for Uz, Initial residual = 0.974441, Final residual = 0.030278, No Iterations 5
linear solve U 203390
nonehipGKOBiCGStab:  Solving for p, Initial residual = 0.815531, Final residual = 1.47606e-07, No Iterations 704
linear solve p 1093483
time step continuity errors : sum local = 3.16113e-10, global = 1.2611e-20, cumulative = -2.32937e-19
nonehipGKOBiCGStab:  Solving for p, Initial residual = 0.752251, Final residual = 6.67677e-07, No Iterations 658
linear solve p 1034583
time step continuity errors : sum local = 1.11145e-09, global = -2.88169e-21, cumulative = -2.35819e-19
ExecutionTime = 17.97 s  ClockTime = 15 s

Time = 0.003

Courant Number mean: 0.0848615 max: 0.94358
DILUPBiCGStab:  Solving for Ux, Initial residual = 0.0649154, Final residual = 0.00149763, No Iterations 5
DILUPBiCGStab:  Solving for Uy, Initial residual = 0.227487, Final residual = 0.00368265, No Iterations 5
DILUPBiCGStab:  Solving for Uz, Initial residual = 0.790216, Final residual = 0.019676, No Iterations 5
linear solve U 203801
nonehipGKOBiCGStab:  Solving for p, Initial residual = 0.841816, Final residual = 9.92655e-07, No Iterations 676
linear solve p 1057192
time step continuity errors : sum local = 2.03201e-09, global = -1.04918e-21, cumulative = -2.36868e-19
nonehipGKOBiCGStab:  Solving for p, Initial residual = 0.80709, Final residual = 7.16746e-07, No Iterations 716
linear solve p 1108452
time step continuity errors : sum local = 6.85441e-06, global = 2.73168e-20, cumulative = -2.09551e-19
ExecutionTime = 21.8 s  ClockTime = 17 s

End

Finalising parallel run
================================================================================
hash: 6e80b8442504dc1fe5a3815b232d352b
--------------------------------------------------------------------------
WARNING: No preset parameters were found for the device that Open MPI
detected:

  Local host:            nla-gpu2
  Device name:           mlx5_0
  Device vendor ID:      0x02c9
  Device vendor part ID: 4123

Default device parameters will be used, which may result in lower
performance.  You can edit any of the files specified by the
btl_openib_device_param_files MCA parameter to set values for your
device.

NOTE: You can turn off this warning by setting the MCA parameter
      btl_openib_warn_no_device_params_found to 0.
--------------------------------------------------------------------------
--------------------------------------------------------------------------
WARNING: There is at least non-excluded one OpenFabrics device found,
but there are no active ports detected (or Open MPI was unable to use
them).  This is most certainly not what you wanted.  Check your
cables, subnet manager configuration, etc.  The openib BTL will be
ignored for this job.

  Local host: nla-gpu2
--------------------------------------------------------------------------
/*---------------------------------------------------------------------------*\
  =========                 |
  \\      /  F ield         | OpenFOAM: The Open Source CFD Toolbox
   \\    /   O peration     | Website:  https://openfoam.org
    \\  /    A nd           | Version:  8
     \\/     M anipulation  |
\*---------------------------------------------------------------------------*/
Build  : 8-ef60d22ea792
Exec   : icoFoam -parallel
Date   : Dec 28 2021
Time   : 00:09:28
Host   : "nla-gpu2.ianm.kit.edu"
PID    : 3220945
I/O    : uncollated
Case   : /tmp/lidDrivenCavity3D/Variation_mesh/100/Variation_matrix_solver/BiCGStab_NoPrecond_HIP/Variation_mpiRank/8/1640646568
nProcs : 8
Slaves : 
7
(
"nla-gpu2.ianm.kit.edu.3220946"
"nla-gpu2.ianm.kit.edu.3220947"
"nla-gpu2.ianm.kit.edu.3220948"
"nla-gpu2.ianm.kit.edu.3220949"
"nla-gpu2.ianm.kit.edu.3220950"
"nla-gpu2.ianm.kit.edu.3220951"
"nla-gpu2.ianm.kit.edu.3220952"
)

Pstream initialized with:
    floatTransfer      : 0
    nProcsSimpleSum    : 0
    commsType          : nonBlocking
    polling iterations : 0
sigFpe : Enabling floating point exception trapping (FOAM_SIGFPE).
fileModificationChecking : Monitoring run-time modified files using timeStampMaster (fileModificationSkew 10)
allowSystemOperations : Allowing user-supplied system call operations

// * * * * * * * * * * * * * * * * * * * * * * * * * * * * * * * * * * * * * //
Create time

--> FOAM Warning : 
    From function virtual void Foam::Time::readDict()
    in file db/Time/TimeIO.C at line 408
    Reading "/tmp/lidDrivenCavity3D/Variation_mesh/100/Variation_matrix_solver/BiCGStab_NoPrecond_HIP/Variation_mpiRank/8/1640646568/system/controlDict" from line 20 to line 52
    Selecting compressed binary is inefficient and ineffective, resetting to uncompressed binary
Create mesh for time = 0

Reading transportProperties

Reading field p

Reading field U

Reading/calculating face flux field phi


Starting time loop

Time = 0.001

Courant Number mean: 1.7257e-17 max: 1.73472e-14
DILUPBiCGStab:  Solving for Ux, Initial residual = 1, Final residual = 0.00976191, No Iterations 5
DILUPBiCGStab:  Solving for Uy:  solution singularity
DILUPBiCGStab:  Solving for Uz:  solution singularity
linear solve U 58969
nonehipGKOBiCGStab:  Solving for p, Initial residual = 1, Final residual = 9.71955e-08, No Iterations 702
linear solve p 5735228
time step continuity errors : sum local = 7.11466e-05, global = 9.99499e-20, cumulative = 9.99499e-20
nonehipGKOBiCGStab:  Solving for p, Initial residual = 0.799988, Final residual = 5.04343e-07, No Iterations 728
linear solve p 1031658
time step continuity errors : sum local = 8.24731e-10, global = 1.28093e-20, cumulative = 1.12759e-19
ExecutionTime = 8.75 s  ClockTime = 7 s

Time = 0.002

Courant Number mean: 0.055523 max: 0.807219
DILUPBiCGStab:  Solving for Ux, Initial residual = 0.138016, Final residual = 0.00485219, No Iterations 5
DILUPBiCGStab:  Solving for Uy, Initial residual = 0.431115, Final residual = 0.0126791, No Iterations 5
DILUPBiCGStab:  Solving for Uz, Initial residual = 0.949428, Final residual = 0.0314611, No Iterations 5
linear solve U 102126
nonehipGKOBiCGStab:  Solving for p, Initial residual = 0.835546, Final residual = 6.75453e-07, No Iterations 725
linear solve p 1026281
time step continuity errors : sum local = 1.69978e-09, global = -5.06995e-21, cumulative = 1.07689e-19
nonehipGKOBiCGStab:  Solving for p, Initial residual = 0.770278, Final residual = 8.81867e-07, No Iterations 725
linear solve p 1023631
time step continuity errors : sum local = 2.24487e-09, global = -1.99816e-21, cumulative = 1.05691e-19
ExecutionTime = 12.33 s  ClockTime = 9 s

Time = 0.003

Courant Number mean: 0.0846043 max: 0.943661
DILUPBiCGStab:  Solving for Ux, Initial residual = 0.0650532, Final residual = 0.00167786, No Iterations 5
DILUPBiCGStab:  Solving for Uy, Initial residual = 0.227921, Final residual = 0.00450277, No Iterations 5
DILUPBiCGStab:  Solving for Uz, Initial residual = 0.783218, Final residual = 0.019649, No Iterations 5
linear solve U 115013
nonehipGKOBiCGStab:  Solving for p, Initial residual = 0.852878, Final residual = 5.92467e-07, No Iterations 769
linear solve p 1085986
time step continuity errors : sum local = 6.8681e-08, global = 3.46382e-21, cumulative = 1.09155e-19
nonehipGKOBiCGStab:  Solving for p, Initial residual = 0.813201, Final residual = 5.6249e-07, No Iterations 780
linear solve p 1094261
time step continuity errors : sum local = 1.21541e-09, global = 6.12046e-21, cumulative = 1.15275e-19
ExecutionTime = 16.18 s  ClockTime = 12 s

End

Finalising parallel run
================================================================================
hash: 83b424baebf6f71c72607dafd78c2644
--------------------------------------------------------------------------
WARNING: No preset parameters were found for the device that Open MPI
detected:

  Local host:            nla-gpu2
  Device name:           mlx5_0
  Device vendor ID:      0x02c9
  Device vendor part ID: 4123

Default device parameters will be used, which may result in lower
performance.  You can edit any of the files specified by the
btl_openib_device_param_files MCA parameter to set values for your
device.

NOTE: You can turn off this warning by setting the MCA parameter
      btl_openib_warn_no_device_params_found to 0.
--------------------------------------------------------------------------
--------------------------------------------------------------------------
WARNING: There is at least non-excluded one OpenFabrics device found,
but there are no active ports detected (or Open MPI was unable to use
them).  This is most certainly not what you wanted.  Check your
cables, subnet manager configuration, etc.  The openib BTL will be
ignored for this job.

  Local host: nla-gpu2
--------------------------------------------------------------------------
/*---------------------------------------------------------------------------*\
  =========                 |
  \\      /  F ield         | OpenFOAM: The Open Source CFD Toolbox
   \\    /   O peration     | Website:  https://openfoam.org
    \\  /    A nd           | Version:  8
     \\/     M anipulation  |
\*---------------------------------------------------------------------------*/
Build  : 8-ef60d22ea792
Exec   : icoFoam -parallel
Date   : Dec 28 2021
Time   : 00:09:40
Host   : "nla-gpu2.ianm.kit.edu"
PID    : 3221057
I/O    : uncollated
Case   : /tmp/lidDrivenCavity3D/Variation_mesh/100/Variation_matrix_solver/BiCGStab_NoPrecond_HIP/Variation_mpiRank/16/1640646580
nProcs : 16
Slaves : 
15
(
"nla-gpu2.ianm.kit.edu.3221058"
"nla-gpu2.ianm.kit.edu.3221059"
"nla-gpu2.ianm.kit.edu.3221060"
"nla-gpu2.ianm.kit.edu.3221061"
"nla-gpu2.ianm.kit.edu.3221062"
"nla-gpu2.ianm.kit.edu.3221063"
"nla-gpu2.ianm.kit.edu.3221064"
"nla-gpu2.ianm.kit.edu.3221065"
"nla-gpu2.ianm.kit.edu.3221066"
"nla-gpu2.ianm.kit.edu.3221067"
"nla-gpu2.ianm.kit.edu.3221068"
"nla-gpu2.ianm.kit.edu.3221069"
"nla-gpu2.ianm.kit.edu.3221070"
"nla-gpu2.ianm.kit.edu.3221071"
"nla-gpu2.ianm.kit.edu.3221072"
)

Pstream initialized with:
    floatTransfer      : 0
    nProcsSimpleSum    : 0
    commsType          : nonBlocking
    polling iterations : 0
sigFpe : Enabling floating point exception trapping (FOAM_SIGFPE).
fileModificationChecking : Monitoring run-time modified files using timeStampMaster (fileModificationSkew 10)
allowSystemOperations : Allowing user-supplied system call operations

// * * * * * * * * * * * * * * * * * * * * * * * * * * * * * * * * * * * * * //
Create time

--> FOAM Warning : 
    From function virtual void Foam::Time::readDict()
    in file db/Time/TimeIO.C at line 408
    Reading "/tmp/lidDrivenCavity3D/Variation_mesh/100/Variation_matrix_solver/BiCGStab_NoPrecond_HIP/Variation_mpiRank/16/1640646580/system/controlDict" from line 20 to line 52
    Selecting compressed binary is inefficient and ineffective, resetting to uncompressed binary
Create mesh for time = 0

Reading transportProperties

Reading field p

Reading field U

Reading/calculating face flux field phi


Starting time loop

Time = 0.001

Courant Number mean: 1.7257e-17 max: 1.73472e-14
DILUPBiCGStab:  Solving for Ux, Initial residual = 1, Final residual = 0.0106366, No Iterations 5
DILUPBiCGStab:  Solving for Uy:  solution singularity
DILUPBiCGStab:  Solving for Uz:  solution singularity
linear solve U 32342
nonehipGKOBiCGStab:  Solving for p, Initial residual = 1, Final residual = 8.69014e-07, No Iterations 634
linear solve p 5377774
time step continuity errors : sum local = 1.20823e-06, global = 3.89106e-21, cumulative = 3.89106e-21
nonehipGKOBiCGStab:  Solving for p, Initial residual = 0.779434, Final residual = 5.87483e-07, No Iterations 613
linear solve p 1481248
time step continuity errors : sum local = 1.17292e-06, global = -5.02926e-21, cumulative = -1.1382e-21
ExecutionTime = 8.54 s  ClockTime = 7 s

Time = 0.002

Courant Number mean: 0.0553685 max: 0.807363
DILUPBiCGStab:  Solving for Ux, Initial residual = 0.137305, Final residual = 0.00539671, No Iterations 5
DILUPBiCGStab:  Solving for Uy, Initial residual = 0.431473, Final residual = 0.0150303, No Iterations 5
DILUPBiCGStab:  Solving for Uz, Initial residual = 0.963084, Final residual = 0.0322357, No Iterations 5
linear solve U 54597
nonehipGKOBiCGStab:  Solving for p, Initial residual = 0.814159, Final residual = 3.7772e-07, No Iterations 744
linear solve p 2333745
time step continuity errors : sum local = 5.46108e-10, global = 1.14252e-20, cumulative = 1.0287e-20
nonehipGKOBiCGStab:  Solving for p, Initial residual = 0.755043, Final residual = 3.77237e-07, No Iterations 682
linear solve p 1759220
time step continuity errors : sum local = 1.28914e-09, global = -4.61313e-21, cumulative = 5.67382e-21
ExecutionTime = 14.04 s  ClockTime = 12 s

Time = 0.003

Courant Number mean: 0.0843664 max: 0.943996
DILUPBiCGStab:  Solving for Ux, Initial residual = 0.0645917, Final residual = 0.00195214, No Iterations 5
DILUPBiCGStab:  Solving for Uy, Initial residual = 0.226253, Final residual = 0.00500649, No Iterations 5
DILUPBiCGStab:  Solving for Uz, Initial residual = 0.748673, Final residual = 0.0217104, No Iterations 5
linear solve U 51637
nonehipGKOBiCGStab:  Solving for p, Initial residual = 0.840167, Final residual = 3.12735e-07, No Iterations 648
linear solve p 2348312
time step continuity errors : sum local = 6.28868e-10, global = -2.47722e-21, cumulative = 3.19659e-21
nonehipGKOBiCGStab:  Solving for p, Initial residual = 0.806591, Final residual = 4.61279e-07, No Iterations 638
linear solve p 2256449
time step continuity errors : sum local = 3.39418e-06, global = 5.0822e-21, cumulative = 8.27879e-21
ExecutionTime = 19.92 s  ClockTime = 16 s

End

Finalising parallel run
================================================================================
hash: eb1086bcb9722f346ad2598881e09ec3
--------------------------------------------------------------------------
WARNING: No preset parameters were found for the device that Open MPI
detected:

  Local host:            nla-gpu2
  Device name:           mlx5_0
  Device vendor ID:      0x02c9
  Device vendor part ID: 4123

Default device parameters will be used, which may result in lower
performance.  You can edit any of the files specified by the
btl_openib_device_param_files MCA parameter to set values for your
device.

NOTE: You can turn off this warning by setting the MCA parameter
      btl_openib_warn_no_device_params_found to 0.
--------------------------------------------------------------------------
--------------------------------------------------------------------------
WARNING: There is at least non-excluded one OpenFabrics device found,
but there are no active ports detected (or Open MPI was unable to use
them).  This is most certainly not what you wanted.  Check your
cables, subnet manager configuration, etc.  The openib BTL will be
ignored for this job.

  Local host: nla-gpu2
--------------------------------------------------------------------------
/*---------------------------------------------------------------------------*\
  =========                 |
  \\      /  F ield         | OpenFOAM: The Open Source CFD Toolbox
   \\    /   O peration     | Website:  https://openfoam.org
    \\  /    A nd           | Version:  8
     \\/     M anipulation  |
\*---------------------------------------------------------------------------*/
Build  : 8-ef60d22ea792
Exec   : icoFoam -parallel
Date   : Dec 28 2021
Time   : 00:09:57
Host   : "nla-gpu2.ianm.kit.edu"
PID    : 3221331
I/O    : uncollated
Case   : /tmp/lidDrivenCavity3D/Variation_mesh/100/Variation_matrix_solver/BiCGStab_NoPrecond_HIP/Variation_mpiRank/32/1640646596
nProcs : 32
Slaves : 
31
(
"nla-gpu2.ianm.kit.edu.3221332"
"nla-gpu2.ianm.kit.edu.3221333"
"nla-gpu2.ianm.kit.edu.3221334"
"nla-gpu2.ianm.kit.edu.3221335"
"nla-gpu2.ianm.kit.edu.3221336"
"nla-gpu2.ianm.kit.edu.3221337"
"nla-gpu2.ianm.kit.edu.3221338"
"nla-gpu2.ianm.kit.edu.3221339"
"nla-gpu2.ianm.kit.edu.3221340"
"nla-gpu2.ianm.kit.edu.3221341"
"nla-gpu2.ianm.kit.edu.3221342"
"nla-gpu2.ianm.kit.edu.3221343"
"nla-gpu2.ianm.kit.edu.3221344"
"nla-gpu2.ianm.kit.edu.3221345"
"nla-gpu2.ianm.kit.edu.3221346"
"nla-gpu2.ianm.kit.edu.3221347"
"nla-gpu2.ianm.kit.edu.3221348"
"nla-gpu2.ianm.kit.edu.3221349"
"nla-gpu2.ianm.kit.edu.3221350"
"nla-gpu2.ianm.kit.edu.3221351"
"nla-gpu2.ianm.kit.edu.3221352"
"nla-gpu2.ianm.kit.edu.3221353"
"nla-gpu2.ianm.kit.edu.3221354"
"nla-gpu2.ianm.kit.edu.3221355"
"nla-gpu2.ianm.kit.edu.3221356"
"nla-gpu2.ianm.kit.edu.3221357"
"nla-gpu2.ianm.kit.edu.3221358"
"nla-gpu2.ianm.kit.edu.3221359"
"nla-gpu2.ianm.kit.edu.3221360"
"nla-gpu2.ianm.kit.edu.3221361"
"nla-gpu2.ianm.kit.edu.3221362"
)

Pstream initialized with:
    floatTransfer      : 0
    nProcsSimpleSum    : 0
    commsType          : nonBlocking
    polling iterations : 0
sigFpe : Enabling floating point exception trapping (FOAM_SIGFPE).
fileModificationChecking : Monitoring run-time modified files using timeStampMaster (fileModificationSkew 10)
allowSystemOperations : Allowing user-supplied system call operations

// * * * * * * * * * * * * * * * * * * * * * * * * * * * * * * * * * * * * * //
Create time

--> FOAM Warning : 
    From function virtual void Foam::Time::readDict()
    in file db/Time/TimeIO.C at line 408
    Reading "/tmp/lidDrivenCavity3D/Variation_mesh/100/Variation_matrix_solver/BiCGStab_NoPrecond_HIP/Variation_mpiRank/32/1640646596/system/controlDict" from line 20 to line 52
    Selecting compressed binary is inefficient and ineffective, resetting to uncompressed binary
Create mesh for time = 0

Reading transportProperties

Reading field p

Reading field U

Reading/calculating face flux field phi


Starting time loop

Time = 0.001

Courant Number mean: 1.7257e-17 max: 1.73472e-14
DILUPBiCGStab:  Solving for Ux, Initial residual = 1, Final residual = 0.0110863, No Iterations 5
DILUPBiCGStab:  Solving for Uy:  solution singularity
DILUPBiCGStab:  Solving for Uz:  solution singularity
linear solve U 16273
nonehipGKOBiCGStab:  Solving for p, Initial residual = 1, Final residual = 7.10095e-07, No Iterations 634
linear solve p 9053616
time step continuity errors : sum local = 5.71086e-05, global = 6.09864e-20, cumulative = 6.09864e-20
nonehipGKOBiCGStab:  Solving for p, Initial residual = 0.797143, Final residual = 6.95597e-07, No Iterations 700
linear solve p 4891636
time step continuity errors : sum local = 9.57807e-10, global = 2.23292e-21, cumulative = 6.32193e-20
ExecutionTime = 15.8 s  ClockTime = 14 s

Time = 0.002

Courant Number mean: 0.0552713 max: 0.806869
DILUPBiCGStab:  Solving for Ux, Initial residual = 0.137511, Final residual = 0.00585166, No Iterations 5
DILUPBiCGStab:  Solving for Uy, Initial residual = 0.431386, Final residual = 0.0166274, No Iterations 5
DILUPBiCGStab:  Solving for Uz, Initial residual = 0.941024, Final residual = 0.036347, No Iterations 5
linear solve U 28872
nonehipGKOBiCGStab:  Solving for p, Initial residual = 0.831522, Final residual = 4.18864e-07, No Iterations 672
linear solve p 4762403
time step continuity errors : sum local = 1.02943e-09, global = -4.72925e-21, cumulative = 5.849e-20
nonehipGKOBiCGStab:  Solving for p, Initial residual = 0.768536, Final residual = 8.98114e-07, No Iterations 676
linear solve p 5135867
time step continuity errors : sum local = 2.23703e-09, global = 1.17739e-21, cumulative = 5.96674e-20
ExecutionTime = 27.03 s  ClockTime = 24 s

Time = 0.003

Courant Number mean: 0.0842009 max: 0.944439
DILUPBiCGStab:  Solving for Ux, Initial residual = 0.0646477, Final residual = 0.00206488, No Iterations 5
DILUPBiCGStab:  Solving for Uy, Initial residual = 0.227148, Final residual = 0.00573375, No Iterations 5
DILUPBiCGStab:  Solving for Uz, Initial residual = 0.752532, Final residual = 0.0233467, No Iterations 5
linear solve U 28903
nonehipGKOBiCGStab:  Solving for p, Initial residual = 0.849274, Final residual = 6.93551e-07, No Iterations 675
linear solve p 5145725
time step continuity errors : sum local = 1.49117e-09, global = 2.62614e-21, cumulative = 6.22936e-20
nonehipGKOBiCGStab:  Solving for p, Initial residual = 0.811801, Final residual = 8.55616e-07, No Iterations 702
linear solve p 6000517
time step continuity errors : sum local = 1.79367e-09, global = 8.44929e-21, cumulative = 7.07429e-20
ExecutionTime = 39.51 s  ClockTime = 36 s

End

Finalising parallel run
================================================================================
hash: a36ab684f2549bee6d2d81a209616cb5
--------------------------------------------------------------------------
WARNING: No preset parameters were found for the device that Open MPI
detected:

  Local host:            nla-gpu2
  Device name:           mlx5_0
  Device vendor ID:      0x02c9
  Device vendor part ID: 4123

Default device parameters will be used, which may result in lower
performance.  You can edit any of the files specified by the
btl_openib_device_param_files MCA parameter to set values for your
device.

NOTE: You can turn off this warning by setting the MCA parameter
      btl_openib_warn_no_device_params_found to 0.
--------------------------------------------------------------------------
--------------------------------------------------------------------------
WARNING: There is at least non-excluded one OpenFabrics device found,
but there are no active ports detected (or Open MPI was unable to use
them).  This is most certainly not what you wanted.  Check your
cables, subnet manager configuration, etc.  The openib BTL will be
ignored for this job.

  Local host: nla-gpu2
--------------------------------------------------------------------------
/*---------------------------------------------------------------------------*\
  =========                 |
  \\      /  F ield         | OpenFOAM: The Open Source CFD Toolbox
   \\    /   O peration     | Website:  https://openfoam.org
    \\  /    A nd           | Version:  8
     \\/     M anipulation  |
\*---------------------------------------------------------------------------*/
Build  : 8-ef60d22ea792
Exec   : icoFoam -parallel
Date   : Dec 28 2021
Time   : 00:10:34
Host   : "nla-gpu2.ianm.kit.edu"
[...]
ExecutionTime = 1195.66 s  ClockTime = 1178 s

End

Finalising parallel run
================================================================================
hash: 586d8ace7b2600fb6b295ce53f260d98
--------------------------------------------------------------------------
WARNING: No preset parameters were found for the device that Open MPI
detected:

  Local host:            nla-gpu2
  Device name:           mlx5_0
  Device vendor ID:      0x02c9
  Device vendor part ID: 4123

Default device parameters will be used, which may result in lower
performance.  You can edit any of the files specified by the
btl_openib_device_param_files MCA parameter to set values for your
device.

NOTE: You can turn off this warning by setting the MCA parameter
      btl_openib_warn_no_device_params_found to 0.
--------------------------------------------------------------------------
--------------------------------------------------------------------------
WARNING: There is at least non-excluded one OpenFabrics device found,
but there are no active ports detected (or Open MPI was unable to use
them).  This is most certainly not what you wanted.  Check your
cables, subnet manager configuration, etc.  The openib BTL will be
ignored for this job.

  Local host: nla-gpu2
--------------------------------------------------------------------------
/*---------------------------------------------------------------------------*\
  =========                 |
  \\      /  F ield         | OpenFOAM: The Open Source CFD Toolbox
   \\    /   O peration     | Website:  https://openfoam.org
    \\  /    A nd           | Version:  8
     \\/     M anipulation  |
\*---------------------------------------------------------------------------*/
Build  : 8-ef60d22ea792
Exec   : icoFoam -parallel
Date   : Dec 28 2021
Time   : 05:54:55
Host   : "nla-gpu2.ianm.kit.edu"
PID    : 3413335
I/O    : uncollated
Case   : /tmp/lidDrivenCavity3D/Variation_mesh/300/Variation_matrix_solver/BiCGStab_NoPrecond_HIP/Variation_mpiRank/16/1640667294
nProcs : 16
Slaves : 
15
(
"nla-gpu2.ianm.kit.edu.3413336"
"nla-gpu2.ianm.kit.edu.3413337"
"nla-gpu2.ianm.kit.edu.3413338"
"nla-gpu2.ianm.kit.edu.3413339"
"nla-gpu2.ianm.kit.edu.3413340"
"nla-gpu2.ianm.kit.edu.3413341"
"nla-gpu2.ianm.kit.edu.3413342"
"nla-gpu2.ianm.kit.edu.3413343"
"nla-gpu2.ianm.kit.edu.3413344"
"nla-gpu2.ianm.kit.edu.3413345"
"nla-gpu2.ianm.kit.edu.3413346"
"nla-gpu2.ianm.kit.edu.3413347"
"nla-gpu2.ianm.kit.edu.3413348"
"nla-gpu2.ianm.kit.edu.3413349"
"nla-gpu2.ianm.kit.edu.3413350"
)

Pstream initialized with:
    floatTransfer      : 0
    nProcsSimpleSum    : 0
    commsType          : nonBlocking
    polling iterations : 0
sigFpe : Enabling floating point exception trapping (FOAM_SIGFPE).
fileModificationChecking : Monitoring run-time modified files using timeStampMaster (fileModificationSkew 10)
allowSystemOperations : Allowing user-supplied system call operations

// * * * * * * * * * * * * * * * * * * * * * * * * * * * * * * * * * * * * * //
Create time

--> FOAM Warning : 
    From function virtual void Foam::Time::readDict()
    in file db/Time/TimeIO.C at line 408
    Reading "/tmp/lidDrivenCavity3D/Variation_mesh/300/Variation_matrix_solver/BiCGStab_NoPrecond_HIP/Variation_mpiRank/16/1640667294/system/controlDict" from line 20 to line 52
    Selecting compressed binary is inefficient and ineffective, resetting to uncompressed binary
Create mesh for time = 0

Reading transportProperties

Reading field p

Reading field U

Reading/calculating face flux field phi


Starting time loop

Time = 0.000333333

Courant Number mean: 1.63465e-17 max: 6.245e-14
DILUPBiCGStab:  Solving for Ux, Initial residual = 1, Final residual = 0.028622, No Iterations 5
DILUPBiCGStab:  Solving for Uy:  solution singularity
DILUPBiCGStab:  Solving for Uz:  solution singularity
linear solve U 891945
nonehipGKOBiCGStab:  Solving for p, Initial residual = 1, Final residual = 8.76671e-07, No Iterations 2251
linear solve p 542070735
time step continuity errors : sum local = 1.58855e-10, global = 2.13124e-21, cumulative = 2.13124e-21
nonehipGKOBiCGStab:  Solving for p, Initial residual = 0.828951, Final residual = 6.19019e-07, No Iterations 3150
linear solve p 105584633
time step continuity errors : sum local = 1.40237e-10, global = 6.13535e-22, cumulative = 2.74477e-21
ExecutionTime = 657.4 s  ClockTime = 651 s

Time = 0.000666667

Courant Number mean: 0.0305375 max: 0.890761
DILUPBiCGStab:  Solving for Ux, Initial residual = 0.106033, Final residual = 0.0189223, No Iterations 5
DILUPBiCGStab:  Solving for Uy, Initial residual = 0.546348, Final residual = 0.0918487, No Iterations 5
DILUPBiCGStab:  Solving for Uz, Initial residual = 0.9605, Final residual = 0.178607, No Iterations 5
linear solve U 1741073
nonehipGKOBiCGStab:  Solving for p, Initial residual = 0.928872, Final residual = 2.60457e-07, No Iterations 3654
linear solve p 121540133
time step continuity errors : sum local = 1.71487e-10, global = -3.05971e-23, cumulative = 2.71418e-21
nonehipGKOBiCGStab:  Solving for p, Initial residual = 0.881781, Final residual = 1.75101e-07, No Iterations 3431
linear solve p 112733112
time step continuity errors : sum local = 1.17627e-10, global = -1.29639e-21, cumulative = 1.41778e-21
ExecutionTime = 902.44 s  ClockTime = 888 s

Time = 0.001

Courant Number mean: 0.0487235 max: 1.07378
DILUPBiCGStab:  Solving for Ux, Initial residual = 0.0664199, Final residual = 0.00911835, No Iterations 5
DILUPBiCGStab:  Solving for Uy, Initial residual = 0.416997, Final residual = 0.0417234, No Iterations 5
DILUPBiCGStab:  Solving for Uz, Initial residual = 0.834756, Final residual = 0.120928, No Iterations 5
linear solve U 1728476
nonehipGKOBiCGStab:  Solving for p, Initial residual = 0.96146, Final residual = 8.77624e-07, No Iterations 2740
linear solve p 91153348
time step continuity errors : sum local = 8.69263e-10, global = 7.65177e-22, cumulative = 2.18296e-21
nonehipGKOBiCGStab:  Solving for p, Initial residual = 0.925913, Final residual = 9.12034e-07, No Iterations 1363
linear solve p 47323147
time step continuity errors : sum local = 1.96988e-09, global = 9.20282e-22, cumulative = 3.10324e-21
ExecutionTime = 1048.53 s  ClockTime = 1030 s

End

Finalising parallel run
================================================================================
hash: da4164d5fa2d58d0cf741721d62000e7
--------------------------------------------------------------------------
WARNING: No preset parameters were found for the device that Open MPI
detected:

  Local host:            nla-gpu2
  Device name:           mlx5_0
  Device vendor ID:      0x02c9
  Device vendor part ID: 4123

Default device parameters will be used, which may result in lower
performance.  You can edit any of the files specified by the
btl_openib_device_param_files MCA parameter to set values for your
device.

NOTE: You can turn off this warning by setting the MCA parameter
      btl_openib_warn_no_device_params_found to 0.
--------------------------------------------------------------------------
--------------------------------------------------------------------------
WARNING: There is at least non-excluded one OpenFabrics device found,
but there are no active ports detected (or Open MPI was unable to use
them).  This is most certainly not what you wanted.  Check your
cables, subnet manager configuration, etc.  The openib BTL will be
ignored for this job.

  Local host: nla-gpu2
--------------------------------------------------------------------------
/*---------------------------------------------------------------------------*\
  =========                 |
  \\      /  F ield         | OpenFOAM: The Open Source CFD Toolbox
   \\    /   O peration     | Website:  https://openfoam.org
    \\  /    A nd           | Version:  8
     \\/     M anipulation  |
\*---------------------------------------------------------------------------*/
Build  : 8-ef60d22ea792
Exec   : icoFoam -parallel
Date   : Dec 28 2021
Time   : 06:12:06
Host   : "nla-gpu2.ianm.kit.edu"
PID    : 3422832
I/O    : uncollated
Case   : /tmp/lidDrivenCavity3D/Variation_mesh/300/Variation_matrix_solver/BiCGStab_NoPrecond_HIP/Variation_mpiRank/32/1640668325
nProcs : 32
Slaves : 
31
(
"nla-gpu2.ianm.kit.edu.3422833"
"nla-gpu2.ianm.kit.edu.3422834"
"nla-gpu2.ianm.kit.edu.3422835"
"nla-gpu2.ianm.kit.edu.3422836"
"nla-gpu2.ianm.kit.edu.3422837"
"nla-gpu2.ianm.kit.edu.3422838"
"nla-gpu2.ianm.kit.edu.3422839"
"nla-gpu2.ianm.kit.edu.3422840"
"nla-gpu2.ianm.kit.edu.3422841"
"nla-gpu2.ianm.kit.edu.3422842"
"nla-gpu2.ianm.kit.edu.3422843"
"nla-gpu2.ianm.kit.edu.3422844"
"nla-gpu2.ianm.kit.edu.3422845"
"nla-gpu2.ianm.kit.edu.3422846"
"nla-gpu2.ianm.kit.edu.3422847"
"nla-gpu2.ianm.kit.edu.3422848"
"nla-gpu2.ianm.kit.edu.3422849"
"nla-gpu2.ianm.kit.edu.3422850"
"nla-gpu2.ianm.kit.edu.3422851"
"nla-gpu2.ianm.kit.edu.3422852"
"nla-gpu2.ianm.kit.edu.3422853"
"nla-gpu2.ianm.kit.edu.3422854"
"nla-gpu2.ianm.kit.edu.3422855"
"nla-gpu2.ianm.kit.edu.3422856"
"nla-gpu2.ianm.kit.edu.3422857"
"nla-gpu2.ianm.kit.edu.3422858"
"nla-gpu2.ianm.kit.edu.3422859"
"nla-gpu2.ianm.kit.edu.3422860"
"nla-gpu2.ianm.kit.edu.3422861"
"nla-gpu2.ianm.kit.edu.3422862"
"nla-gpu2.ianm.kit.edu.3422863"
)

Pstream initialized with:
    floatTransfer      : 0
    nProcsSimpleSum    : 0
    commsType          : nonBlocking
    polling iterations : 0
sigFpe : Enabling floating point exception trapping (FOAM_SIGFPE).
fileModificationChecking : Monitoring run-time modified files using timeStampMaster (fileModificationSkew 10)
allowSystemOperations : Allowing user-supplied system call operations

// * * * * * * * * * * * * * * * * * * * * * * * * * * * * * * * * * * * * * //
Create time

--> FOAM Warning : 
    From function virtual void Foam::Time::readDict()
    in file db/Time/TimeIO.C at line 408
    Reading "/tmp/lidDrivenCavity3D/Variation_mesh/300/Variation_matrix_solver/BiCGStab_NoPrecond_HIP/Variation_mpiRank/32/1640668325/system/controlDict" from line 20 to line 52
    Selecting compressed binary is inefficient and ineffective, resetting to uncompressed binary
Create mesh for time = 0

Reading transportProperties

Reading field p

Reading field U

Reading/calculating face flux field phi


Starting time loop

Time = 0.000333333

Courant Number mean: 1.63465e-17 max: 6.245e-14
DILUPBiCGStab:  Solving for Ux, Initial residual = 1, Final residual = 0.0298813, No Iterations 5
DILUPBiCGStab:  Solving for Uy:  solution singularity
DILUPBiCGStab:  Solving for Uz:  solution singularity
linear solve U 764525
nonehipGKOBiCGStab:  Solving for p, Initial residual = 1, Final residual = 9.79037e-07, No Iterations 2362
linear solve p 428853335
time step continuity errors : sum local = 4.89929e-05, global = -1.32984e-19, cumulative = -1.32984e-19
nonehipGKOBiCGStab:  Solving for p, Initial residual = 0.883554, Final residual = 8.11604e-07, No Iterations 2303
linear solve p 220474304
time step continuity errors : sum local = 2.75078e-10, global = 8.92649e-22, cumulative = -1.32092e-19
ExecutionTime = 656.93 s  ClockTime = 652 s

Time = 0.000666667

Courant Number mean: 0.0302595 max: 0.889595
DILUPBiCGStab:  Solving for Ux, Initial residual = 0.106688, Final residual = 0.0199329, No Iterations 5
DILUPBiCGStab:  Solving for Uy, Initial residual = 0.550904, Final residual = 0.099463, No Iterations 5
DILUPBiCGStab:  Solving for Uz, Initial residual = 0.883894, Final residual = 0.182493, No Iterations 5
linear solve U 1553719
nonehipGKOBiCGStab:  Solving for p, Initial residual = 0.948399, Final residual = 2.63083e-07, No Iterations 3082
linear solve p 314450851
time step continuity errors : sum local = 1.82643e-10, global = 1.59895e-21, cumulative = -1.30493e-19
nonehipGKOBiCGStab:  Solving for p, Initial residual = 0.897821, Final residual = 3.0302e-07, No Iterations 2153
linear solve p 222309090
time step continuity errors : sum local = 3.43545e-06, global = -6.70568e-21, cumulative = -1.37198e-19
ExecutionTime = 1200.7 s  ClockTime = 1192 s

Time = 0.001

Courant Number mean: 0.0482771 max: 1.07268
DILUPBiCGStab:  Solving for Ux, Initial residual = 0.0663213, Final residual = 0.00976588, No Iterations 5
DILUPBiCGStab:  Solving for Uy, Initial residual = 0.421681, Final residual = 0.0454345, No Iterations 5
DILUPBiCGStab:  Solving for Uz, Initial residual = 0.840271, Final residual = 0.119303, No Iterations 5
linear solve U 1554237
nonehipGKOBiCGStab:  Solving for p, Initial residual = 0.962061, Final residual = 6.04065e-07, No Iterations 2451
linear solve p 250196229
time step continuity errors : sum local = 7.90768e-10, global = -1.18183e-21, cumulative = -1.3838e-19
nonehipGKOBiCGStab:  Solving for p, Initial residual = 0.923177, Final residual = 5.9814e-07, No Iterations 2205
linear solve p 223440327
time step continuity errors : sum local = 7.22104e-10, global = -1.58302e-22, cumulative = -1.38538e-19
ExecutionTime = 1680.86 s  ClockTime = 1668 s

End

Finalising parallel run
================================================================================
hash: 03c123187b0a352e18f5541dbb4effcb
--------------------------------------------------------------------------
WARNING: No preset parameters were found for the device that Open MPI
detected:

  Local host:            nla-gpu2
  Device name:           mlx5_0
  Device vendor ID:      0x02c9
  Device vendor part ID: 4123

Default device parameters will be used, which may result in lower
performance.  You can edit any of the files specified by the
btl_openib_device_param_files MCA parameter to set values for your
device.

NOTE: You can turn off this warning by setting the MCA parameter
      btl_openib_warn_no_device_params_found to 0.
--------------------------------------------------------------------------
--------------------------------------------------------------------------
WARNING: There is at least non-excluded one OpenFabrics device found,
but there are no active ports detected (or Open MPI was unable to use
them).  This is most certainly not what you wanted.  Check your
cables, subnet manager configuration, etc.  The openib BTL will be
ignored for this job.

  Local host: nla-gpu2
--------------------------------------------------------------------------
/*---------------------------------------------------------------------------*\
  =========                 |
  \\      /  F ield         | OpenFOAM: The Open Source CFD Toolbox
   \\    /   O peration     | Website:  https://openfoam.org
    \\  /    A nd           | Version:  8
     \\/     M anipulation  |
\*---------------------------------------------------------------------------*/
Build  : 8-ef60d22ea792
Exec   : icoFoam -parallel
Date   : Dec 28 2021
Time   : 06:39:55
Host   : "nla-gpu2.ianm.kit.edu"
PID    : 3438268
I/O    : uncollated
Case   : /tmp/lidDrivenCavity3D/Variation_mesh/300/Variation_matrix_solver/BiCGStab_NoPrecond_HIP/Variation_mpiRank/40/1640669994
nProcs : 40
Slaves : 
39
(
"nla-gpu2.ianm.kit.edu.3438269"
"nla-gpu2.ianm.kit.edu.3438270"
"nla-gpu2.ianm.kit.edu.3438271"
"nla-gpu2.ianm.kit.edu.3438272"
"nla-gpu2.ianm.kit.edu.3438273"
"nla-gpu2.ianm.kit.edu.3438274"
"nla-gpu2.ianm.kit.edu.3438275"
"nla-gpu2.ianm.kit.edu.3438276"
"nla-gpu2.ianm.kit.edu.3438277"
"nla-gpu2.ianm.kit.edu.3438278"
"nla-gpu2.ianm.kit.edu.3438279"
"nla-gpu2.ianm.kit.edu.3438280"
"nla-gpu2.ianm.kit.edu.3438281"
"nla-gpu2.ianm.kit.edu.3438282"
"nla-gpu2.ianm.kit.edu.3438283"
"nla-gpu2.ianm.kit.edu.3438284"
"nla-gpu2.ianm.kit.edu.3438285"
"nla-gpu2.ianm.kit.edu.3438286"
"nla-gpu2.ianm.kit.edu.3438287"
"nla-gpu2.ianm.kit.edu.3438288"
"nla-gpu2.ianm.kit.edu.3438289"
"nla-gpu2.ianm.kit.edu.3438290"
"nla-gpu2.ianm.kit.edu.3438291"
"nla-gpu2.ianm.kit.edu.3438292"
"nla-gpu2.ianm.kit.edu.3438293"
"nla-gpu2.ianm.kit.edu.3438294"
"nla-gpu2.ianm.kit.edu.3438295"
"nla-gpu2.ianm.kit.edu.3438296"
"nla-gpu2.ianm.kit.edu.3438297"
"nla-gpu2.ianm.kit.edu.3438298"
"nla-gpu2.ianm.kit.edu.3438299"
"nla-gpu2.ianm.kit.edu.3438300"
"nla-gpu2.ianm.kit.edu.3438301"
"nla-gpu2.ianm.kit.edu.3438302"
"nla-gpu2.ianm.kit.edu.3438303"
"nla-gpu2.ianm.kit.edu.3438304"
"nla-gpu2.ianm.kit.edu.3438305"
"nla-gpu2.ianm.kit.edu.3438306"
"nla-gpu2.ianm.kit.edu.3438307"
)

Pstream initialized with:
    floatTransfer      : 0
    nProcsSimpleSum    : 0
    commsType          : nonBlocking
    polling iterations : 0
sigFpe : Enabling floating point exception trapping (FOAM_SIGFPE).
fileModificationChecking : Monitoring run-time modified files using timeStampMaster (fileModificationSkew 10)
allowSystemOperations : Allowing user-supplied system call operations

// * * * * * * * * * * * * * * * * * * * * * * * * * * * * * * * * * * * * * //
Create time

--> FOAM Warning : 
    From function virtual void Foam::Time::readDict()
    in file db/Time/TimeIO.C at line 408
    Reading "/tmp/lidDrivenCavity3D/Variation_mesh/300/Variation_matrix_solver/BiCGStab_NoPrecond_HIP/Variation_mpiRank/40/1640669994/system/controlDict" from line 20 to line 52
    Selecting compressed binary is inefficient and ineffective, resetting to uncompressed binary
Create mesh for time = 0

Reading transportProperties

Reading field p

Reading field U

Reading/calculating face flux field phi


Starting time loop

Time = 0.000333333

Courant Number mean: 1.63465e-17 max: 6.245e-14
DILUPBiCGStab:  Solving for Ux, Initial residual = 1, Final residual = 0.0297322, No Iterations 5
DILUPBiCGStab:  Solving for Uy:  solution singularity
DILUPBiCGStab:  Solving for Uz:  solution singularity
linear solve U 925974
nonehipGKOBiCGStab:  Solving for p, Initial residual = 1, Final residual = 9.94495e-07, No Iterations 2565
linear solve p 473139897
time step continuity errors : sum local = 6.98144e-05, global = -1.33946e-19, cumulative = -1.33946e-19
nonehipGKOBiCGStab:  Solving for p, Initial residual = 0.898814, Final residual = 8.28157e-07, No Iterations 3111
linear solve p 297087116
time step continuity errors : sum local = 3.15345e-10, global = -1.58888e-23, cumulative = -1.33962e-19
ExecutionTime = 778.36 s  ClockTime = 774 s

Time = 0.000666667

Courant Number mean: 0.0302917 max: 0.890561
DILUPBiCGStab:  Solving for Ux, Initial residual = 0.106506, Final residual = 0.019734, No Iterations 5
DILUPBiCGStab:  Solving for Uy, Initial residual = 0.550292, Final residual = 0.0962897, No Iterations 5
DILUPBiCGStab:  Solving for Uz, Initial residual = 0.906724, Final residual = 0.144188, No Iterations 5
linear solve U 1812263
nonehipGKOBiCGStab:  Solving for p, Initial residual = 0.93899, Final residual = 1.00875e-07, No Iterations 2790
linear solve p 259557187
time step continuity errors : sum local = 9.22704e-11, global = 6.70576e-23, cumulative = -1.33894e-19
nonehipGKOBiCGStab:  Solving for p, Initial residual = 0.88296, Final residual = 8.60875e-07, No Iterations 2165
linear solve p 195755284
time step continuity errors : sum local = 9.61423e-05, global = 1.17905e-19, cumulative = -1.59898e-20
ExecutionTime = 1240.17 s  ClockTime = 1232 s

Time = 0.001

Courant Number mean: 0.0484297 max: 1.07214
DILUPBiCGStab:  Solving for Ux, Initial residual = 0.0667915, Final residual = 0.0098233, No Iterations 5
DILUPBiCGStab:  Solving for Uy, Initial residual = 0.418493, Final residual = 0.0445721, No Iterations 5
DILUPBiCGStab:  Solving for Uz, Initial residual = 0.604502, Final residual = 0.0684352, No Iterations 5
linear solve U 1720362
nonehipGKOBiCGStab:  Solving for p, Initial residual = 0.945162, Final residual = 7.88361e-07, No Iterations 2967
linear solve p 283976734
time step continuity errors : sum local = 1.7061e-09, global = -1.69783e-22, cumulative = -1.61596e-20
nonehipGKOBiCGStab:  Solving for p, Initial residual = 0.896205, Final residual = 3.13548e-07, No Iterations 3068
linear solve p 296254398
time step continuity errors : sum local = 4.07253e-10, global = -4.42339e-22, cumulative = -1.6602e-20
ExecutionTime = 1827.71 s  ClockTime = 1816 s

End

Finalising parallel run
================================================================================
