/*---------------------------------------------------------------------------*\
  =========                 |
  \\      /  F ield         | OpenFOAM: The Open Source CFD Toolbox
   \\    /   O peration     | Website:  https://openfoam.org
    \\  /    A nd           | Version:  8
     \\/     M anipulation  |
\*---------------------------------------------------------------------------*/
Build  : 8-13d66902f78c
Exec   : simpleFoam
Date   : Jun 26 2021
Time   : 22:26:41
Host   : "uc2n513.localdomain"
PID    : 3192477
I/O    : uncollated
Case   : /pfs/data5/home/kit/scc/nq7776/code/OGL_DATA/airFoil2D/v0.1-117-g6793da2/f584ccac99/TeslaV100-SXM2-32GB/Test_2021-06-26-22:23:15/1/p-U-BiCGStab-GKO-BJ-cuda/airFoil2D
nProcs : 1
sigFpe : Enabling floating point exception trapping (FOAM_SIGFPE).
fileModificationChecking : Monitoring run-time modified files using timeStampMaster (fileModificationSkew 10)
allowSystemOperations : Allowing user-supplied system call operations

// * * * * * * * * * * * * * * * * * * * * * * * * * * * * * * * * * * * * * //
Create time

Create mesh for time = 0


SIMPLE: Convergence criteria found
        p: tolerance 1e-05
        U: tolerance 1e-05
        nuTilda: tolerance 1e-05

Reading field p

Reading field U

Reading/calculating face flux field phi

Selecting incompressible transport model Newtonian
Selecting turbulence model type RAS
Selecting RAS turbulence model SpalartAllmaras
Selecting patchDistMethod meshWave
RAS
{
    model           SpalartAllmaras;
    turbulence      on;
    printCoeffs     on;
    sigmaNut        0.66666;
    kappa           0.41;
    Cb1             0.1355;
    Cb2             0.622;
    Cw2             0.3;
    Cw3             2;
    Cv1             7.1;
    Cs              0.3;
}

No MRF models present

No finite volume options present

Starting time loop

Time = 1

Gingko init_host_sparsity_pattern : 8 ms
 matrix not stored update host matrix 
Gingko update_host_mtx : 4 ms
matrix is not yet sorted, compute sorting idxs 
 compute sorting idxs 214288
Gingko compute_sort : 241 ms
matrix is not yet sorted,  sorting host matrix 
Gingko sort_host_mtx_sparsity_pattern : 6 ms
Gingko sort_host_mtx : 3 ms
Gingko init_preconditioner : 6 ms
Gingko solve : 11 ms
 copy back
 get iters 
BJcudaGKOBiCGStab:  Solving for Ux, Initial residual = -0, Final residual = 7.26213e-07, No Iterations 29
Gingko init_host_sparsity_pattern : 8 ms
 matrix not stored update host matrix 
Gingko update_host_mtx : 4 ms
matrix is not yet sorted,  sorting host matrix 
Gingko sort_host_mtx_sparsity_pattern : 5 ms
Gingko sort_host_mtx : 3 ms
Gingko init_preconditioner : 5 ms
Gingko solve : 10 ms
 copy back
 get iters 
BJcudaGKOBiCGStab:  Solving for Uy, Initial residual = 130.982, Final residual = 7.41617e-07, No Iterations 29
Gingko init_host_sparsity_pattern : 8 ms
 matrix not stored update host matrix 
Gingko update_host_mtx : 4 ms
matrix is not yet sorted,  sorting host matrix 
Gingko sort_host_mtx_sparsity_pattern : 5 ms
Gingko sort_host_mtx : 3 ms
Gingko init_preconditioner : 5 ms
Gingko solve : 156 ms
 copy back
 get iters 
BJcudaGKOBiCGStab:  Solving for p, Initial residual = 133.957, Final residual = 0.000345466, No Iterations 499
time step continuity errors : sum local = 2.13047e-05, global = -1.20657e-05, cumulative = -1.20657e-05
smoothSolver:  Solving for nuTilda, Initial residual = 1, Final residual = 0.0692556, No Iterations 2
ExecutionTime = 1.57 s  ClockTime = 2 s

Time = 2

Gingko init_host_sparsity_pattern : 8 ms
 matrix not stored update host matrix 
Gingko update_host_mtx : 4 ms
matrix is not yet sorted,  sorting host matrix 
Gingko sort_host_mtx_sparsity_pattern : 5 ms
Gingko sort_host_mtx : 3 ms
 found preconditioner 
Gingko init_preconditioner : 0 ms
Gingko solve : 11 ms
 copy back
 get iters 
BJcudaGKOBiCGStab:  Solving for Ux, Initial residual = 1, Final residual = 9.15419e-07, No Iterations 33
Gingko init_host_sparsity_pattern : 8 ms
 matrix not stored update host matrix 
Gingko update_host_mtx : 4 ms
matrix is not yet sorted,  sorting host matrix 
Gingko sort_host_mtx_sparsity_pattern : 5 ms
Gingko sort_host_mtx : 3 ms
 found preconditioner 
Gingko init_preconditioner : 0 ms
Gingko solve : 9 ms
 copy back
 get iters 
BJcudaGKOBiCGStab:  Solving for Uy, Initial residual = 0.547311, Final residual = 5.41886e-07, No Iterations 29
 found preconditioner 
Gingko init_preconditioner : 0 ms
Gingko solve : 153 ms
 copy back
 get iters 
BJcudaGKOBiCGStab:  Solving for p, Initial residual = 0.716185, Final residual = 3.12243e-05, No Iterations 499
time step continuity errors : sum local = 0.00859255, global = 0.00405176, cumulative = 0.00403969
smoothSolver:  Solving for nuTilda, Initial residual = 0.124197, Final residual = 0.00551522, No Iterations 4
ExecutionTime = 1.83 s  ClockTime = 2 s

Time = 3

Gingko init_host_sparsity_pattern : 8 ms
 matrix not stored update host matrix 
Gingko update_host_mtx : 4 ms
matrix is not yet sorted,  sorting host matrix 
Gingko sort_host_mtx_sparsity_pattern : 5 ms
Gingko sort_host_mtx : 3 ms
 found preconditioner 
Gingko init_preconditioner : 0 ms
Gingko solve : 9 ms
 copy back
 get iters 
BJcudaGKOBiCGStab:  Solving for Ux, Initial residual = 0.174694, Final residual = 7.75721e-07, No Iterations 26
Gingko init_host_sparsity_pattern : 8 ms
 matrix not stored update host matrix 
Gingko update_host_mtx : 4 ms
matrix is not yet sorted,  sorting host matrix 
Gingko sort_host_mtx_sparsity_pattern : 5 ms
Gingko sort_host_mtx : 3 ms
 found preconditioner 
Gingko init_preconditioner : 0 ms
Gingko solve : 7 ms
 copy back
 get iters 
BJcudaGKOBiCGStab:  Solving for Uy, Initial residual = 0.27933, Final residual = 9.02395e-07, No Iterations 21
 found preconditioner 
Gingko init_preconditioner : 0 ms
Gingko solve : 155 ms
 copy back
 get iters 
BJcudaGKOBiCGStab:  Solving for p, Initial residual = 0.215007, Final residual = 6.20188e-05, No Iterations 499
time step continuity errors : sum local = 0.0116873, global = 0.0053564, cumulative = 0.00939609
smoothSolver:  Solving for nuTilda, Initial residual = 0.119551, Final residual = 0.00522799, No Iterations 4
ExecutionTime = 2.09 s  ClockTime = 2 s

Time = 4

Gingko init_host_sparsity_pattern : 8 ms
 matrix not stored update host matrix 
Gingko update_host_mtx : 4 ms
matrix is not yet sorted,  sorting host matrix 
Gingko sort_host_mtx_sparsity_pattern : 5 ms
Gingko sort_host_mtx : 3 ms
 found preconditioner 
Gingko init_preconditioner : 0 ms
Gingko solve : 9 ms
 copy back
 get iters 
BJcudaGKOBiCGStab:  Solving for Ux, Initial residual = 0.146396, Final residual = 8.49303e-07, No Iterations 29
Gingko init_host_sparsity_pattern : 8 ms
 matrix not stored update host matrix 
Gingko update_host_mtx : 4 ms
matrix is not yet sorted,  sorting host matrix 
Gingko sort_host_mtx_sparsity_pattern : 5 ms
Gingko sort_host_mtx : 3 ms
 found preconditioner 
Gingko init_preconditioner : 0 ms
Gingko solve : 10 ms
 copy back
 get iters 
BJcudaGKOBiCGStab:  Solving for Uy, Initial residual = 0.225703, Final residual = 7.9222e-07, No Iterations 30
 found preconditioner 
Gingko init_preconditioner : 0 ms
Gingko solve : 157 ms
 copy back
 get iters 
BJcudaGKOBiCGStab:  Solving for p, Initial residual = 0.17075, Final residual = 7.5555e-05, No Iterations 499
time step continuity errors : sum local = 0.0129685, global = 0.0052227, cumulative = 0.0146188
smoothSolver:  Solving for nuTilda, Initial residual = 0.125637, Final residual = 0.00567055, No Iterations 4
bounding nuTilda, min: -0.104931 max: 0.349811 average: 0.139476
ExecutionTime = 2.36 s  ClockTime = 2 s

Time = 5

Gingko init_host_sparsity_pattern : 8 ms
 matrix not stored update host matrix 
Gingko update_host_mtx : 4 ms
matrix is not yet sorted,  sorting host matrix 
Gingko sort_host_mtx_sparsity_pattern : 5 ms
Gingko sort_host_mtx : 3 ms
 found preconditioner 
Gingko init_preconditioner : 0 ms
Gingko solve : 14 ms
 copy back
 get iters 
BJcudaGKOBiCGStab:  Solving for Ux, Initial residual = 0.268686, Final residual = 7.12772e-07, No Iterations 44
Gingko init_host_sparsity_pattern : 8 ms
 matrix not stored update host matrix 
Gingko update_host_mtx : 4 ms
matrix is not yet sorted,  sorting host matrix 
Gingko sort_host_mtx_sparsity_pattern : 5 ms
Gingko sort_host_mtx : 3 ms
 found preconditioner 
Gingko init_preconditioner : 0 ms
Gingko solve : 14 ms
 copy back
 get iters 
BJcudaGKOBiCGStab:  Solving for Uy, Initial residual = 0.217265, Final residual = 7.74881e-07, No Iterations 43
 found preconditioner 
Gingko init_preconditioner : 0 ms
Gingko solve : 155 ms
 copy back
 get iters 
BJcudaGKOBiCGStab:  Solving for p, Initial residual = 0.159757, Final residual = 7.015e-05, No Iterations 499
time step continuity errors : sum local = 1.60252, global = 0.00573443, cumulative = 0.0203532
smoothSolver:  Solving for nuTilda, Initial residual = 0.0538735, Final residual = 0.00284255, No Iterations 22
ExecutionTime = 2.64 s  ClockTime = 3 s

End

