/*---------------------------------------------------------------------------*\
  =========                 |
  \\      /  F ield         | OpenFOAM: The Open Source CFD Toolbox
   \\    /   O peration     | Website:  https://openfoam.org
    \\  /    A nd           | Version:  8
     \\/     M anipulation  |
\*---------------------------------------------------------------------------*/
Build  : 8-13d66902f78c
Exec   : simpleFoam
Date   : Jul 05 2021
Time   : 02:24:07
Host   : "uc2n489.localdomain"
PID    : 998555
I/O    : uncollated
Case   : /pfs/data5/home/kit/scc/nq7776/code/OGL_DATA/airFoil2D/v0.1-136-g40fef35/f584ccac99/TeslaV100-SXM2-32GB/Test_2021-07-05-02:24:03/0/p-BiCGStab-GKO-BJ-cuda/airFoil2D
nProcs : 1
sigFpe : Enabling floating point exception trapping (FOAM_SIGFPE).
fileModificationChecking : Monitoring run-time modified files using timeStampMaster (fileModificationSkew 10)
allowSystemOperations : Allowing user-supplied system call operations

// * * * * * * * * * * * * * * * * * * * * * * * * * * * * * * * * * * * * * //
Create time

Create mesh for time = 0


SIMPLE: Convergence criteria found
        p: tolerance 1e-05
        U: tolerance 1e-05
        nuTilda: tolerance 1e-05

Reading field p

Reading field U

Reading/calculating face flux field phi

Selecting incompressible transport model Newtonian
Selecting turbulence model type RAS
Selecting RAS turbulence model SpalartAllmaras
Selecting patchDistMethod meshWave
RAS
{
    model           SpalartAllmaras;
    turbulence      on;
    printCoeffs     on;
    sigmaNut        0.66666;
    kappa           0.41;
    Cb1             0.1355;
    Cb2             0.622;
    Cw2             0.3;
    Cw3             2;
    Cv1             7.1;
    Cs              0.3;
}

No MRF models present

No finite volume options present

Starting time loop

Time = 1

smoothSolver:  Solving for Ux, Initial residual = 1, Final residual = 0.000286765, No Iterations 6
smoothSolver:  Solving for Uy, Initial residual = 1, Final residual = 0.000266947, No Iterations 6
[OGL LOG] init_host_sparsity_pattern : 2 ms
[OGL LOG] matrix not stored update host matrix
[OGL LOG] update_host_mtx : 1 ms
[OGL LOG] matrix is not yet sorted, compute sorting idxs
[OGL LOG] compute_sort : 49 ms
[OGL LOG] matrix is not yet sorted, sorting host matrix
[OGL LOG] sort_host_mtx_sparsity_pattern : 1 ms
[OGL LOG] sort_host_mtx : 0 ms
[OGL LOG] init_preconditioner : 2 ms
[OGL LOG] solve : 55 ms
BJcudaGKOBiCGStab:  Solving for p, Initial residual = 1, Final residual = 0.0007529, No Iterations 189
time step continuity errors : sum local = 2.46214e-06, global = -6.64401e-08, cumulative = -6.64401e-08
smoothSolver:  Solving for nuTilda, Initial residual = 1, Final residual = 0.0471708, No Iterations 2
ExecutionTime = 0.96 s  ClockTime = 1 s

Time = 2

smoothSolver:  Solving for Ux, Initial residual = 0.427223, Final residual = 0.000365278, No Iterations 12
smoothSolver:  Solving for Uy, Initial residual = 0.575118, Final residual = 0.000496882, No Iterations 10
[OGL LOG] init_host_sparsity_pattern : 2 ms
[OGL LOG] matrix not stored update host matrix
[OGL LOG] update_host_mtx : 1 ms
[OGL LOG] matrix is not yet sorted, sorting host matrix
[OGL LOG] sort_host_mtx_sparsity_pattern : 1 ms
[OGL LOG] sort_host_mtx : 0 ms
[OGL LOG] init_preconditioner : 0 ms
[OGL LOG] solve : 79 ms
BJcudaGKOBiCGStab:  Solving for p, Initial residual = 0.206676, Final residual = 0.000198206, No Iterations 283
time step continuity errors : sum local = 8.58944e-06, global = -6.77734e-06, cumulative = -6.84378e-06
smoothSolver:  Solving for nuTilda, Initial residual = 0.14035, Final residual = 0.00999769, No Iterations 2
ExecutionTime = 1.06 s  ClockTime = 1 s

Time = 3

smoothSolver:  Solving for Ux, Initial residual = 0.149153, Final residual = 0.000121512, No Iterations 12
smoothSolver:  Solving for Uy, Initial residual = 0.15082, Final residual = 5.52945e-05, No Iterations 12
[OGL LOG] init_host_sparsity_pattern : 2 ms
[OGL LOG] matrix not stored update host matrix
[OGL LOG] update_host_mtx : 1 ms
[OGL LOG] matrix is not yet sorted, sorting host matrix
[OGL LOG] sort_host_mtx_sparsity_pattern : 1 ms
[OGL LOG] sort_host_mtx : 0 ms
[OGL LOG] init_preconditioner : 0 ms
[OGL LOG] solve : 73 ms
BJcudaGKOBiCGStab:  Solving for p, Initial residual = 0.106698, Final residual = 9.21878e-05, No Iterations 257
time step continuity errors : sum local = 2.71383e-06, global = 2.12272e-06, cumulative = -4.72105e-06
smoothSolver:  Solving for nuTilda, Initial residual = 0.137396, Final residual = 0.0135682, No Iterations 2
ExecutionTime = 1.14 s  ClockTime = 1 s

Time = 4

smoothSolver:  Solving for Ux, Initial residual = 0.045235, Final residual = 2.03209e-05, No Iterations 12
smoothSolver:  Solving for Uy, Initial residual = 0.0574836, Final residual = 2.29461e-05, No Iterations 12
[OGL LOG] init_host_sparsity_pattern : 2 ms
[OGL LOG] matrix not stored update host matrix
[OGL LOG] update_host_mtx : 1 ms
[OGL LOG] matrix is not yet sorted, sorting host matrix
[OGL LOG] sort_host_mtx_sparsity_pattern : 1 ms
[OGL LOG] sort_host_mtx : 0 ms
[OGL LOG] init_preconditioner : 0 ms
[OGL LOG] solve : 82 ms
BJcudaGKOBiCGStab:  Solving for p, Initial residual = 0.281132, Final residual = 0.000275303, No Iterations 292
time step continuity errors : sum local = 4.64647e-06, global = 1.14111e-06, cumulative = -3.57994e-06
smoothSolver:  Solving for nuTilda, Initial residual = 0.175156, Final residual = 0.0048573, No Iterations 4
ExecutionTime = 1.25 s  ClockTime = 1 s

Time = 5

smoothSolver:  Solving for Ux, Initial residual = 0.11994, Final residual = 0.000105007, No Iterations 12
smoothSolver:  Solving for Uy, Initial residual = 0.156497, Final residual = 0.000133442, No Iterations 10
[OGL LOG] init_host_sparsity_pattern : 2 ms
[OGL LOG] matrix not stored update host matrix
[OGL LOG] update_host_mtx : 1 ms
[OGL LOG] matrix is not yet sorted, sorting host matrix
[OGL LOG] sort_host_mtx_sparsity_pattern : 1 ms
[OGL LOG] sort_host_mtx : 0 ms
[OGL LOG] init_preconditioner : 0 ms
[OGL LOG] solve : 72 ms
BJcudaGKOBiCGStab:  Solving for p, Initial residual = 0.146627, Final residual = 0.000144942, No Iterations 258
time step continuity errors : sum local = 4.50791e-06, global = -3.04956e-06, cumulative = -6.6295e-06
smoothSolver:  Solving for nuTilda, Initial residual = 0.116687, Final residual = 0.00316972, No Iterations 4
ExecutionTime = 1.34 s  ClockTime = 2 s

End

