/*---------------------------------------------------------------------------*\
  =========                 |
  \\      /  F ield         | OpenFOAM: The Open Source CFD Toolbox
   \\    /   O peration     | Website:  https://openfoam.org
    \\  /    A nd           | Version:  8
     \\/     M anipulation  |
\*---------------------------------------------------------------------------*/
Build  : 8-13d66902f78c
Exec   : simpleFoam
Date   : Jul 05 2021
Time   : 18:37:17
Host   : "uc2n486.localdomain"
PID    : 59086
I/O    : uncollated
Case   : /pfs/data5/home/kit/scc/nq7776/code/OGL_DATA/airFoil2D/v0.1-136-g40fef35/f584ccac99/TeslaV100-SXM2-32GB/Test_2021-07-05-18:36:38/0/p-BiCGStab-GKO-none-cuda/airFoil2D
nProcs : 1
sigFpe : Enabling floating point exception trapping (FOAM_SIGFPE).
fileModificationChecking : Monitoring run-time modified files using timeStampMaster (fileModificationSkew 10)
allowSystemOperations : Allowing user-supplied system call operations

// * * * * * * * * * * * * * * * * * * * * * * * * * * * * * * * * * * * * * //
Create time

Create mesh for time = 0


SIMPLE: Convergence criteria found
        p: tolerance 1e-05
        U: tolerance 1e-05
        nuTilda: tolerance 1e-05

Reading field p

Reading field U

Reading/calculating face flux field phi

Selecting incompressible transport model Newtonian
Selecting turbulence model type RAS
Selecting RAS turbulence model SpalartAllmaras
Selecting patchDistMethod meshWave
RAS
{
    model           SpalartAllmaras;
    turbulence      on;
    printCoeffs     on;
    sigmaNut        0.66666;
    kappa           0.41;
    Cb1             0.1355;
    Cb2             0.622;
    Cw2             0.3;
    Cw3             2;
    Cv1             7.1;
    Cs              0.3;
}

No MRF models present

No finite volume options present

Starting time loop

Time = 1

smoothSolver:  Solving for Ux, Initial residual = 1, Final residual = 0.000286765, No Iterations 6
smoothSolver:  Solving for Uy, Initial residual = 1, Final residual = 0.000266947, No Iterations 6
[OGL LOG] init_host_sparsity_pattern : 2 ms
[OGL LOG] matrix not stored update host matrix
[OGL LOG] update_host_mtx : 1 ms
[OGL LOG] matrix is not yet sorted, compute sorting idxs
[OGL LOG] compute_sort : 49 ms
[OGL LOG] matrix is not yet sorted, sorting host matrix
[OGL LOG] sort_host_mtx_sparsity_pattern : 1 ms
[OGL LOG] sort_host_mtx : 0 ms
[OGL LOG] init_preconditioner : 0 ms
[OGL LOG] solve : 310 ms
nonecudaGKOBiCGStab:  Solving for p, Initial residual = 1, Final residual = 0.0139735, No Iterations 1000
time step continuity errors : sum local = 4.5696e-05, global = -4.37456e-05, cumulative = -4.37456e-05
smoothSolver:  Solving for nuTilda, Initial residual = 1, Final residual = 0.0471803, No Iterations 2
ExecutionTime = 1.27 s  ClockTime = 2 s

Time = 2

smoothSolver:  Solving for Ux, Initial residual = 0.426771, Final residual = 0.000351988, No Iterations 12
smoothSolver:  Solving for Uy, Initial residual = 0.574205, Final residual = 0.000495088, No Iterations 10
[OGL LOG] init_host_sparsity_pattern : 1 ms
[OGL LOG] matrix not stored update host matrix
[OGL LOG] update_host_mtx : 0 ms
[OGL LOG] matrix is not yet sorted, sorting host matrix
[OGL LOG] sort_host_mtx_sparsity_pattern : 1 ms
[OGL LOG] sort_host_mtx : 0 ms
[OGL LOG] init_preconditioner : 0 ms
[OGL LOG] solve : 297 ms
nonecudaGKOBiCGStab:  Solving for p, Initial residual = 0.218961, Final residual = 0.000217258, No Iterations 973
time step continuity errors : sum local = 8.87587e-06, global = 2.39382e-06, cumulative = -4.13518e-05
smoothSolver:  Solving for nuTilda, Initial residual = 0.14054, Final residual = 0.00999977, No Iterations 2
ExecutionTime = 1.58 s  ClockTime = 2 s

Time = 3

smoothSolver:  Solving for Ux, Initial residual = 0.149798, Final residual = 0.000125079, No Iterations 12
smoothSolver:  Solving for Uy, Initial residual = 0.15098, Final residual = 5.52092e-05, No Iterations 12
[OGL LOG] init_host_sparsity_pattern : 2 ms
[OGL LOG] matrix not stored update host matrix
[OGL LOG] update_host_mtx : 0 ms
[OGL LOG] matrix is not yet sorted, sorting host matrix
[OGL LOG] sort_host_mtx_sparsity_pattern : 1 ms
[OGL LOG] sort_host_mtx : 0 ms
[OGL LOG] init_preconditioner : 0 ms
[OGL LOG] solve : 309 ms
nonecudaGKOBiCGStab:  Solving for p, Initial residual = 0.103576, Final residual = 0.000626574, No Iterations 1000
time step continuity errors : sum local = 1.91031e-05, global = 1.20811e-05, cumulative = -2.92707e-05
smoothSolver:  Solving for nuTilda, Initial residual = 0.137114, Final residual = 0.0135109, No Iterations 2
ExecutionTime = 1.9 s  ClockTime = 2 s

Time = 4

smoothSolver:  Solving for Ux, Initial residual = 0.0418937, Final residual = 3.96901e-05, No Iterations 10
smoothSolver:  Solving for Uy, Initial residual = 0.0552459, Final residual = 2.02771e-05, No Iterations 12
[OGL LOG] init_host_sparsity_pattern : 1 ms
[OGL LOG] matrix not stored update host matrix
[OGL LOG] update_host_mtx : 0 ms
[OGL LOG] matrix is not yet sorted, sorting host matrix
[OGL LOG] sort_host_mtx_sparsity_pattern : 1 ms
[OGL LOG] sort_host_mtx : 0 ms
[OGL LOG] init_preconditioner : 0 ms
[OGL LOG] solve : 309 ms
nonecudaGKOBiCGStab:  Solving for p, Initial residual = 0.336774, Final residual = 0.000436235, No Iterations 1000
time step continuity errors : sum local = 6.14285e-06, global = -4.36575e-06, cumulative = -3.36364e-05
smoothSolver:  Solving for nuTilda, Initial residual = 0.174713, Final residual = 0.00486817, No Iterations 4
ExecutionTime = 2.24 s  ClockTime = 2 s

Time = 5

smoothSolver:  Solving for Ux, Initial residual = 0.119863, Final residual = 0.000104383, No Iterations 12
smoothSolver:  Solving for Uy, Initial residual = 0.156446, Final residual = 0.000132349, No Iterations 10
[OGL LOG] init_host_sparsity_pattern : 2 ms
[OGL LOG] matrix not stored update host matrix
[OGL LOG] update_host_mtx : 1 ms
[OGL LOG] matrix is not yet sorted, sorting host matrix
[OGL LOG] sort_host_mtx_sparsity_pattern : 1 ms
[OGL LOG] sort_host_mtx : 0 ms
[OGL LOG] init_preconditioner : 0 ms
[OGL LOG] solve : 306 ms
nonecudaGKOBiCGStab:  Solving for p, Initial residual = 0.148404, Final residual = 0.000213611, No Iterations 1000
time step continuity errors : sum local = 6.55839e-06, global = -2.68151e-06, cumulative = -3.63179e-05
smoothSolver:  Solving for nuTilda, Initial residual = 0.116589, Final residual = 0.00317809, No Iterations 4
ExecutionTime = 2.56 s  ClockTime = 3 s

End

