/*---------------------------------------------------------------------------*\
  =========                 |
  \\      /  F ield         | OpenFOAM: The Open Source CFD Toolbox
   \\    /   O peration     | Website:  https://openfoam.org
    \\  /    A nd           | Version:  8
     \\/     M anipulation  |
\*---------------------------------------------------------------------------*/
Build  : 8-13d66902f78c
Exec   : simpleFoam
Date   : Jul 05 2021
Time   : 02:25:13
Host   : "uc2n489.localdomain"
PID    : 998835
I/O    : uncollated
Case   : /pfs/data5/home/kit/scc/nq7776/code/OGL_DATA/airFoil2D/v0.1-136-g40fef35/f584ccac99/TeslaV100-SXM2-32GB/Test_2021-07-05-02:24:03/1/p-BiCGStab-GKO-BJ-cuda/airFoil2D
nProcs : 1
sigFpe : Enabling floating point exception trapping (FOAM_SIGFPE).
fileModificationChecking : Monitoring run-time modified files using timeStampMaster (fileModificationSkew 10)
allowSystemOperations : Allowing user-supplied system call operations

// * * * * * * * * * * * * * * * * * * * * * * * * * * * * * * * * * * * * * //
Create time

Create mesh for time = 0


SIMPLE: Convergence criteria found
        p: tolerance 1e-05
        U: tolerance 1e-05
        nuTilda: tolerance 1e-05

Reading field p

Reading field U

Reading/calculating face flux field phi

Selecting incompressible transport model Newtonian
Selecting turbulence model type RAS
Selecting RAS turbulence model SpalartAllmaras
Selecting patchDistMethod meshWave
RAS
{
    model           SpalartAllmaras;
    turbulence      on;
    printCoeffs     on;
    sigmaNut        0.66666;
    kappa           0.41;
    Cb1             0.1355;
    Cb2             0.622;
    Cw2             0.3;
    Cw3             2;
    Cv1             7.1;
    Cs              0.3;
}

No MRF models present

No finite volume options present

Starting time loop

Time = 1

smoothSolver:  Solving for Ux, Initial residual = 1, Final residual = 0.000531638, No Iterations 14
smoothSolver:  Solving for Uy, Initial residual = 1, Final residual = 0.000467931, No Iterations 14
[OGL LOG] init_host_sparsity_pattern : 8 ms
[OGL LOG] matrix not stored update host matrix
[OGL LOG] update_host_mtx : 4 ms
[OGL LOG] matrix is not yet sorted, compute sorting idxs
[OGL LOG] compute_sort : 224 ms
[OGL LOG] matrix is not yet sorted, sorting host matrix
[OGL LOG] sort_host_mtx_sparsity_pattern : 5 ms
[OGL LOG] sort_host_mtx : 3 ms
[OGL LOG] init_preconditioner : 5 ms
[OGL LOG] solve : 206 ms
BJcudaGKOBiCGStab:  Solving for p, Initial residual = 1, Final residual = 0.000922999, No Iterations 704
time step continuity errors : sum local = 2.11604e-06, global = -1.01594e-06, cumulative = -1.01594e-06
smoothSolver:  Solving for nuTilda, Initial residual = 1, Final residual = 0.0317391, No Iterations 2
ExecutionTime = 1.52 s  ClockTime = 1 s

Time = 2

smoothSolver:  Solving for Ux, Initial residual = 0.555947, Final residual = 0.000506348, No Iterations 10
smoothSolver:  Solving for Uy, Initial residual = 0.58566, Final residual = 0.000525949, No Iterations 10
[OGL LOG] init_host_sparsity_pattern : 8 ms
[OGL LOG] matrix not stored update host matrix
[OGL LOG] update_host_mtx : 3 ms
[OGL LOG] matrix is not yet sorted, sorting host matrix
[OGL LOG] sort_host_mtx_sparsity_pattern : 8 ms
[OGL LOG] sort_host_mtx : 3 ms
[OGL LOG] init_preconditioner : 0 ms
[OGL LOG] solve : 282 ms
BJcudaGKOBiCGStab:  Solving for p, Initial residual = 0.11622, Final residual = 0.00082673, No Iterations 1000
time step continuity errors : sum local = 6.61032e-05, global = 3.02278e-05, cumulative = 2.92118e-05
smoothSolver:  Solving for nuTilda, Initial residual = 0.05219, Final residual = 0.0015381, No Iterations 4
ExecutionTime = 1.88 s  ClockTime = 2 s

Time = 3

smoothSolver:  Solving for Ux, Initial residual = 0.165154, Final residual = 0.00015322, No Iterations 10
smoothSolver:  Solving for Uy, Initial residual = 0.134406, Final residual = 0.000121181, No Iterations 10
[OGL LOG] init_host_sparsity_pattern : 8 ms
[OGL LOG] matrix not stored update host matrix
[OGL LOG] update_host_mtx : 3 ms
[OGL LOG] matrix is not yet sorted, sorting host matrix
[OGL LOG] sort_host_mtx_sparsity_pattern : 5 ms
[OGL LOG] sort_host_mtx : 3 ms
[OGL LOG] init_preconditioner : 0 ms
[OGL LOG] solve : 284 ms
BJcudaGKOBiCGStab:  Solving for p, Initial residual = 0.0536696, Final residual = 0.000861372, No Iterations 1000
time step continuity errors : sum local = 4.4235e-05, global = 2.74988e-05, cumulative = 5.67107e-05
smoothSolver:  Solving for nuTilda, Initial residual = 0.031514, Final residual = 0.00132411, No Iterations 4
ExecutionTime = 2.23 s  ClockTime = 2 s

Time = 4

smoothSolver:  Solving for Ux, Initial residual = 0.0511794, Final residual = 4.33381e-05, No Iterations 10
smoothSolver:  Solving for Uy, Initial residual = 0.0496603, Final residual = 4.26752e-05, No Iterations 10
[OGL LOG] init_host_sparsity_pattern : 8 ms
[OGL LOG] matrix not stored update host matrix
[OGL LOG] update_host_mtx : 3 ms
[OGL LOG] matrix is not yet sorted, sorting host matrix
[OGL LOG] sort_host_mtx_sparsity_pattern : 5 ms
[OGL LOG] sort_host_mtx : 3 ms
[OGL LOG] init_preconditioner : 0 ms
[OGL LOG] solve : 215 ms
BJcudaGKOBiCGStab:  Solving for p, Initial residual = 0.180698, Final residual = 8.87519e-05, No Iterations 760
time step continuity errors : sum local = 2.43168e-06, global = 2.07117e-06, cumulative = 5.87818e-05
smoothSolver:  Solving for nuTilda, Initial residual = 0.0257798, Final residual = 0.00107079, No Iterations 4
ExecutionTime = 2.51 s  ClockTime = 2 s

Time = 5

smoothSolver:  Solving for Ux, Initial residual = 0.18575, Final residual = 0.000170647, No Iterations 10
smoothSolver:  Solving for Uy, Initial residual = 0.170098, Final residual = 0.000152314, No Iterations 10
[OGL LOG] init_host_sparsity_pattern : 8 ms
[OGL LOG] matrix not stored update host matrix
[OGL LOG] update_host_mtx : 3 ms
[OGL LOG] matrix is not yet sorted, sorting host matrix
[OGL LOG] sort_host_mtx_sparsity_pattern : 5 ms
[OGL LOG] sort_host_mtx : 3 ms
[OGL LOG] init_preconditioner : 0 ms
[OGL LOG] solve : 280 ms
BJcudaGKOBiCGStab:  Solving for p, Initial residual = 0.0810767, Final residual = 0.000305235, No Iterations 1000
time step continuity errors : sum local = 1.65963e-05, global = 1.32113e-05, cumulative = 7.19931e-05
smoothSolver:  Solving for nuTilda, Initial residual = 0.0212527, Final residual = 0.000882689, No Iterations 4
ExecutionTime = 2.86 s  ClockTime = 3 s

End

