/*---------------------------------------------------------------------------*\
  =========                 |
  \\      /  F ield         | OpenFOAM: The Open Source CFD Toolbox
   \\    /   O peration     | Website:  https://openfoam.org
    \\  /    A nd           | Version:  8
     \\/     M anipulation  |
\*---------------------------------------------------------------------------*/
Build  : 8-13d66902f78c
Exec   : simpleFoam
Date   : Jul 05 2021
Time   : 01:52:15
Host   : "uc2n489.localdomain"
PID    : 969401
I/O    : uncollated
Case   : /pfs/data5/home/kit/scc/nq7776/code/OGL_DATA/airFoil2D/v0.1-136-g40fef35/f584ccac99/TeslaV100-SXM2-32GB/Test_2021-07-05-01:51:02/1/p-CG-GKO-none-cuda/airFoil2D
nProcs : 1
sigFpe : Enabling floating point exception trapping (FOAM_SIGFPE).
fileModificationChecking : Monitoring run-time modified files using timeStampMaster (fileModificationSkew 10)
allowSystemOperations : Allowing user-supplied system call operations

// * * * * * * * * * * * * * * * * * * * * * * * * * * * * * * * * * * * * * //
Create time

Create mesh for time = 0


SIMPLE: Convergence criteria found
        p: tolerance 1e-05
        U: tolerance 1e-05
        nuTilda: tolerance 1e-05

Reading field p

Reading field U

Reading/calculating face flux field phi

Selecting incompressible transport model Newtonian
Selecting turbulence model type RAS
Selecting RAS turbulence model SpalartAllmaras
Selecting patchDistMethod meshWave
RAS
{
    model           SpalartAllmaras;
    turbulence      on;
    printCoeffs     on;
    sigmaNut        0.66666;
    kappa           0.41;
    Cb1             0.1355;
    Cb2             0.622;
    Cw2             0.3;
    Cw3             2;
    Cv1             7.1;
    Cs              0.3;
}

No MRF models present

No finite volume options present

Starting time loop

Time = 1

smoothSolver:  Solving for Ux, Initial residual = 1, Final residual = 0.000531638, No Iterations 14
smoothSolver:  Solving for Uy, Initial residual = 1, Final residual = 0.000467931, No Iterations 14
[OGL LOG] init_host_sparsity_pattern : 8 ms
[OGL LOG] matrix not stored update host matrix
[OGL LOG] update_host_mtx : 4 ms
[OGL LOG] matrix is not yet sorted, compute sorting idxs
[OGL LOG] compute_sort : 229 ms
[OGL LOG] matrix is not yet sorted, sorting host matrix
[OGL LOG] sort_host_mtx_sparsity_pattern : 5 ms
[OGL LOG] sort_host_mtx : 3 ms
[OGL LOG] init_preconditioner : 0 ms
[OGL LOG] solve : 150 ms
nonecudaGKOCG:  Solving for p, Initial residual = 1, Final residual = 4.74421, No Iterations 1000
time step continuity errors : sum local = 0.0108764, global = -0.000743216, cumulative = -0.000743216
smoothSolver:  Solving for nuTilda, Initial residual = 1, Final residual = 0.0318917, No Iterations 2
ExecutionTime = 1.47 s  ClockTime = 2 s

Time = 2

smoothSolver:  Solving for Ux, Initial residual = 0.547992, Final residual = 0.000470428, No Iterations 10
smoothSolver:  Solving for Uy, Initial residual = 0.575767, Final residual = 0.000503476, No Iterations 10
[OGL LOG] init_host_sparsity_pattern : 8 ms
[OGL LOG] matrix not stored update host matrix
[OGL LOG] update_host_mtx : 4 ms
[OGL LOG] matrix is not yet sorted, sorting host matrix
[OGL LOG] sort_host_mtx_sparsity_pattern : 5 ms
[OGL LOG] sort_host_mtx : 3 ms
[OGL LOG] init_preconditioner : 0 ms
[OGL LOG] solve : 150 ms
nonecudaGKOCG:  Solving for p, Initial residual = 0.906804, Final residual = 0.392444, No Iterations 1000
time step continuity errors : sum local = 0.00842866, global = 0.000279525, cumulative = -0.000463691
smoothSolver:  Solving for nuTilda, Initial residual = 0.0531731, Final residual = 0.00159957, No Iterations 4
ExecutionTime = 1.68 s  ClockTime = 2 s

Time = 3

smoothSolver:  Solving for Ux, Initial residual = 0.199127, Final residual = 0.000184679, No Iterations 10
smoothSolver:  Solving for Uy, Initial residual = 0.169196, Final residual = 0.000154531, No Iterations 10
[OGL LOG] init_host_sparsity_pattern : 8 ms
[OGL LOG] matrix not stored update host matrix
[OGL LOG] update_host_mtx : 4 ms
[OGL LOG] matrix is not yet sorted, sorting host matrix
[OGL LOG] sort_host_mtx_sparsity_pattern : 5 ms
[OGL LOG] sort_host_mtx : 3 ms
[OGL LOG] init_preconditioner : 0 ms
[OGL LOG] solve : 147 ms
nonecudaGKOCG:  Solving for p, Initial residual = 0.128107, Final residual = 0.105196, No Iterations 1000
time step continuity errors : sum local = 0.00996789, global = 0.000706435, cumulative = 0.000242744
smoothSolver:  Solving for nuTilda, Initial residual = 0.0331406, Final residual = 0.00140013, No Iterations 4
ExecutionTime = 1.9 s  ClockTime = 2 s

Time = 4

smoothSolver:  Solving for Ux, Initial residual = 0.155626, Final residual = 0.000126327, No Iterations 10
smoothSolver:  Solving for Uy, Initial residual = 0.152998, Final residual = 0.00013428, No Iterations 10
[OGL LOG] init_host_sparsity_pattern : 8 ms
[OGL LOG] matrix not stored update host matrix
[OGL LOG] update_host_mtx : 4 ms
[OGL LOG] matrix is not yet sorted, sorting host matrix
[OGL LOG] sort_host_mtx_sparsity_pattern : 5 ms
[OGL LOG] sort_host_mtx : 3 ms
[OGL LOG] init_preconditioner : 0 ms
[OGL LOG] solve : 151 ms
nonecudaGKOCG:  Solving for p, Initial residual = 0.158255, Final residual = 0.0845361, No Iterations 1000
time step continuity errors : sum local = 0.00766036, global = 8.86543e-05, cumulative = 0.000331398
smoothSolver:  Solving for nuTilda, Initial residual = 0.0274195, Final residual = 0.0012084, No Iterations 4
ExecutionTime = 2.12 s  ClockTime = 2 s

Time = 5

smoothSolver:  Solving for Ux, Initial residual = 0.19154, Final residual = 0.000173895, No Iterations 10
smoothSolver:  Solving for Uy, Initial residual = 0.166131, Final residual = 0.000144849, No Iterations 10
[OGL LOG] init_host_sparsity_pattern : 8 ms
[OGL LOG] matrix not stored update host matrix
[OGL LOG] update_host_mtx : 4 ms
[OGL LOG] matrix is not yet sorted, sorting host matrix
[OGL LOG] sort_host_mtx_sparsity_pattern : 5 ms
[OGL LOG] sort_host_mtx : 3 ms
[OGL LOG] init_preconditioner : 0 ms
[OGL LOG] solve : 147 ms
nonecudaGKOCG:  Solving for p, Initial residual = 0.328941, Final residual = 0.119146, No Iterations 1000
time step continuity errors : sum local = 0.00462915, global = -0.000225003, cumulative = 0.000106395
smoothSolver:  Solving for nuTilda, Initial residual = 0.0229079, Final residual = 0.000974131, No Iterations 4
ExecutionTime = 2.33 s  ClockTime = 3 s

End

