/*---------------------------------------------------------------------------*\
  =========                 |
  \\      /  F ield         | OpenFOAM: The Open Source CFD Toolbox
   \\    /   O peration     | Website:  https://openfoam.org
    \\  /    A nd           | Version:  8
     \\/     M anipulation  |
\*---------------------------------------------------------------------------*/
Build  : 8-13d66902f78c
Exec   : simpleFoam
Date   : Jul 05 2021
Time   : 02:33:02
Host   : "uc2n489.localdomain"
PID    : 1006089
I/O    : uncollated
Case   : /pfs/data5/home/kit/scc/nq7776/code/OGL_DATA/airFoil2D/v0.1-136-g40fef35/f584ccac99/TeslaV100-SXM2-32GB/Test_2021-07-05-02:31:50/1/p-IR-GKO-BJ-cuda/airFoil2D
nProcs : 1
sigFpe : Enabling floating point exception trapping (FOAM_SIGFPE).
fileModificationChecking : Monitoring run-time modified files using timeStampMaster (fileModificationSkew 10)
allowSystemOperations : Allowing user-supplied system call operations

// * * * * * * * * * * * * * * * * * * * * * * * * * * * * * * * * * * * * * //
Create time

Create mesh for time = 0


SIMPLE: Convergence criteria found
        p: tolerance 1e-05
        U: tolerance 1e-05
        nuTilda: tolerance 1e-05

Reading field p

Reading field U

Reading/calculating face flux field phi

Selecting incompressible transport model Newtonian
Selecting turbulence model type RAS
Selecting RAS turbulence model SpalartAllmaras
Selecting patchDistMethod meshWave
RAS
{
    model           SpalartAllmaras;
    turbulence      on;
    printCoeffs     on;
    sigmaNut        0.66666;
    kappa           0.41;
    Cb1             0.1355;
    Cb2             0.622;
    Cw2             0.3;
    Cw3             2;
    Cv1             7.1;
    Cs              0.3;
}

No MRF models present

No finite volume options present

Starting time loop

Time = 1

smoothSolver:  Solving for Ux, Initial residual = 1, Final residual = 0.000531638, No Iterations 14
smoothSolver:  Solving for Uy, Initial residual = 1, Final residual = 0.000467931, No Iterations 14
[OGL LOG] init_host_sparsity_pattern : 8 ms
[OGL LOG] matrix not stored update host matrix
[OGL LOG] update_host_mtx : 4 ms
[OGL LOG] matrix is not yet sorted, compute sorting idxs
[OGL LOG] compute_sort : 229 ms
[OGL LOG] matrix is not yet sorted, sorting host matrix
[OGL LOG] sort_host_mtx_sparsity_pattern : 5 ms
[OGL LOG] sort_host_mtx : 3 ms
[OGL LOG] init_preconditioner : 5 ms
[OGL LOG] solve : 449 ms
BJcudaGKOIR:  Solving for p, Initial residual = 1, Final residual = 0.000979121, No Iterations 2
time step continuity errors : sum local = 2.2447e-06, global = -1.1091e-07, cumulative = -1.1091e-07
smoothSolver:  Solving for nuTilda, Initial residual = 1, Final residual = 0.0317384, No Iterations 2
ExecutionTime = 1.77 s  ClockTime = 1 s

Time = 2

smoothSolver:  Solving for Ux, Initial residual = 0.555844, Final residual = 0.000506287, No Iterations 10
smoothSolver:  Solving for Uy, Initial residual = 0.585598, Final residual = 0.000525902, No Iterations 10
[OGL LOG] init_host_sparsity_pattern : 7 ms
[OGL LOG] matrix not stored update host matrix
[OGL LOG] update_host_mtx : 4 ms
[OGL LOG] matrix is not yet sorted, sorting host matrix
[OGL LOG] sort_host_mtx_sparsity_pattern : 5 ms
[OGL LOG] sort_host_mtx : 3 ms
[OGL LOG] init_preconditioner : 0 ms
[OGL LOG] solve : 457 ms
BJcudaGKOIR:  Solving for p, Initial residual = 0.116221, Final residual = 5.99737e-05, No Iterations 2
time step continuity errors : sum local = 4.7953e-06, global = -2.53312e-08, cumulative = -1.36242e-07
smoothSolver:  Solving for nuTilda, Initial residual = 0.0522262, Final residual = 0.00154133, No Iterations 4
ExecutionTime = 2.3 s  ClockTime = 2 s

Time = 3

smoothSolver:  Solving for Ux, Initial residual = 0.167439, Final residual = 0.000155098, No Iterations 10
smoothSolver:  Solving for Uy, Initial residual = 0.136667, Final residual = 0.000123111, No Iterations 10
[OGL LOG] init_host_sparsity_pattern : 8 ms
[OGL LOG] matrix not stored update host matrix
[OGL LOG] update_host_mtx : 4 ms
[OGL LOG] matrix is not yet sorted, sorting host matrix
[OGL LOG] sort_host_mtx_sparsity_pattern : 5 ms
[OGL LOG] sort_host_mtx : 3 ms
[OGL LOG] init_preconditioner : 0 ms
[OGL LOG] solve : 426 ms
BJcudaGKOIR:  Solving for p, Initial residual = 0.0530665, Final residual = 2.90976e-05, No Iterations 2
time step continuity errors : sum local = 1.48678e-06, global = 6.2917e-08, cumulative = -7.33245e-08
smoothSolver:  Solving for nuTilda, Initial residual = 0.0316062, Final residual = 0.0013317, No Iterations 4
ExecutionTime = 2.79 s  ClockTime = 2 s

Time = 4

smoothSolver:  Solving for Ux, Initial residual = 0.0502113, Final residual = 4.27647e-05, No Iterations 10
smoothSolver:  Solving for Uy, Initial residual = 0.0494346, Final residual = 4.25187e-05, No Iterations 10
[OGL LOG] init_host_sparsity_pattern : 8 ms
[OGL LOG] matrix not stored update host matrix
[OGL LOG] update_host_mtx : 4 ms
[OGL LOG] matrix is not yet sorted, sorting host matrix
[OGL LOG] sort_host_mtx_sparsity_pattern : 5 ms
[OGL LOG] sort_host_mtx : 3 ms
[OGL LOG] init_preconditioner : 0 ms
[OGL LOG] solve : 431 ms
BJcudaGKOIR:  Solving for p, Initial residual = 0.176416, Final residual = 5.29771e-05, No Iterations 2
time step continuity errors : sum local = 1.4924e-06, global = 1.68901e-09, cumulative = -7.16355e-08
smoothSolver:  Solving for nuTilda, Initial residual = 0.0258936, Final residual = 0.00107707, No Iterations 4
ExecutionTime = 3.29 s  ClockTime = 3 s

Time = 5

smoothSolver:  Solving for Ux, Initial residual = 0.189496, Final residual = 0.000173006, No Iterations 10
smoothSolver:  Solving for Uy, Initial residual = 0.17356, Final residual = 0.000155187, No Iterations 10
[OGL LOG] init_host_sparsity_pattern : 8 ms
[OGL LOG] matrix not stored update host matrix
[OGL LOG] update_host_mtx : 4 ms
[OGL LOG] matrix is not yet sorted, sorting host matrix
[OGL LOG] sort_host_mtx_sparsity_pattern : 5 ms
[OGL LOG] sort_host_mtx : 3 ms
[OGL LOG] init_preconditioner : 0 ms
[OGL LOG] solve : 424 ms
BJcudaGKOIR:  Solving for p, Initial residual = 0.0808789, Final residual = 3.72622e-05, No Iterations 2
time step continuity errors : sum local = 2.02309e-06, global = -1.20419e-07, cumulative = -1.92055e-07
smoothSolver:  Solving for nuTilda, Initial residual = 0.0213193, Final residual = 0.000885255, No Iterations 4
ExecutionTime = 3.79 s  ClockTime = 3 s

End

