/*---------------------------------------------------------------------------*\
  =========                 |
  \\      /  F ield         | OpenFOAM: The Open Source CFD Toolbox
   \\    /   O peration     | Website:  https://openfoam.org
    \\  /    A nd           | Version:  8
     \\/     M anipulation  |
\*---------------------------------------------------------------------------*/
Build  : 8-13d66902f78c
Exec   : simpleFoam
Date   : Jul 05 2021
Time   : 02:00:56
Host   : "uc2n489.localdomain"
PID    : 976909
I/O    : uncollated
Case   : /pfs/data5/home/kit/scc/nq7776/code/OGL_DATA/airFoil2D/v0.1-136-g40fef35/f584ccac99/TeslaV100-SXM2-32GB/Test_2021-07-05-01:58:23/2/p-BiCGStab-GKO-none-cuda/airFoil2D
nProcs : 1
sigFpe : Enabling floating point exception trapping (FOAM_SIGFPE).
fileModificationChecking : Monitoring run-time modified files using timeStampMaster (fileModificationSkew 10)
allowSystemOperations : Allowing user-supplied system call operations

// * * * * * * * * * * * * * * * * * * * * * * * * * * * * * * * * * * * * * //
Create time

Create mesh for time = 0


SIMPLE: Convergence criteria found
        p: tolerance 1e-05
        U: tolerance 1e-05
        nuTilda: tolerance 1e-05

Reading field p

Reading field U

Reading/calculating face flux field phi

Selecting incompressible transport model Newtonian
Selecting turbulence model type RAS
Selecting RAS turbulence model SpalartAllmaras
Selecting patchDistMethod meshWave
RAS
{
    model           SpalartAllmaras;
    turbulence      on;
    printCoeffs     on;
    sigmaNut        0.66666;
    kappa           0.41;
    Cb1             0.1355;
    Cb2             0.622;
    Cw2             0.3;
    Cw3             2;
    Cv1             7.1;
    Cs              0.3;
}

No MRF models present

No finite volume options present

Starting time loop

Time = 1

smoothSolver:  Solving for Ux, Initial residual = 1, Final residual = 0.000411552, No Iterations 14
smoothSolver:  Solving for Uy, Initial residual = 1, Final residual = 0.000303455, No Iterations 14
[OGL LOG] init_host_sparsity_pattern : 35 ms
[OGL LOG] matrix not stored update host matrix
[OGL LOG] update_host_mtx : 18 ms
[OGL LOG] matrix is not yet sorted, compute sorting idxs
[OGL LOG] compute_sort : 1057 ms
[OGL LOG] matrix is not yet sorted, sorting host matrix
[OGL LOG] sort_host_mtx_sparsity_pattern : 24 ms
[OGL LOG] sort_host_mtx : 13 ms
[OGL LOG] init_preconditioner : 0 ms
[OGL LOG] solve : 646 ms
nonecudaGKOBiCGStab:  Solving for p, Initial residual = 1, Final residual = 0.930466, No Iterations 1000
time step continuity errors : sum local = 0.00179392, global = -3.42988e-07, cumulative = -3.42988e-07
smoothSolver:  Solving for nuTilda, Initial residual = 1, Final residual = 0.0319698, No Iterations 2
ExecutionTime = 3.8 s  ClockTime = 4 s

Time = 2

smoothSolver:  Solving for Ux, Initial residual = 0.406047, Final residual = 0.000377328, No Iterations 10
smoothSolver:  Solving for Uy, Initial residual = 0.377152, Final residual = 0.000353001, No Iterations 10
[OGL LOG] init_host_sparsity_pattern : 32 ms
[OGL LOG] matrix not stored update host matrix
[OGL LOG] update_host_mtx : 16 ms
[OGL LOG] matrix is not yet sorted, sorting host matrix
[OGL LOG] sort_host_mtx_sparsity_pattern : 25 ms
[OGL LOG] sort_host_mtx : 13 ms
[OGL LOG] init_preconditioner : 0 ms
[OGL LOG] solve : 647 ms
nonecudaGKOBiCGStab:  Solving for p, Initial residual = 1.70771, Final residual = 0.177791, No Iterations 1000
time step continuity errors : sum local = 0.00116269, global = -0.000473082, cumulative = -0.000473425
smoothSolver:  Solving for nuTilda, Initial residual = 0.0628257, Final residual = 0.00144443, No Iterations 4
ExecutionTime = 4.76 s  ClockTime = 4 s

Time = 3

smoothSolver:  Solving for Ux, Initial residual = 0.215957, Final residual = 0.000204483, No Iterations 10
smoothSolver:  Solving for Uy, Initial residual = 0.161244, Final residual = 0.000154593, No Iterations 10
[OGL LOG] init_host_sparsity_pattern : 33 ms
[OGL LOG] matrix not stored update host matrix
[OGL LOG] update_host_mtx : 16 ms
[OGL LOG] matrix is not yet sorted, sorting host matrix
[OGL LOG] sort_host_mtx_sparsity_pattern : 22 ms
[OGL LOG] sort_host_mtx : 13 ms
[OGL LOG] init_preconditioner : 0 ms
[OGL LOG] solve : 660 ms
nonecudaGKOBiCGStab:  Solving for p, Initial residual = 0.446637, Final residual = 0.093715, No Iterations 1000
time step continuity errors : sum local = 0.00124343, global = -0.000821539, cumulative = -0.00129496
smoothSolver:  Solving for nuTilda, Initial residual = 0.0257444, Final residual = 0.0011475, No Iterations 4
ExecutionTime = 5.72 s  ClockTime = 5 s

Time = 4

smoothSolver:  Solving for Ux, Initial residual = 0.184856, Final residual = 0.000175419, No Iterations 10
smoothSolver:  Solving for Uy, Initial residual = 0.14013, Final residual = 0.000134471, No Iterations 10
[OGL LOG] init_host_sparsity_pattern : 32 ms
[OGL LOG] matrix not stored update host matrix
[OGL LOG] update_host_mtx : 16 ms
[OGL LOG] matrix is not yet sorted, sorting host matrix
[OGL LOG] sort_host_mtx_sparsity_pattern : 21 ms
[OGL LOG] sort_host_mtx : 13 ms
[OGL LOG] init_preconditioner : 0 ms
[OGL LOG] solve : 654 ms
nonecudaGKOBiCGStab:  Solving for p, Initial residual = 0.112353, Final residual = 0.0191798, No Iterations 1000
time step continuity errors : sum local = 0.00140951, global = 3.66041e-05, cumulative = -0.00125836
smoothSolver:  Solving for nuTilda, Initial residual = 0.0199941, Final residual = 0.00102875, No Iterations 4
ExecutionTime = 6.68 s  ClockTime = 6 s

Time = 5

smoothSolver:  Solving for Ux, Initial residual = 0.170473, Final residual = 0.000164637, No Iterations 10
smoothSolver:  Solving for Uy, Initial residual = 0.155631, Final residual = 0.000150891, No Iterations 10
[OGL LOG] init_host_sparsity_pattern : 32 ms
[OGL LOG] matrix not stored update host matrix
[OGL LOG] update_host_mtx : 16 ms
[OGL LOG] matrix is not yet sorted, sorting host matrix
[OGL LOG] sort_host_mtx_sparsity_pattern : 22 ms
[OGL LOG] sort_host_mtx : 13 ms
[OGL LOG] init_preconditioner : 0 ms
[OGL LOG] solve : 650 ms
nonecudaGKOBiCGStab:  Solving for p, Initial residual = 0.0570222, Final residual = 0.0086602, No Iterations 1000
time step continuity errors : sum local = 0.00153742, global = 0.000747498, cumulative = -0.000510862
smoothSolver:  Solving for nuTilda, Initial residual = 0.0162339, Final residual = 0.000900975, No Iterations 4
ExecutionTime = 7.65 s  ClockTime = 7 s

End

