/*---------------------------------------------------------------------------*\
  =========                 |
  \\      /  F ield         | OpenFOAM: The Open Source CFD Toolbox
   \\    /   O peration     | Website:  https://openfoam.org
    \\  /    A nd           | Version:  8
     \\/     M anipulation  |
\*---------------------------------------------------------------------------*/
Build  : 8-13d66902f78c
Exec   : simpleFoam
Date   : Jul 05 2021
Time   : 02:19:11
Host   : "uc2n489.localdomain"
PID    : 991710
I/O    : uncollated
Case   : /pfs/data5/home/kit/scc/nq7776/code/OGL_DATA/airFoil2D/v0.1-136-g40fef35/f584ccac99/TeslaV100-SXM2-32GB/Test_2021-07-05-02:16:43/2/p-CG-GKO-BJ-cuda/airFoil2D
nProcs : 1
sigFpe : Enabling floating point exception trapping (FOAM_SIGFPE).
fileModificationChecking : Monitoring run-time modified files using timeStampMaster (fileModificationSkew 10)
allowSystemOperations : Allowing user-supplied system call operations

// * * * * * * * * * * * * * * * * * * * * * * * * * * * * * * * * * * * * * //
Create time

Create mesh for time = 0


SIMPLE: Convergence criteria found
        p: tolerance 1e-05
        U: tolerance 1e-05
        nuTilda: tolerance 1e-05

Reading field p

Reading field U

Reading/calculating face flux field phi

Selecting incompressible transport model Newtonian
Selecting turbulence model type RAS
Selecting RAS turbulence model SpalartAllmaras
Selecting patchDistMethod meshWave
RAS
{
    model           SpalartAllmaras;
    turbulence      on;
    printCoeffs     on;
    sigmaNut        0.66666;
    kappa           0.41;
    Cb1             0.1355;
    Cb2             0.622;
    Cw2             0.3;
    Cw3             2;
    Cv1             7.1;
    Cs              0.3;
}

No MRF models present

No finite volume options present

Starting time loop

Time = 1

smoothSolver:  Solving for Ux, Initial residual = 1, Final residual = 0.000411552, No Iterations 14
smoothSolver:  Solving for Uy, Initial residual = 1, Final residual = 0.000303455, No Iterations 14
[OGL LOG] init_host_sparsity_pattern : 35 ms
[OGL LOG] matrix not stored update host matrix
[OGL LOG] update_host_mtx : 18 ms
[OGL LOG] matrix is not yet sorted, compute sorting idxs
[OGL LOG] compute_sort : 1042 ms
[OGL LOG] matrix is not yet sorted, sorting host matrix
[OGL LOG] sort_host_mtx_sparsity_pattern : 28 ms
[OGL LOG] sort_host_mtx : 13 ms
[OGL LOG] init_preconditioner : 18 ms
 CG create  precond 
[OGL LOG] solve : 338 ms
BJcudaGKOCG:  Solving for p, Initial residual = 1, Final residual = 0.200953, No Iterations 1000
time step continuity errors : sum local = 0.000387433, global = 2.0418e-05, cumulative = 2.0418e-05
smoothSolver:  Solving for nuTilda, Initial residual = 1, Final residual = 0.0325191, No Iterations 2
ExecutionTime = 3.51 s  ClockTime = 4 s

Time = 2

smoothSolver:  Solving for Ux, Initial residual = 0.595998, Final residual = 0.000576721, No Iterations 10
smoothSolver:  Solving for Uy, Initial residual = 0.586789, Final residual = 0.000568924, No Iterations 10
[OGL LOG] init_host_sparsity_pattern : 33 ms
[OGL LOG] matrix not stored update host matrix
[OGL LOG] update_host_mtx : 16 ms
[OGL LOG] matrix is not yet sorted, sorting host matrix
[OGL LOG] sort_host_mtx_sparsity_pattern : 21 ms
[OGL LOG] sort_host_mtx : 13 ms
[OGL LOG] init_preconditioner : 0 ms
 CG create  precond 
[OGL LOG] solve : 357 ms
BJcudaGKOCG:  Solving for p, Initial residual = 0.0664366, Final residual = 0.0106137, No Iterations 1000
time step continuity errors : sum local = 0.00176131, global = -9.95088e-05, cumulative = -7.90909e-05
smoothSolver:  Solving for nuTilda, Initial residual = 0.0651988, Final residual = 0.00168914, No Iterations 4
ExecutionTime = 4.18 s  ClockTime = 5 s

Time = 3

smoothSolver:  Solving for Ux, Initial residual = 0.176205, Final residual = 0.000170437, No Iterations 10
smoothSolver:  Solving for Uy, Initial residual = 0.138165, Final residual = 0.000133882, No Iterations 10
[OGL LOG] init_host_sparsity_pattern : 32 ms
[OGL LOG] matrix not stored update host matrix
[OGL LOG] update_host_mtx : 15 ms
[OGL LOG] matrix is not yet sorted, sorting host matrix
[OGL LOG] sort_host_mtx_sparsity_pattern : 22 ms
[OGL LOG] sort_host_mtx : 13 ms
[OGL LOG] init_preconditioner : 0 ms
 CG create  precond 
[OGL LOG] solve : 354 ms
BJcudaGKOCG:  Solving for p, Initial residual = 0.0500599, Final residual = 0.014583, No Iterations 1000
time step continuity errors : sum local = 0.00148074, global = -0.000140866, cumulative = -0.000219957
smoothSolver:  Solving for nuTilda, Initial residual = 0.027357, Final residual = 0.00122158, No Iterations 4
ExecutionTime = 4.84 s  ClockTime = 5 s

Time = 4

smoothSolver:  Solving for Ux, Initial residual = 0.0643775, Final residual = 6.05023e-05, No Iterations 10
smoothSolver:  Solving for Uy, Initial residual = 0.0533976, Final residual = 5.05414e-05, No Iterations 10
[OGL LOG] init_host_sparsity_pattern : 32 ms
[OGL LOG] matrix not stored update host matrix
[OGL LOG] update_host_mtx : 16 ms
[OGL LOG] matrix is not yet sorted, sorting host matrix
[OGL LOG] sort_host_mtx_sparsity_pattern : 21 ms
[OGL LOG] sort_host_mtx : 13 ms
[OGL LOG] init_preconditioner : 0 ms
 CG create  precond 
[OGL LOG] solve : 358 ms
BJcudaGKOCG:  Solving for p, Initial residual = 0.124208, Final residual = 0.0198591, No Iterations 1000
time step continuity errors : sum local = 0.00122613, global = -6.70212e-05, cumulative = -0.000286978
smoothSolver:  Solving for nuTilda, Initial residual = 0.0193352, Final residual = 0.000922362, No Iterations 4
ExecutionTime = 5.51 s  ClockTime = 6 s

Time = 5

smoothSolver:  Solving for Ux, Initial residual = 0.223828, Final residual = 0.00021583, No Iterations 10
smoothSolver:  Solving for Uy, Initial residual = 0.180176, Final residual = 0.00017413, No Iterations 10
[OGL LOG] init_host_sparsity_pattern : 32 ms
[OGL LOG] matrix not stored update host matrix
[OGL LOG] update_host_mtx : 16 ms
[OGL LOG] matrix is not yet sorted, sorting host matrix
[OGL LOG] sort_host_mtx_sparsity_pattern : 22 ms
[OGL LOG] sort_host_mtx : 14 ms
[OGL LOG] init_preconditioner : 0 ms
 CG create  precond 
[OGL LOG] solve : 353 ms
BJcudaGKOCG:  Solving for p, Initial residual = 0.0561929, Final residual = 0.0229166, No Iterations 1000
time step continuity errors : sum local = 0.00260121, global = 4.20579e-05, cumulative = -0.00024492
smoothSolver:  Solving for nuTilda, Initial residual = 0.0144218, Final residual = 0.000712876, No Iterations 4
ExecutionTime = 6.19 s  ClockTime = 7 s

End

