/*---------------------------------------------------------------------------*\
  =========                 |
  \\      /  F ield         | OpenFOAM: The Open Source CFD Toolbox
   \\    /   O peration     | Website:  https://openfoam.org
    \\  /    A nd           | Version:  8
     \\/     M anipulation  |
\*---------------------------------------------------------------------------*/
Build  : 8-13d66902f78c
Exec   : simpleFoam
Date   : Jul 05 2021
Time   : 03:09:02
Host   : "uc2n489.localdomain"
PID    : 1042135
I/O    : uncollated
Case   : /pfs/data5/home/kit/scc/nq7776/code/OGL_DATA/airFoil2D/v0.1-136-g40fef35/f584ccac99/TeslaV100-SXM2-32GB/Test_2021-07-05-03:06:33/2/p-U-BiCGStab-GKO-BJ-cuda/airFoil2D
nProcs : 1
sigFpe : Enabling floating point exception trapping (FOAM_SIGFPE).
fileModificationChecking : Monitoring run-time modified files using timeStampMaster (fileModificationSkew 10)
allowSystemOperations : Allowing user-supplied system call operations

// * * * * * * * * * * * * * * * * * * * * * * * * * * * * * * * * * * * * * //
Create time

Create mesh for time = 0


SIMPLE: Convergence criteria found
        p: tolerance 1e-05
        U: tolerance 1e-05
        nuTilda: tolerance 1e-05

Reading field p

Reading field U

Reading/calculating face flux field phi

Selecting incompressible transport model Newtonian
Selecting turbulence model type RAS
Selecting RAS turbulence model SpalartAllmaras
Selecting patchDistMethod meshWave
RAS
{
    model           SpalartAllmaras;
    turbulence      on;
    printCoeffs     on;
    sigmaNut        0.66666;
    kappa           0.41;
    Cb1             0.1355;
    Cb2             0.622;
    Cw2             0.3;
    Cw3             2;
    Cv1             7.1;
    Cs              0.3;
}

No MRF models present

No finite volume options present

Starting time loop

Time = 1

[OGL LOG] init_host_sparsity_pattern : 34 ms
[OGL LOG] matrix not stored update host matrix
[OGL LOG] update_host_mtx : 18 ms
[OGL LOG] matrix is not yet sorted, compute sorting idxs
[OGL LOG] compute_sort : 1032 ms
[OGL LOG] matrix is not yet sorted, sorting host matrix
[OGL LOG] sort_host_mtx_sparsity_pattern : 23 ms
[OGL LOG] sort_host_mtx : 12 ms
[OGL LOG] init_preconditioner : 18 ms
[OGL LOG] solve : 12 ms
BJcudaGKOBiCGStab:  Solving for Ux, Initial residual = 130.613, Final residual = 0.127943, No Iterations 9
[OGL LOG] init_host_sparsity_pattern : 32 ms
[OGL LOG] matrix not stored update host matrix
[OGL LOG] update_host_mtx : 15 ms
[OGL LOG] matrix is not yet sorted, sorting host matrix
[OGL LOG] sort_host_mtx_sparsity_pattern : 23 ms
[OGL LOG] sort_host_mtx : 12 ms
[OGL LOG] init_preconditioner : 18 ms
[OGL LOG] solve : 12 ms
BJcudaGKOBiCGStab:  Solving for Uy, Initial residual = 134.003, Final residual = 0.131197, No Iterations 9
[OGL LOG] init_host_sparsity_pattern : 32 ms
[OGL LOG] matrix not stored update host matrix
[OGL LOG] update_host_mtx : 15 ms
[OGL LOG] matrix is not yet sorted, sorting host matrix
[OGL LOG] sort_host_mtx_sparsity_pattern : 21 ms
[OGL LOG] sort_host_mtx : 12 ms
[OGL LOG] init_preconditioner : 18 ms
[OGL LOG] solve : 575 ms
BJcudaGKOBiCGStab:  Solving for p, Initial residual = 1, Final residual = 0.000902109, No Iterations 824
time step continuity errors : sum local = 5.45385e-05, global = 1.08661e-06, cumulative = 1.08661e-06
smoothSolver:  Solving for nuTilda, Initial residual = 1, Final residual = 0.0424291, No Iterations 2
ExecutionTime = 3.93 s  ClockTime = 4 s

Time = 2

[OGL LOG] init_host_sparsity_pattern : 32 ms
[OGL LOG] matrix not stored update host matrix
[OGL LOG] update_host_mtx : 15 ms
[OGL LOG] matrix is not yet sorted, sorting host matrix
[OGL LOG] sort_host_mtx_sparsity_pattern : 21 ms
[OGL LOG] sort_host_mtx : 12 ms
[OGL LOG] init_preconditioner : 0 ms
[OGL LOG] solve : 11 ms
BJcudaGKOBiCGStab:  Solving for Ux, Initial residual = 0.602194, Final residual = 0.000538395, No Iterations 11
[OGL LOG] init_host_sparsity_pattern : 32 ms
[OGL LOG] matrix not stored update host matrix
[OGL LOG] update_host_mtx : 15 ms
[OGL LOG] matrix is not yet sorted, sorting host matrix
[OGL LOG] sort_host_mtx_sparsity_pattern : 21 ms
[OGL LOG] sort_host_mtx : 12 ms
[OGL LOG] init_preconditioner : 0 ms
[OGL LOG] solve : 11 ms
BJcudaGKOBiCGStab:  Solving for Uy, Initial residual = 0.724575, Final residual = 0.000568851, No Iterations 11
[OGL LOG] init_host_sparsity_pattern : 32 ms
[OGL LOG] matrix not stored update host matrix
[OGL LOG] update_host_mtx : 15 ms
[OGL LOG] matrix is not yet sorted, sorting host matrix
[OGL LOG] sort_host_mtx_sparsity_pattern : 21 ms
[OGL LOG] sort_host_mtx : 13 ms
[OGL LOG] init_preconditioner : 0 ms
[OGL LOG] solve : 702 ms
BJcudaGKOBiCGStab:  Solving for p, Initial residual = 0.146119, Final residual = 0.00078556, No Iterations 1000
time step continuity errors : sum local = 0.000209929, global = -2.72193e-05, cumulative = -2.61327e-05
smoothSolver:  Solving for nuTilda, Initial residual = 0.0990678, Final residual = 0.00378357, No Iterations 4
ExecutionTime = 5.11 s  ClockTime = 5 s

Time = 3

[OGL LOG] init_host_sparsity_pattern : 32 ms
[OGL LOG] matrix not stored update host matrix
[OGL LOG] update_host_mtx : 15 ms
[OGL LOG] matrix is not yet sorted, sorting host matrix
[OGL LOG] sort_host_mtx_sparsity_pattern : 21 ms
[OGL LOG] sort_host_mtx : 12 ms
[OGL LOG] init_preconditioner : 0 ms
[OGL LOG] solve : 11 ms
BJcudaGKOBiCGStab:  Solving for Ux, Initial residual = 0.232952, Final residual = 0.000199287, No Iterations 11
[OGL LOG] init_host_sparsity_pattern : 32 ms
[OGL LOG] matrix not stored update host matrix
[OGL LOG] update_host_mtx : 15 ms
[OGL LOG] matrix is not yet sorted, sorting host matrix
[OGL LOG] sort_host_mtx_sparsity_pattern : 21 ms
[OGL LOG] sort_host_mtx : 12 ms
[OGL LOG] init_preconditioner : 0 ms
[OGL LOG] solve : 10 ms
BJcudaGKOBiCGStab:  Solving for Uy, Initial residual = 0.16569, Final residual = 0.000119507, No Iterations 11
[OGL LOG] init_host_sparsity_pattern : 32 ms
[OGL LOG] matrix not stored update host matrix
[OGL LOG] update_host_mtx : 15 ms
[OGL LOG] matrix is not yet sorted, sorting host matrix
[OGL LOG] sort_host_mtx_sparsity_pattern : 21 ms
[OGL LOG] sort_host_mtx : 13 ms
[OGL LOG] init_preconditioner : 0 ms
[OGL LOG] solve : 700 ms
BJcudaGKOBiCGStab:  Solving for p, Initial residual = 0.101694, Final residual = 0.000466957, No Iterations 1000
time step continuity errors : sum local = 0.000116369, global = 8.07198e-05, cumulative = 5.45871e-05
smoothSolver:  Solving for nuTilda, Initial residual = 0.0702861, Final residual = 0.00340051, No Iterations 4
ExecutionTime = 6.29 s  ClockTime = 7 s

Time = 4

[OGL LOG] init_host_sparsity_pattern : 32 ms
[OGL LOG] matrix not stored update host matrix
[OGL LOG] update_host_mtx : 15 ms
[OGL LOG] matrix is not yet sorted, sorting host matrix
[OGL LOG] sort_host_mtx_sparsity_pattern : 21 ms
[OGL LOG] sort_host_mtx : 12 ms
[OGL LOG] init_preconditioner : 0 ms
[OGL LOG] solve : 11 ms
BJcudaGKOBiCGStab:  Solving for Ux, Initial residual = 0.178118, Final residual = 0.000121766, No Iterations 12
[OGL LOG] init_host_sparsity_pattern : 32 ms
[OGL LOG] matrix not stored update host matrix
[OGL LOG] update_host_mtx : 15 ms
[OGL LOG] matrix is not yet sorted, sorting host matrix
[OGL LOG] sort_host_mtx_sparsity_pattern : 21 ms
[OGL LOG] sort_host_mtx : 12 ms
[OGL LOG] init_preconditioner : 0 ms
[OGL LOG] solve : 10 ms
BJcudaGKOBiCGStab:  Solving for Uy, Initial residual = 0.133639, Final residual = 0.000100181, No Iterations 11
[OGL LOG] init_host_sparsity_pattern : 32 ms
[OGL LOG] matrix not stored update host matrix
[OGL LOG] update_host_mtx : 15 ms
[OGL LOG] matrix is not yet sorted, sorting host matrix
[OGL LOG] sort_host_mtx_sparsity_pattern : 21 ms
[OGL LOG] sort_host_mtx : 13 ms
[OGL LOG] init_preconditioner : 0 ms
[OGL LOG] solve : 695 ms
BJcudaGKOBiCGStab:  Solving for p, Initial residual = 0.276987, Final residual = 0.00225666, No Iterations 1000
time step continuity errors : sum local = 0.000228067, global = 0.000139072, cumulative = 0.000193659
smoothSolver:  Solving for nuTilda, Initial residual = 0.0652189, Final residual = 0.00322132, No Iterations 4
ExecutionTime = 7.44 s  ClockTime = 8 s

Time = 5

[OGL LOG] init_host_sparsity_pattern : 32 ms
[OGL LOG] matrix not stored update host matrix
[OGL LOG] update_host_mtx : 15 ms
[OGL LOG] matrix is not yet sorted, sorting host matrix
[OGL LOG] sort_host_mtx_sparsity_pattern : 22 ms
[OGL LOG] sort_host_mtx : 13 ms
[OGL LOG] init_preconditioner : 0 ms
[OGL LOG] solve : 11 ms
BJcudaGKOBiCGStab:  Solving for Ux, Initial residual = 0.215674, Final residual = 0.000183872, No Iterations 11
[OGL LOG] init_host_sparsity_pattern : 32 ms
[OGL LOG] matrix not stored update host matrix
[OGL LOG] update_host_mtx : 15 ms
[OGL LOG] matrix is not yet sorted, sorting host matrix
[OGL LOG] sort_host_mtx_sparsity_pattern : 21 ms
[OGL LOG] sort_host_mtx : 13 ms
[OGL LOG] init_preconditioner : 0 ms
[OGL LOG] solve : 11 ms
BJcudaGKOBiCGStab:  Solving for Uy, Initial residual = 0.186655, Final residual = 0.000103203, No Iterations 11
[OGL LOG] init_host_sparsity_pattern : 32 ms
[OGL LOG] matrix not stored update host matrix
[OGL LOG] update_host_mtx : 15 ms
[OGL LOG] matrix is not yet sorted, sorting host matrix
[OGL LOG] sort_host_mtx_sparsity_pattern : 21 ms
[OGL LOG] sort_host_mtx : 13 ms
[OGL LOG] init_preconditioner : 0 ms
[OGL LOG] solve : 730 ms
BJcudaGKOBiCGStab:  Solving for p, Initial residual = 0.149821, Final residual = 0.00141619, No Iterations 1000
time step continuity errors : sum local = 0.000249315, global = 0.000112278, cumulative = 0.000305937
smoothSolver:  Solving for nuTilda, Initial residual = 0.0619399, Final residual = 0.0030641, No Iterations 4
ExecutionTime = 8.66 s  ClockTime = 9 s

End

