/*---------------------------------------------------------------------------*\
  =========                 |
  \\      /  F ield         | OpenFOAM: The Open Source CFD Toolbox
   \\    /   O peration     | Website:  https://openfoam.org
    \\  /    A nd           | Version:  8
     \\/     M anipulation  |
\*---------------------------------------------------------------------------*/
Build  : 8-13d66902f78c
Exec   : simpleFoam
Date   : Jul 05 2021
Time   : 02:21:30
Host   : "uc2n489.localdomain"
PID    : 992040
I/O    : uncollated
Case   : /pfs/data5/home/kit/scc/nq7776/code/OGL_DATA/airFoil2D/v0.1-136-g40fef35/f584ccac99/TeslaV100-SXM2-32GB/Test_2021-07-05-02:16:43/3/p-CG-GKO-BJ-cuda/airFoil2D
nProcs : 1
sigFpe : Enabling floating point exception trapping (FOAM_SIGFPE).
fileModificationChecking : Monitoring run-time modified files using timeStampMaster (fileModificationSkew 10)
allowSystemOperations : Allowing user-supplied system call operations

// * * * * * * * * * * * * * * * * * * * * * * * * * * * * * * * * * * * * * //
Create time

Create mesh for time = 0


SIMPLE: Convergence criteria found
        p: tolerance 1e-05
        U: tolerance 1e-05
        nuTilda: tolerance 1e-05

Reading field p

Reading field U

Reading/calculating face flux field phi

Selecting incompressible transport model Newtonian
Selecting turbulence model type RAS
Selecting RAS turbulence model SpalartAllmaras
Selecting patchDistMethod meshWave
RAS
{
    model           SpalartAllmaras;
    turbulence      on;
    printCoeffs     on;
    sigmaNut        0.66666;
    kappa           0.41;
    Cb1             0.1355;
    Cb2             0.622;
    Cw2             0.3;
    Cw3             2;
    Cv1             7.1;
    Cs              0.3;
}

No MRF models present

No finite volume options present

Starting time loop

Time = 1

smoothSolver:  Solving for Ux, Initial residual = 1, Final residual = 0.000579349, No Iterations 12
smoothSolver:  Solving for Uy, Initial residual = 0.999999, Final residual = 0.000271884, No Iterations 12
[OGL LOG] init_host_sparsity_pattern : 141 ms
[OGL LOG] matrix not stored update host matrix
[OGL LOG] update_host_mtx : 74 ms
[OGL LOG] matrix is not yet sorted, compute sorting idxs
[OGL LOG] compute_sort : 4625 ms
[OGL LOG] matrix is not yet sorted, sorting host matrix
[OGL LOG] sort_host_mtx_sparsity_pattern : 102 ms
[OGL LOG] sort_host_mtx : 59 ms
[OGL LOG] init_preconditioner : 75 ms
 CG create  precond 
[OGL LOG] solve : 963 ms
BJcudaGKOCG:  Solving for p, Initial residual = 1, Final residual = 2.17025, No Iterations 1000
time step continuity errors : sum local = 0.00421076, global = 0.000175642, cumulative = 0.000175642
smoothSolver:  Solving for nuTilda, Initial residual = 1, Final residual = 0.0310671, No Iterations 2
ExecutionTime = 12.22 s  ClockTime = 13 s

Time = 2

smoothSolver:  Solving for Ux, Initial residual = 0.596795, Final residual = 0.00014794, No Iterations 12
smoothSolver:  Solving for Uy, Initial residual = 0.572115, Final residual = 0.000141775, No Iterations 12
[OGL LOG] init_host_sparsity_pattern : 130 ms
[OGL LOG] matrix not stored update host matrix
[OGL LOG] update_host_mtx : 64 ms
[OGL LOG] matrix is not yet sorted, sorting host matrix
[OGL LOG] sort_host_mtx_sparsity_pattern : 108 ms
[OGL LOG] sort_host_mtx : 54 ms
[OGL LOG] init_preconditioner : 0 ms
 CG create  precond 
[OGL LOG] solve : 949 ms
BJcudaGKOCG:  Solving for p, Initial residual = 0.0482112, Final residual = 0.0297129, No Iterations 1000
time step continuity errors : sum local = 0.0114167, global = 0.000125474, cumulative = 0.000301116
smoothSolver:  Solving for nuTilda, Initial residual = 0.0993238, Final residual = 0.00196347, No Iterations 4
ExecutionTime = 14.69 s  ClockTime = 15 s

Time = 3

smoothSolver:  Solving for Ux, Initial residual = 0.21217, Final residual = 5.36361e-05, No Iterations 12
smoothSolver:  Solving for Uy, Initial residual = 0.18617, Final residual = 4.71503e-05, No Iterations 12
[OGL LOG] init_host_sparsity_pattern : 130 ms
[OGL LOG] matrix not stored update host matrix
[OGL LOG] update_host_mtx : 68 ms
[OGL LOG] matrix is not yet sorted, sorting host matrix
[OGL LOG] sort_host_mtx_sparsity_pattern : 97 ms
[OGL LOG] sort_host_mtx : 60 ms
[OGL LOG] init_preconditioner : 0 ms
 CG create  precond 
[OGL LOG] solve : 955 ms
BJcudaGKOCG:  Solving for p, Initial residual = 0.0774615, Final residual = 0.0498213, No Iterations 1000
time step continuity errors : sum local = 0.0118173, global = -0.000107001, cumulative = 0.000194114
smoothSolver:  Solving for nuTilda, Initial residual = 0.0357842, Final residual = 0.00169408, No Iterations 4
ExecutionTime = 17.16 s  ClockTime = 18 s

Time = 4

smoothSolver:  Solving for Ux, Initial residual = 0.0922555, Final residual = 9.17202e-05, No Iterations 10
smoothSolver:  Solving for Uy, Initial residual = 0.0866099, Final residual = 2.15558e-05, No Iterations 12
[OGL LOG] init_host_sparsity_pattern : 130 ms
[OGL LOG] matrix not stored update host matrix
[OGL LOG] update_host_mtx : 67 ms
[OGL LOG] matrix is not yet sorted, sorting host matrix
[OGL LOG] sort_host_mtx_sparsity_pattern : 96 ms
[OGL LOG] sort_host_mtx : 59 ms
[OGL LOG] init_preconditioner : 0 ms
 CG create  precond 
[OGL LOG] solve : 950 ms
BJcudaGKOCG:  Solving for p, Initial residual = 0.142549, Final residual = 0.0426089, No Iterations 1000
time step continuity errors : sum local = 0.00701131, global = -0.000311604, cumulative = -0.00011749
smoothSolver:  Solving for nuTilda, Initial residual = 0.0257755, Final residual = 0.0013162, No Iterations 4
ExecutionTime = 19.64 s  ClockTime = 20 s

Time = 5

smoothSolver:  Solving for Ux, Initial residual = 0.255801, Final residual = 6.47639e-05, No Iterations 12
smoothSolver:  Solving for Uy, Initial residual = 0.237057, Final residual = 5.96264e-05, No Iterations 12
[OGL LOG] init_host_sparsity_pattern : 130 ms
[OGL LOG] matrix not stored update host matrix
[OGL LOG] update_host_mtx : 67 ms
[OGL LOG] matrix is not yet sorted, sorting host matrix
[OGL LOG] sort_host_mtx_sparsity_pattern : 95 ms
[OGL LOG] sort_host_mtx : 59 ms
[OGL LOG] init_preconditioner : 0 ms
 CG create  precond 
[OGL LOG] solve : 949 ms
BJcudaGKOCG:  Solving for p, Initial residual = 0.0708198, Final residual = 0.0427924, No Iterations 1000
time step continuity errors : sum local = 0.0116267, global = -0.000370297, cumulative = -0.000487786
smoothSolver:  Solving for nuTilda, Initial residual = 0.0198272, Final residual = 0.00104799, No Iterations 4
ExecutionTime = 22.14 s  ClockTime = 23 s

End

