/*---------------------------------------------------------------------------*\
  =========                 |
  \\      /  F ield         | OpenFOAM: The Open Source CFD Toolbox
   \\    /   O peration     | Website:  https://openfoam.org
    \\  /    A nd           | Version:  8
     \\/     M anipulation  |
\*---------------------------------------------------------------------------*/
Build  : 8-13d66902f78c
Exec   : simpleFoam
Date   : Jul 05 2021
Time   : 02:03:14
Host   : "uc2n489.localdomain"
PID    : 977180
I/O    : uncollated
Case   : /pfs/data5/home/kit/scc/nq7776/code/OGL_DATA/airFoil2D/v0.1-136-g40fef35/f584ccac99/TeslaV100-SXM2-32GB/Test_2021-07-05-01:58:23/3/p-BiCGStab-GKO-none-cuda/airFoil2D
nProcs : 1
sigFpe : Enabling floating point exception trapping (FOAM_SIGFPE).
fileModificationChecking : Monitoring run-time modified files using timeStampMaster (fileModificationSkew 10)
allowSystemOperations : Allowing user-supplied system call operations

// * * * * * * * * * * * * * * * * * * * * * * * * * * * * * * * * * * * * * //
Create time

Create mesh for time = 0


SIMPLE: Convergence criteria found
        p: tolerance 1e-05
        U: tolerance 1e-05
        nuTilda: tolerance 1e-05

Reading field p

Reading field U

Reading/calculating face flux field phi

Selecting incompressible transport model Newtonian
Selecting turbulence model type RAS
Selecting RAS turbulence model SpalartAllmaras
Selecting patchDistMethod meshWave
RAS
{
    model           SpalartAllmaras;
    turbulence      on;
    printCoeffs     on;
    sigmaNut        0.66666;
    kappa           0.41;
    Cb1             0.1355;
    Cb2             0.622;
    Cw2             0.3;
    Cw3             2;
    Cv1             7.1;
    Cs              0.3;
}

No MRF models present

No finite volume options present

Starting time loop

Time = 1

smoothSolver:  Solving for Ux, Initial residual = 1, Final residual = 0.000579349, No Iterations 12
smoothSolver:  Solving for Uy, Initial residual = 0.999999, Final residual = 0.000271884, No Iterations 12
[OGL LOG] init_host_sparsity_pattern : 138 ms
[OGL LOG] matrix not stored update host matrix
[OGL LOG] update_host_mtx : 72 ms
[OGL LOG] matrix is not yet sorted, compute sorting idxs
[OGL LOG] compute_sort : 4575 ms
[OGL LOG] matrix is not yet sorted, sorting host matrix
[OGL LOG] sort_host_mtx_sparsity_pattern : 100 ms
[OGL LOG] sort_host_mtx : 59 ms
[OGL LOG] init_preconditioner : 0 ms
[OGL LOG] solve : 1711 ms
nonecudaGKOBiCGStab:  Solving for p, Initial residual = 1, Final residual = 1.00128, No Iterations 1000
time step continuity errors : sum local = 0.00194269, global = 2.65563e-10, cumulative = 2.65563e-10
smoothSolver:  Solving for nuTilda, Initial residual = 1, Final residual = 0.0306379, No Iterations 2
ExecutionTime = 12.79 s  ClockTime = 13 s

Time = 2

smoothSolver:  Solving for Ux, Initial residual = 0.230054, Final residual = 0.000219292, No Iterations 10
smoothSolver:  Solving for Uy, Initial residual = 0.338419, Final residual = 8.60652e-05, No Iterations 12
[OGL LOG] init_host_sparsity_pattern : 128 ms
[OGL LOG] matrix not stored update host matrix
[OGL LOG] update_host_mtx : 64 ms
[OGL LOG] matrix is not yet sorted, sorting host matrix
[OGL LOG] sort_host_mtx_sparsity_pattern : 100 ms
[OGL LOG] sort_host_mtx : 53 ms
[OGL LOG] init_preconditioner : 0 ms
[OGL LOG] solve : 1738 ms
nonecudaGKOBiCGStab:  Solving for p, Initial residual = 1.83291, Final residual = 0.289589, No Iterations 1000
time step continuity errors : sum local = 0.00186505, global = 3.39558e-10, cumulative = 6.05122e-10
smoothSolver:  Solving for nuTilda, Initial residual = 0.0936115, Final residual = 0.00900409, No Iterations 2
ExecutionTime = 16 s  ClockTime = 16 s

Time = 3

smoothSolver:  Solving for Ux, Initial residual = 0.12656, Final residual = 0.000125737, No Iterations 10
smoothSolver:  Solving for Uy, Initial residual = 0.0996891, Final residual = 2.4526e-05, No Iterations 12
[OGL LOG] init_host_sparsity_pattern : 129 ms
[OGL LOG] matrix not stored update host matrix
[OGL LOG] update_host_mtx : 67 ms
[OGL LOG] matrix is not yet sorted, sorting host matrix
[OGL LOG] sort_host_mtx_sparsity_pattern : 94 ms
[OGL LOG] sort_host_mtx : 58 ms
[OGL LOG] init_preconditioner : 0 ms
[OGL LOG] solve : 1740 ms
nonecudaGKOBiCGStab:  Solving for p, Initial residual = 0.588978, Final residual = 0.201012, No Iterations 1000
time step continuity errors : sum local = 0.00180235, global = -8.95189e-06, cumulative = -8.95128e-06
smoothSolver:  Solving for nuTilda, Initial residual = 0.030463, Final residual = 0.00125114, No Iterations 4
ExecutionTime = 19.22 s  ClockTime = 19 s

Time = 4

smoothSolver:  Solving for Ux, Initial residual = 0.153368, Final residual = 3.71274e-05, No Iterations 12
smoothSolver:  Solving for Uy, Initial residual = 0.0993267, Final residual = 2.42837e-05, No Iterations 12
[OGL LOG] init_host_sparsity_pattern : 131 ms
[OGL LOG] matrix not stored update host matrix
[OGL LOG] update_host_mtx : 67 ms
[OGL LOG] matrix is not yet sorted, sorting host matrix
[OGL LOG] sort_host_mtx_sparsity_pattern : 94 ms
[OGL LOG] sort_host_mtx : 58 ms
[OGL LOG] init_preconditioner : 0 ms
[OGL LOG] solve : 1701 ms
nonecudaGKOBiCGStab:  Solving for p, Initial residual = 0.984545, Final residual = 0.285508, No Iterations 1000
time step continuity errors : sum local = 0.00219088, global = -0.000247062, cumulative = -0.000256013
smoothSolver:  Solving for nuTilda, Initial residual = 0.0194772, Final residual = 0.000998773, No Iterations 4
ExecutionTime = 22.45 s  ClockTime = 23 s

Time = 5

smoothSolver:  Solving for Ux, Initial residual = 0.169418, Final residual = 4.14702e-05, No Iterations 12
smoothSolver:  Solving for Uy, Initial residual = 0.124479, Final residual = 3.11345e-05, No Iterations 12
[OGL LOG] init_host_sparsity_pattern : 129 ms
[OGL LOG] matrix not stored update host matrix
[OGL LOG] update_host_mtx : 69 ms
[OGL LOG] matrix is not yet sorted, sorting host matrix
[OGL LOG] sort_host_mtx_sparsity_pattern : 97 ms
[OGL LOG] sort_host_mtx : 58 ms
[OGL LOG] init_preconditioner : 0 ms
[OGL LOG] solve : 1701 ms
nonecudaGKOBiCGStab:  Solving for p, Initial residual = 0.849187, Final residual = 0.186046, No Iterations 1000
time step continuity errors : sum local = 0.00227014, global = -0.000894676, cumulative = -0.00115069
smoothSolver:  Solving for nuTilda, Initial residual = 0.0158002, Final residual = 0.000900503, No Iterations 4
ExecutionTime = 25.66 s  ClockTime = 26 s

End

