/*---------------------------------------------------------------------------*\
  =========                 |
  \\      /  F ield         | OpenFOAM: The Open Source CFD Toolbox
   \\    /   O peration     | Website:  https://openfoam.org
    \\  /    A nd           | Version:  8
     \\/     M anipulation  |
\*---------------------------------------------------------------------------*/
Build  : 8-13d66902f78c
Exec   : simpleFoam
Date   : Jul 05 2021
Time   : 17:35:01
Host   : "uc2n487.localdomain"
PID    : 1411782
I/O    : uncollated
Case   : /pfs/data5/home/kit/scc/nq7776/code/OGL_DATA/airFoil2D/v0.1-136-g40fef35/f584ccac99/TeslaV100-SXM2-32GB/Test_2021-07-05-17:29:34/3/p-CG-GKO-none-cuda/airFoil2D
nProcs : 1
sigFpe : Enabling floating point exception trapping (FOAM_SIGFPE).
fileModificationChecking : Monitoring run-time modified files using timeStampMaster (fileModificationSkew 10)
allowSystemOperations : Allowing user-supplied system call operations

// * * * * * * * * * * * * * * * * * * * * * * * * * * * * * * * * * * * * * //
Create time

Create mesh for time = 0


SIMPLE: Convergence criteria found
        p: tolerance 1e-05
        U: tolerance 1e-05
        nuTilda: tolerance 1e-05

Reading field p

Reading field U

Reading/calculating face flux field phi

Selecting incompressible transport model Newtonian
Selecting turbulence model type RAS
Selecting RAS turbulence model SpalartAllmaras
Selecting patchDistMethod meshWave
RAS
{
    model           SpalartAllmaras;
    turbulence      on;
    printCoeffs     on;
    sigmaNut        0.66666;
    kappa           0.41;
    Cb1             0.1355;
    Cb2             0.622;
    Cw2             0.3;
    Cw3             2;
    Cv1             7.1;
    Cs              0.3;
}

No MRF models present

No finite volume options present

Starting time loop

Time = 1

smoothSolver:  Solving for Ux, Initial residual = 1, Final residual = 0.000579349, No Iterations 12
smoothSolver:  Solving for Uy, Initial residual = 0.999999, Final residual = 0.000271884, No Iterations 12
[OGL LOG] init_host_sparsity_pattern : 151 ms
[OGL LOG] matrix not stored update host matrix
[OGL LOG] update_host_mtx : 80 ms
[OGL LOG] matrix is not yet sorted, compute sorting idxs
[OGL LOG] compute_sort : 5016 ms
[OGL LOG] matrix is not yet sorted, sorting host matrix
[OGL LOG] sort_host_mtx_sparsity_pattern : 109 ms
[OGL LOG] sort_host_mtx : 66 ms
[OGL LOG] init_preconditioner : 0 ms
[OGL LOG] solve : 913 ms
nonecudaGKOCG:  Solving for p, Initial residual = 1, Final residual = 33.9903, No Iterations 1000
time step continuity errors : sum local = 0.0659485, global = 1.09644e-06, cumulative = 1.09644e-06
smoothSolver:  Solving for nuTilda, Initial residual = 1, Final residual = 0.0305846, No Iterations 2
ExecutionTime = 13.06 s  ClockTime = 13 s

Time = 2

smoothSolver:  Solving for Ux, Initial residual = 0.313461, Final residual = 0.000301443, No Iterations 10
smoothSolver:  Solving for Uy, Initial residual = 0.349808, Final residual = 8.58874e-05, No Iterations 12
[OGL LOG] init_host_sparsity_pattern : 143 ms
[OGL LOG] matrix not stored update host matrix
[OGL LOG] update_host_mtx : 71 ms
[OGL LOG] matrix is not yet sorted, sorting host matrix
[OGL LOG] sort_host_mtx_sparsity_pattern : 109 ms
[OGL LOG] sort_host_mtx : 59 ms
[OGL LOG] init_preconditioner : 0 ms
[OGL LOG] solve : 920 ms
nonecudaGKOCG:  Solving for p, Initial residual = 2.49885, Final residual = 1.19821, No Iterations 1000
time step continuity errors : sum local = 0.0411835, global = 5.86676e-06, cumulative = 6.9632e-06
smoothSolver:  Solving for nuTilda, Initial residual = 0.0941563, Final residual = 0.0090822, No Iterations 2
ExecutionTime = 15.6 s  ClockTime = 16 s

Time = 3

smoothSolver:  Solving for Ux, Initial residual = 0.15269, Final residual = 0.000151386, No Iterations 10
smoothSolver:  Solving for Uy, Initial residual = 0.101668, Final residual = 2.47463e-05, No Iterations 12
[OGL LOG] init_host_sparsity_pattern : 142 ms
[OGL LOG] matrix not stored update host matrix
[OGL LOG] update_host_mtx : 70 ms
[OGL LOG] matrix is not yet sorted, sorting host matrix
[OGL LOG] sort_host_mtx_sparsity_pattern : 107 ms
[OGL LOG] sort_host_mtx : 63 ms
[OGL LOG] init_preconditioner : 0 ms
[OGL LOG] solve : 913 ms
nonecudaGKOCG:  Solving for p, Initial residual = 1.28982, Final residual = 1.07632, No Iterations 1000
time step continuity errors : sum local = 0.041279, global = -6.45969e-05, cumulative = -5.76337e-05
smoothSolver:  Solving for nuTilda, Initial residual = 0.0325115, Final residual = 0.0013587, No Iterations 4
ExecutionTime = 18.08 s  ClockTime = 18 s

Time = 4

smoothSolver:  Solving for Ux, Initial residual = 0.168691, Final residual = 4.09531e-05, No Iterations 12
smoothSolver:  Solving for Uy, Initial residual = 0.107175, Final residual = 2.61555e-05, No Iterations 12
[OGL LOG] init_host_sparsity_pattern : 141 ms
[OGL LOG] matrix not stored update host matrix
[OGL LOG] update_host_mtx : 70 ms
[OGL LOG] matrix is not yet sorted, sorting host matrix
[OGL LOG] sort_host_mtx_sparsity_pattern : 107 ms
[OGL LOG] sort_host_mtx : 58 ms
[OGL LOG] init_preconditioner : 0 ms
[OGL LOG] solve : 915 ms
nonecudaGKOCG:  Solving for p, Initial residual = 1.30374, Final residual = 0.962053, No Iterations 1000
time step continuity errors : sum local = 0.0381651, global = -0.000804108, cumulative = -0.000861741
smoothSolver:  Solving for nuTilda, Initial residual = 0.0222307, Final residual = 0.00115967, No Iterations 4
ExecutionTime = 20.57 s  ClockTime = 21 s

Time = 5

smoothSolver:  Solving for Ux, Initial residual = 0.183041, Final residual = 4.4474e-05, No Iterations 12
smoothSolver:  Solving for Uy, Initial residual = 0.15668, Final residual = 3.94691e-05, No Iterations 12
[OGL LOG] init_host_sparsity_pattern : 140 ms
[OGL LOG] matrix not stored update host matrix
[OGL LOG] update_host_mtx : 69 ms
[OGL LOG] matrix is not yet sorted, sorting host matrix
[OGL LOG] sort_host_mtx_sparsity_pattern : 103 ms
[OGL LOG] sort_host_mtx : 67 ms
[OGL LOG] init_preconditioner : 0 ms
[OGL LOG] solve : 915 ms
nonecudaGKOCG:  Solving for p, Initial residual = 0.990298, Final residual = 0.997846, No Iterations 1000
time step continuity errors : sum local = 0.0524281, global = -0.00123294, cumulative = -0.00209468
smoothSolver:  Solving for nuTilda, Initial residual = 0.0189239, Final residual = 0.00109398, No Iterations 4
ExecutionTime = 23.06 s  ClockTime = 23 s

End

