/*---------------------------------------------------------------------------*\
  =========                 |
  \\      /  F ield         | OpenFOAM: The Open Source CFD Toolbox
   \\    /   O peration     | Website:  https://openfoam.org
    \\  /    A nd           | Version:  8
     \\/     M anipulation  |
\*---------------------------------------------------------------------------*/
Build  : 8-40a5a48f630f
Exec   : icoFoam
Date   : Jul 28 2021
Time   : 02:28:49
Host   : "uc2n462.localdomain"
PID    : 3690575
I/O    : uncollated
Case   : /pfs/data5/home/kit/scc/nq7776/code/OBR/lidDrivenCavity3D/Variation_mesh/95/Variation_matrix_solver/CG_BJ_OMP/base
nProcs : 1
sigFpe : Enabling floating point exception trapping (FOAM_SIGFPE).
fileModificationChecking : Monitoring run-time modified files using timeStampMaster (fileModificationSkew 10)
allowSystemOperations : Allowing user-supplied system call operations

// * * * * * * * * * * * * * * * * * * * * * * * * * * * * * * * * * * * * * //
Create time

Create mesh for time = 0

Reading transportProperties

Reading field p

Reading field U

Reading/calculating face flux field phi


Starting time loop

Time = 0.001

Courant Number mean: 0 max: 0
nonePBiCGStab:  Solving for Ux, Initial residual = 1, Final residual = 0.078913, No Iterations 5
nonePBiCGStab:  Solving for Uy, Initial residual = 0, Final residual = 0, No Iterations 0
nonePBiCGStab:  Solving for Uz, Initial residual = 0, Final residual = 0, No Iterations 0
linear solve U 228
[OGL LOG] init_host_sparsity_pattern : 247 ms
[OGL LOG] matrix not stored update host matrix
[OGL LOG] update_host_mtx : 130 ms
[OGL LOG] matrix is not yet sorted, compute sorting idxs
[OGL LOG] compute_sort : 7784 ms
[OGL LOG] matrix is not yet sorted, sorting host matrix
[OGL LOG] sort_host_mtx_sparsity_pattern : 178 ms
[OGL LOG] sort_host_mtx : 106 ms
[OGL LOG] init_preconditioner : 29 ms
 CG create  precond 
[OGL LOG] solve : 9187 ms
BJompGKOCG:  Solving for p, Initial residual = 1, Final residual = 9.84631e-05, No Iterations 633
linear solve p 17874
time step continuity errors : sum local = 3.85937e-08, global = 8.63138e-21, cumulative = 8.63138e-21
[OGL LOG] init_host_sparsity_pattern : 247 ms
[OGL LOG] matrix not stored update host matrix
[OGL LOG] update_host_mtx : 128 ms
[OGL LOG] matrix is not yet sorted, sorting host matrix
[OGL LOG] sort_host_mtx_sparsity_pattern : 188 ms
[OGL LOG] sort_host_mtx : 106 ms
[OGL LOG] init_preconditioner : 0 ms
 CG create  precond 
[OGL LOG] solve : 8356 ms
BJompGKOCG:  Solving for p, Initial residual = 0.704604, Final residual = 9.94978e-05, No Iterations 613
linear solve p 9212
time step continuity errors : sum local = 5.41327e-08, global = -2.74366e-21, cumulative = 5.88773e-21
ExecutionTime = 361.8 s  ClockTime = 32 s

Time = 0.002

Courant Number mean: 0.0412052 max: 0.745797
nonePBiCGStab:  Solving for Ux, Initial residual = 0.139163, Final residual = 0.0377854, No Iterations 5
nonePBiCGStab:  Solving for Uy, Initial residual = 0.440104, Final residual = 0.117163, No Iterations 5
nonePBiCGStab:  Solving for Uz, Initial residual = 0.986805, Final residual = 0.301635, No Iterations 5
linear solve U 503
[OGL LOG] init_host_sparsity_pattern : 242 ms
[OGL LOG] matrix not stored update host matrix
[OGL LOG] update_host_mtx : 129 ms
[OGL LOG] matrix is not yet sorted, sorting host matrix
[OGL LOG] sort_host_mtx_sparsity_pattern : 185 ms
[OGL LOG] sort_host_mtx : 109 ms
[OGL LOG] init_preconditioner : 0 ms
 CG create  precond 
[OGL LOG] solve : 8828 ms
BJompGKOCG:  Solving for p, Initial residual = 0.777961, Final residual = 9.98709e-05, No Iterations 602
linear solve p 9648
time step continuity errors : sum local = 9.08159e-08, global = -8.68335e-21, cumulative = -2.79562e-21
[OGL LOG] init_host_sparsity_pattern : 236 ms
[OGL LOG] matrix not stored update host matrix
[OGL LOG] update_host_mtx : 128 ms
[OGL LOG] matrix is not yet sorted, sorting host matrix
[OGL LOG] sort_host_mtx_sparsity_pattern : 185 ms
[OGL LOG] sort_host_mtx : 107 ms
[OGL LOG] init_preconditioner : 0 ms
 CG create  precond 
[OGL LOG] solve : 5291 ms
BJompGKOCG:  Solving for p, Initial residual = 0.701328, Final residual = 9.64609e-05, No Iterations 365
linear solve p 6092
time step continuity errors : sum local = 1.01674e-07, global = 1.51038e-20, cumulative = 1.23082e-20
ExecutionTime = 645.53 s  ClockTime = 49 s

Time = 0.003

Courant Number mean: 0.0654743 max: 0.850093
nonePBiCGStab:  Solving for Ux, Initial residual = 0.0603339, Final residual = 0.0137536, No Iterations 5
nonePBiCGStab:  Solving for Uy, Initial residual = 0.195657, Final residual = 0.053712, No Iterations 5
nonePBiCGStab:  Solving for Uz, Initial residual = 0.68908, Final residual = 0.193848, No Iterations 5
linear solve U 472
[OGL LOG] init_host_sparsity_pattern : 236 ms
[OGL LOG] matrix not stored update host matrix
[OGL LOG] update_host_mtx : 130 ms
[OGL LOG] matrix is not yet sorted, sorting host matrix
[OGL LOG] sort_host_mtx_sparsity_pattern : 180 ms
[OGL LOG] sort_host_mtx : 108 ms
[OGL LOG] init_preconditioner : 0 ms
 CG create  precond 
[OGL LOG] solve : 4946 ms
BJompGKOCG:  Solving for p, Initial residual = 0.778373, Final residual = 9.74347e-05, No Iterations 331
linear solve p 5733
time step continuity errors : sum local = 7.89369e-08, global = -7.27657e-21, cumulative = 5.03162e-21
[OGL LOG] init_host_sparsity_pattern : 250 ms
[OGL LOG] matrix not stored update host matrix
[OGL LOG] update_host_mtx : 128 ms
[OGL LOG] matrix is not yet sorted, sorting host matrix
[OGL LOG] sort_host_mtx_sparsity_pattern : 184 ms
[OGL LOG] sort_host_mtx : 108 ms
[OGL LOG] init_preconditioner : 0 ms
 CG create  precond 
[OGL LOG] solve : 9076 ms
BJompGKOCG:  Solving for p, Initial residual = 0.707008, Final residual = 9.55484e-05, No Iterations 599
linear solve p 9920
time step continuity errors : sum local = 6.57208e-08, global = 4.32431e-21, cumulative = 9.35594e-21
ExecutionTime = 928.03 s  ClockTime = 65 s

Time = 0.004

Courant Number mean: 0.0789371 max: 0.86494
nonePBiCGStab:  Solving for Ux, Initial residual = 0.0376802, Final residual = 0.00931333, No Iterations 5
nonePBiCGStab:  Solving for Uy, Initial residual = 0.138299, Final residual = 0.0427603, No Iterations 5
nonePBiCGStab:  Solving for Uz, Initial residual = 0.460975, Final residual = 0.117584, No Iterations 5
linear solve U 482
[OGL LOG] init_host_sparsity_pattern : 241 ms
[OGL LOG] matrix not stored update host matrix
[OGL LOG] update_host_mtx : 132 ms
[OGL LOG] matrix is not yet sorted, sorting host matrix
[OGL LOG] sort_host_mtx_sparsity_pattern : 186 ms
[OGL LOG] sort_host_mtx : 109 ms
[OGL LOG] init_preconditioner : 0 ms
 CG create  precond 
[OGL LOG] solve : 8520 ms
BJompGKOCG:  Solving for p, Initial residual = 0.688546, Final residual = 9.97792e-05, No Iterations 595
linear solve p 9337
time step continuity errors : sum local = 7.14187e-08, global = 2.21646e-20, cumulative = 3.15206e-20
[OGL LOG] init_host_sparsity_pattern : 242 ms
[OGL LOG] matrix not stored update host matrix
[OGL LOG] update_host_mtx : 134 ms
[OGL LOG] matrix is not yet sorted, sorting host matrix
[OGL LOG] sort_host_mtx_sparsity_pattern : 193 ms
[OGL LOG] sort_host_mtx : 110 ms
[OGL LOG] init_preconditioner : 0 ms
 CG create  precond 
[OGL LOG] solve : 8972 ms
BJompGKOCG:  Solving for p, Initial residual = 0.592647, Final residual = 9.75544e-05, No Iterations 593
linear solve p 9811
time step continuity errors : sum local = 7.13853e-08, global = 1.04628e-20, cumulative = 4.19834e-20
ExecutionTime = 1279.86 s  ClockTime = 86 s

Time = 0.005

Courant Number mean: 0.0895862 max: 0.877409
nonePBiCGStab:  Solving for Ux, Initial residual = 0.0286652, Final residual = 0.00747025, No Iterations 5
nonePBiCGStab:  Solving for Uy, Initial residual = 0.0903643, Final residual = 0.0307474, No Iterations 5
nonePBiCGStab:  Solving for Uz, Initial residual = 0.274509, Final residual = 0.068852, No Iterations 5
linear solve U 535
[OGL LOG] init_host_sparsity_pattern : 238 ms
[OGL LOG] matrix not stored update host matrix
[OGL LOG] update_host_mtx : 130 ms
[OGL LOG] matrix is not yet sorted, sorting host matrix
[OGL LOG] sort_host_mtx_sparsity_pattern : 201 ms
[OGL LOG] sort_host_mtx : 112 ms
[OGL LOG] init_preconditioner : 0 ms
 CG create  precond 
[OGL LOG] solve : 4430 ms
BJompGKOCG:  Solving for p, Initial residual = 0.723986, Final residual = 9.44362e-05, No Iterations 285
linear solve p 5306
time step continuity errors : sum local = 6.90585e-08, global = 1.47365e-21, cumulative = 4.3457e-20
[OGL LOG] init_host_sparsity_pattern : 258 ms
[OGL LOG] matrix not stored update host matrix
[OGL LOG] update_host_mtx : 131 ms
[OGL LOG] matrix is not yet sorted, sorting host matrix
[OGL LOG] sort_host_mtx_sparsity_pattern : 212 ms
[OGL LOG] sort_host_mtx : 113 ms
[OGL LOG] init_preconditioner : 0 ms
 CG create  precond 
[OGL LOG] solve : 4285 ms
BJompGKOCG:  Solving for p, Initial residual = 0.64022, Final residual = 9.77811e-05, No Iterations 280
linear solve p 5178
time step continuity errors : sum local = 6.63654e-08, global = 2.00759e-20, cumulative = 6.35329e-20
ExecutionTime = 1456.6 s  ClockTime = 98 s

Time = 0.006

Courant Number mean: 0.097835 max: 0.884255
nonePBiCGStab:  Solving for Ux, Initial residual = 0.0223206, Final residual = 0.00593153, No Iterations 5
nonePBiCGStab:  Solving for Uy, Initial residual = 0.0723682, Final residual = 0.0240681, No Iterations 5
nonePBiCGStab:  Solving for Uz, Initial residual = 0.213249, Final residual = 0.0606583, No Iterations 5
linear solve U 484
[OGL LOG] init_host_sparsity_pattern : 239 ms
[OGL LOG] matrix not stored update host matrix
[OGL LOG] update_host_mtx : 128 ms
[OGL LOG] matrix is not yet sorted, sorting host matrix
[OGL LOG] sort_host_mtx_sparsity_pattern : 185 ms
[OGL LOG] sort_host_mtx : 107 ms
[OGL LOG] init_preconditioner : 0 ms
 CG create  precond 
[OGL LOG] solve : 8782 ms
BJompGKOCG:  Solving for p, Initial residual = 0.651133, Final residual = 9.57586e-05, No Iterations 575
linear solve p 9586
time step continuity errors : sum local = 6.48895e-08, global = -1.04079e-21, cumulative = 6.24921e-20
[OGL LOG] init_host_sparsity_pattern : 228 ms
[OGL LOG] matrix not stored update host matrix
[OGL LOG] update_host_mtx : 131 ms
[OGL LOG] matrix is not yet sorted, sorting host matrix
[OGL LOG] sort_host_mtx_sparsity_pattern : 181 ms
[OGL LOG] sort_host_mtx : 106 ms
[OGL LOG] init_preconditioner : 0 ms
 CG create  precond 
[OGL LOG] solve : 8649 ms
BJompGKOCG:  Solving for p, Initial residual = 0.558533, Final residual = 9.34476e-05, No Iterations 573
linear solve p 9442
time step continuity errors : sum local = 6.40847e-08, global = -2.57563e-21, cumulative = 5.99165e-20
ExecutionTime = 1807.18 s  ClockTime = 118 s

Time = 0.007

Courant Number mean: 0.104798 max: 0.889602
nonePBiCGStab:  Solving for Ux, Initial residual = 0.0189629, Final residual = 0.00480697, No Iterations 5
nonePBiCGStab:  Solving for Uy, Initial residual = 0.0562115, Final residual = 0.0194407, No Iterations 5
nonePBiCGStab:  Solving for Uz, Initial residual = 0.159865, Final residual = 0.0443867, No Iterations 5
linear solve U 484
[OGL LOG] init_host_sparsity_pattern : 236 ms
[OGL LOG] matrix not stored update host matrix
[OGL LOG] update_host_mtx : 129 ms
[OGL LOG] matrix is not yet sorted, sorting host matrix
[OGL LOG] sort_host_mtx_sparsity_pattern : 187 ms
[OGL LOG] sort_host_mtx : 107 ms
[OGL LOG] init_preconditioner : 0 ms
 CG create  precond 
[OGL LOG] solve : 4189 ms
BJompGKOCG:  Solving for p, Initial residual = 0.687939, Final residual = 9.60796e-05, No Iterations 271
linear solve p 4997
time step continuity errors : sum local = 6.53459e-08, global = -4.29295e-21, cumulative = 5.56236e-20
[OGL LOG] init_host_sparsity_pattern : 230 ms
[OGL LOG] matrix not stored update host matrix
[OGL LOG] update_host_mtx : 133 ms
[OGL LOG] matrix is not yet sorted, sorting host matrix
[OGL LOG] sort_host_mtx_sparsity_pattern : 181 ms
[OGL LOG] sort_host_mtx : 107 ms
[OGL LOG] init_preconditioner : 0 ms
 CG create  precond 
[OGL LOG] solve : 3953 ms
BJompGKOCG:  Solving for p, Initial residual = 0.596992, Final residual = 9.99111e-05, No Iterations 266
linear solve p 4741
time step continuity errors : sum local = 6.42522e-08, global = 1.6847e-20, cumulative = 7.24705e-20
ExecutionTime = 1972.53 s  ClockTime = 129 s

Time = 0.008

Courant Number mean: 0.110772 max: 0.893421
nonePBiCGStab:  Solving for Ux, Initial residual = 0.0158977, Final residual = 0.00431489, No Iterations 5
nonePBiCGStab:  Solving for Uy, Initial residual = 0.0483756, Final residual = 0.0143895, No Iterations 5
nonePBiCGStab:  Solving for Uz, Initial residual = 0.137081, Final residual = 0.0418794, No Iterations 5
linear solve U 487
[OGL LOG] init_host_sparsity_pattern : 244 ms
[OGL LOG] matrix not stored update host matrix
[OGL LOG] update_host_mtx : 129 ms
[OGL LOG] matrix is not yet sorted, sorting host matrix
[OGL LOG] sort_host_mtx_sparsity_pattern : 187 ms
[OGL LOG] sort_host_mtx : 108 ms
[OGL LOG] init_preconditioner : 0 ms
 CG create  precond 
[OGL LOG] solve : 4169 ms
BJompGKOCG:  Solving for p, Initial residual = 0.627619, Final residual = 9.88445e-05, No Iterations 289
linear solve p 4980
time step continuity errors : sum local = 7.67134e-08, global = -7.7324e-22, cumulative = 7.16973e-20
[OGL LOG] init_host_sparsity_pattern : 229 ms
[OGL LOG] matrix not stored update host matrix
[OGL LOG] update_host_mtx : 128 ms
[OGL LOG] matrix is not yet sorted, sorting host matrix
[OGL LOG] sort_host_mtx_sparsity_pattern : 181 ms
[OGL LOG] sort_host_mtx : 107 ms
[OGL LOG] init_preconditioner : 0 ms
 CG create  precond 
[OGL LOG] solve : 3645 ms
BJompGKOCG:  Solving for p, Initial residual = 0.536289, Final residual = 9.95423e-05, No Iterations 253
linear solve p 4420
time step continuity errors : sum local = 6.91688e-08, global = 5.3036e-21, cumulative = 7.70009e-20
ExecutionTime = 2131.36 s  ClockTime = 139 s

Time = 0.009

Courant Number mean: 0.116049 max: 0.896651
nonePBiCGStab:  Solving for Ux, Initial residual = 0.0143052, Final residual = 0.00339957, No Iterations 5
nonePBiCGStab:  Solving for Uy, Initial residual = 0.0405891, Final residual = 0.0127619, No Iterations 5
nonePBiCGStab:  Solving for Uz, Initial residual = 0.114751, Final residual = 0.0345494, No Iterations 5
linear solve U 489
[OGL LOG] init_host_sparsity_pattern : 239 ms
[OGL LOG] matrix not stored update host matrix
[OGL LOG] update_host_mtx : 129 ms
[OGL LOG] matrix is not yet sorted, sorting host matrix
[OGL LOG] sort_host_mtx_sparsity_pattern : 196 ms
[OGL LOG] sort_host_mtx : 117 ms
[OGL LOG] init_preconditioner : 0 ms
 CG create  precond 
[OGL LOG] solve : 7646 ms
BJompGKOCG:  Solving for p, Initial residual = 0.665918, Final residual = 9.73054e-05, No Iterations 517
linear solve p 8487
time step continuity errors : sum local = 6.09766e-08, global = 2.43828e-21, cumulative = 7.94392e-20
[OGL LOG] init_host_sparsity_pattern : 252 ms
[OGL LOG] matrix not stored update host matrix
[OGL LOG] update_host_mtx : 134 ms
[OGL LOG] matrix is not yet sorted, sorting host matrix
[OGL LOG] sort_host_mtx_sparsity_pattern : 188 ms
[OGL LOG] sort_host_mtx : 111 ms
[OGL LOG] init_preconditioner : 0 ms
 CG create  precond 
[OGL LOG] solve : 7861 ms
BJompGKOCG:  Solving for p, Initial residual = 0.573209, Final residual = 9.74537e-05, No Iterations 511
linear solve p 8683
time step continuity errors : sum local = 6.09578e-08, global = -1.36309e-20, cumulative = 6.58083e-20
ExecutionTime = 2443.71 s  ClockTime = 158 s

Time = 0.01

Courant Number mean: 0.120808 max: 0.899108
nonePBiCGStab:  Solving for Ux, Initial residual = 0.0124757, Final residual = 0.00287352, No Iterations 5
nonePBiCGStab:  Solving for Uy, Initial residual = 0.0364299, Final residual = 0.0097467, No Iterations 5
nonePBiCGStab:  Solving for Uz, Initial residual = 0.103889, Final residual = 0.0322925, No Iterations 5
linear solve U 490
[OGL LOG] init_host_sparsity_pattern : 241 ms
[OGL LOG] matrix not stored update host matrix
[OGL LOG] update_host_mtx : 134 ms
[OGL LOG] matrix is not yet sorted, sorting host matrix
[OGL LOG] sort_host_mtx_sparsity_pattern : 190 ms
[OGL LOG] sort_host_mtx : 126 ms
[OGL LOG] init_preconditioner : 0 ms
 CG create  precond 
[OGL LOG] solve : 8152 ms
BJompGKOCG:  Solving for p, Initial residual = 0.612985, Final residual = 9.48415e-05, No Iterations 552
linear solve p 9000
time step continuity errors : sum local = 6.23121e-08, global = -1.5929e-20, cumulative = 4.98793e-20
[OGL LOG] init_host_sparsity_pattern : 239 ms
[OGL LOG] matrix not stored update host matrix
[OGL LOG] update_host_mtx : 128 ms
[OGL LOG] matrix is not yet sorted, sorting host matrix
[OGL LOG] sort_host_mtx_sparsity_pattern : 184 ms
[OGL LOG] sort_host_mtx : 105 ms
[OGL LOG] init_preconditioner : 0 ms
 CG create  precond 
[OGL LOG] solve : 8247 ms
BJompGKOCG:  Solving for p, Initial residual = 0.52422, Final residual = 9.60278e-05, No Iterations 550
linear solve p 9051
time step continuity errors : sum local = 6.32245e-08, global = -1.46297e-20, cumulative = 3.52495e-20
ExecutionTime = 2773.82 s  ClockTime = 177 s

End

