/*---------------------------------------------------------------------------*\
  =========                 |
  \\      /  F ield         | OpenFOAM: The Open Source CFD Toolbox
   \\    /   O peration     | Website:  https://openfoam.org
    \\  /    A nd           | Version:  8
     \\/     M anipulation  |
\*---------------------------------------------------------------------------*/
Build  : 8-40a5a48f630f
Exec   : icoFoam
Date   : Jul 28 2021
Time   : 01:59:31
Host   : "uc2n550.localdomain"
PID    : 1019896
I/O    : uncollated
Case   : /pfs/data5/home/kit/scc/nq7776/code/OBR/lidDrivenCavity3D/Variation_mesh/25/Variation_matrix_solver/BiCGStab_BJ_OMP/base
nProcs : 1
sigFpe : Enabling floating point exception trapping (FOAM_SIGFPE).
fileModificationChecking : Monitoring run-time modified files using timeStampMaster (fileModificationSkew 10)
allowSystemOperations : Allowing user-supplied system call operations

// * * * * * * * * * * * * * * * * * * * * * * * * * * * * * * * * * * * * * //
Create time

Create mesh for time = 0

Reading transportProperties

Reading field p

Reading field U

Reading/calculating face flux field phi


Starting time loop

Time = 0.001

Courant Number mean: 0 max: 0
nonePBiCGStab:  Solving for Ux, Initial residual = 1, Final residual = 0.00310183, No Iterations 5
nonePBiCGStab:  Solving for Uy, Initial residual = 0, Final residual = 0, No Iterations 0
nonePBiCGStab:  Solving for Uz, Initial residual = 0, Final residual = 0, No Iterations 0
linear solve U 2
[OGL LOG] init_host_sparsity_pattern : 4 ms
[OGL LOG] matrix not stored update host matrix
[OGL LOG] update_host_mtx : 2 ms
[OGL LOG] matrix is not yet sorted, compute sorting idxs
[OGL LOG] compute_sort : 105 ms
[OGL LOG] matrix is not yet sorted, sorting host matrix
[OGL LOG] sort_host_mtx_sparsity_pattern : 3 ms
[OGL LOG] sort_host_mtx : 1 ms
[OGL LOG] init_preconditioner : 1 ms
[OGL LOG] solve : 118 ms
BJompGKOBiCGStab:  Solving for p, Initial residual = 1, Final residual = 3.01352e-05, No Iterations 136
linear solve p 242
time step continuity errors : sum local = 2.54247e-07, global = -1.95347e-20, cumulative = -1.95347e-20
[OGL LOG] init_host_sparsity_pattern : 4 ms
[OGL LOG] matrix not stored update host matrix
[OGL LOG] update_host_mtx : 2 ms
[OGL LOG] matrix is not yet sorted, sorting host matrix
[OGL LOG] sort_host_mtx_sparsity_pattern : 3 ms
[OGL LOG] sort_host_mtx : 1 ms
[OGL LOG] init_preconditioner : 0 ms
[OGL LOG] solve : 104 ms
BJompGKOBiCGStab:  Solving for p, Initial residual = 0.480957, Final residual = 6.74316e-05, No Iterations 121
linear solve p 117
time step continuity errors : sum local = 2.25672e-06, global = -9.921e-23, cumulative = -1.96339e-20
ExecutionTime = 1.15 s  ClockTime = 0 s

Time = 0.002

Courant Number mean: 0.0119718 max: 0.106554
nonePBiCGStab:  Solving for Ux, Initial residual = 0.210864, Final residual = 0.00069559, No Iterations 5
nonePBiCGStab:  Solving for Uy, Initial residual = 0.2845, Final residual = 0.00065743, No Iterations 5
nonePBiCGStab:  Solving for Uz, Initial residual = 0.863004, Final residual = 0.00331511, No Iterations 5
linear solve U 5
[OGL LOG] init_host_sparsity_pattern : 4 ms
[OGL LOG] matrix not stored update host matrix
[OGL LOG] update_host_mtx : 2 ms
[OGL LOG] matrix is not yet sorted, sorting host matrix
[OGL LOG] sort_host_mtx_sparsity_pattern : 3 ms
[OGL LOG] sort_host_mtx : 1 ms
[OGL LOG] init_preconditioner : 0 ms
[OGL LOG] solve : 95 ms
BJompGKOBiCGStab:  Solving for p, Initial residual = 0.288173, Final residual = 5.50709e-05, No Iterations 111
linear solve p 108
time step continuity errors : sum local = 3.03789e-06, global = 1.77272e-20, cumulative = -1.9067e-21
[OGL LOG] init_host_sparsity_pattern : 4 ms
[OGL LOG] matrix not stored update host matrix
[OGL LOG] update_host_mtx : 2 ms
[OGL LOG] matrix is not yet sorted, sorting host matrix
[OGL LOG] sort_host_mtx_sparsity_pattern : 3 ms
[OGL LOG] sort_host_mtx : 1 ms
[OGL LOG] init_preconditioner : 0 ms
[OGL LOG] solve : 95 ms
BJompGKOBiCGStab:  Solving for p, Initial residual = 0.192353, Final residual = 6.25191e-05, No Iterations 108
linear solve p 108
time step continuity errors : sum local = 1.41899e-06, global = -5.61614e-21, cumulative = -7.52285e-21
ExecutionTime = 1.98 s  ClockTime = 0 s

Time = 0.003

Courant Number mean: 0.0188467 max: 0.153564
nonePBiCGStab:  Solving for Ux, Initial residual = 0.0899883, Final residual = 0.000292757, No Iterations 5
nonePBiCGStab:  Solving for Uy, Initial residual = 0.124936, Final residual = 0.000190721, No Iterations 5
nonePBiCGStab:  Solving for Uz, Initial residual = 0.281279, Final residual = 0.00106598, No Iterations 5
linear solve U 5
[OGL LOG] init_host_sparsity_pattern : 4 ms
[OGL LOG] matrix not stored update host matrix
[OGL LOG] update_host_mtx : 2 ms
[OGL LOG] matrix is not yet sorted, sorting host matrix
[OGL LOG] sort_host_mtx_sparsity_pattern : 3 ms
[OGL LOG] sort_host_mtx : 1 ms
[OGL LOG] init_preconditioner : 0 ms
[OGL LOG] solve : 95 ms
BJompGKOBiCGStab:  Solving for p, Initial residual = 0.105703, Final residual = 4.91945e-05, No Iterations 109
linear solve p 108
time step continuity errors : sum local = 3.09591e-05, global = -2.46229e-20, cumulative = -3.21457e-20
[OGL LOG] init_host_sparsity_pattern : 4 ms
[OGL LOG] matrix not stored update host matrix
[OGL LOG] update_host_mtx : 2 ms
[OGL LOG] matrix is not yet sorted, sorting host matrix
[OGL LOG] sort_host_mtx_sparsity_pattern : 3 ms
[OGL LOG] sort_host_mtx : 1 ms
[OGL LOG] init_preconditioner : 0 ms
[OGL LOG] solve : 94 ms
BJompGKOBiCGStab:  Solving for p, Initial residual = 0.103434, Final residual = 9.83288e-05, No Iterations 108
linear solve p 107
time step continuity errors : sum local = 4.14683e-07, global = 9.97352e-21, cumulative = -2.21722e-20
ExecutionTime = 2.8 s  ClockTime = 0 s

Time = 0.004

Courant Number mean: 0.023316 max: 0.175119
nonePBiCGStab:  Solving for Ux, Initial residual = 0.0519297, Final residual = 0.000106282, No Iterations 5
nonePBiCGStab:  Solving for Uy, Initial residual = 0.075218, Final residual = 0.000137946, No Iterations 5
nonePBiCGStab:  Solving for Uz, Initial residual = 0.19154, Final residual = 0.00126396, No Iterations 5
linear solve U 5
[OGL LOG] init_host_sparsity_pattern : 4 ms
[OGL LOG] matrix not stored update host matrix
[OGL LOG] update_host_mtx : 2 ms
[OGL LOG] matrix is not yet sorted, sorting host matrix
[OGL LOG] sort_host_mtx_sparsity_pattern : 2 ms
[OGL LOG] sort_host_mtx : 1 ms
[OGL LOG] init_preconditioner : 0 ms
[OGL LOG] solve : 93 ms
BJompGKOBiCGStab:  Solving for p, Initial residual = 0.0671838, Final residual = 4.66308e-05, No Iterations 106
linear solve p 105
time step continuity errors : sum local = 2.45292e-06, global = 8.78052e-21, cumulative = -1.33917e-20
[OGL LOG] init_host_sparsity_pattern : 4 ms
[OGL LOG] matrix not stored update host matrix
[OGL LOG] update_host_mtx : 2 ms
[OGL LOG] matrix is not yet sorted, sorting host matrix
[OGL LOG] sort_host_mtx_sparsity_pattern : 2 ms
[OGL LOG] sort_host_mtx : 1 ms
[OGL LOG] init_preconditioner : 0 ms
[OGL LOG] solve : 95 ms
BJompGKOBiCGStab:  Solving for p, Initial residual = 0.0441102, Final residual = 4.9086e-05, No Iterations 109
linear solve p 107
time step continuity errors : sum local = 4.67918e-06, global = 4.99183e-21, cumulative = -8.39986e-21
ExecutionTime = 3.61 s  ClockTime = 1 s

Time = 0.005

Courant Number mean: 0.026494 max: 0.186503
nonePBiCGStab:  Solving for Ux, Initial residual = 0.0350949, Final residual = 7.67195e-05, No Iterations 5
nonePBiCGStab:  Solving for Uy, Initial residual = 0.0511001, Final residual = 4.11914e-05, No Iterations 5
nonePBiCGStab:  Solving for Uz, Initial residual = 0.107426, Final residual = 0.000420661, No Iterations 5
linear solve U 5
[OGL LOG] init_host_sparsity_pattern : 4 ms
[OGL LOG] matrix not stored update host matrix
[OGL LOG] update_host_mtx : 2 ms
[OGL LOG] matrix is not yet sorted, sorting host matrix
[OGL LOG] sort_host_mtx_sparsity_pattern : 2 ms
[OGL LOG] sort_host_mtx : 1 ms
[OGL LOG] init_preconditioner : 0 ms
[OGL LOG] solve : 83 ms
BJompGKOBiCGStab:  Solving for p, Initial residual = 0.0421909, Final residual = 8.54645e-05, No Iterations 95
linear solve p 95
time step continuity errors : sum local = 3.79948e-05, global = -8.79169e-21, cumulative = -1.71916e-20
[OGL LOG] init_host_sparsity_pattern : 4 ms
[OGL LOG] matrix not stored update host matrix
[OGL LOG] update_host_mtx : 2 ms
[OGL LOG] matrix is not yet sorted, sorting host matrix
[OGL LOG] sort_host_mtx_sparsity_pattern : 2 ms
[OGL LOG] sort_host_mtx : 1 ms
[OGL LOG] init_preconditioner : 0 ms
[OGL LOG] solve : 93 ms
BJompGKOBiCGStab:  Solving for p, Initial residual = 0.0645253, Final residual = 9.70193e-05, No Iterations 103
linear solve p 106
time step continuity errors : sum local = 1.6404e-07, global = 1.04684e-20, cumulative = -6.72317e-21
ExecutionTime = 4.4 s  ClockTime = 1 s

Time = 0.006

Courant Number mean: 0.0288958 max: 0.193334
nonePBiCGStab:  Solving for Ux, Initial residual = 0.0264926, Final residual = 4.48255e-05, No Iterations 5
nonePBiCGStab:  Solving for Uy, Initial residual = 0.0381548, Final residual = 5.66644e-05, No Iterations 5
nonePBiCGStab:  Solving for Uz, Initial residual = 0.116531, Final residual = 0.000648711, No Iterations 5
linear solve U 5
[OGL LOG] init_host_sparsity_pattern : 4 ms
[OGL LOG] matrix not stored update host matrix
[OGL LOG] update_host_mtx : 2 ms
[OGL LOG] matrix is not yet sorted, sorting host matrix
[OGL LOG] sort_host_mtx_sparsity_pattern : 3 ms
[OGL LOG] sort_host_mtx : 1 ms
[OGL LOG] init_preconditioner : 0 ms
[OGL LOG] solve : 90 ms
BJompGKOBiCGStab:  Solving for p, Initial residual = 0.0418145, Final residual = 9.29807e-05, No Iterations 104
linear solve p 104
time step continuity errors : sum local = 3.0747e-07, global = -2.62655e-20, cumulative = -3.29886e-20
[OGL LOG] init_host_sparsity_pattern : 4 ms
[OGL LOG] matrix not stored update host matrix
[OGL LOG] update_host_mtx : 2 ms
[OGL LOG] matrix is not yet sorted, sorting host matrix
[OGL LOG] sort_host_mtx_sparsity_pattern : 2 ms
[OGL LOG] sort_host_mtx : 1 ms
[OGL LOG] init_preconditioner : 0 ms
[OGL LOG] solve : 76 ms
BJompGKOBiCGStab:  Solving for p, Initial residual = 0.0259518, Final residual = 9.64384e-05, No Iterations 88
linear solve p 89
time step continuity errors : sum local = 3.62013e-07, global = 1.61472e-20, cumulative = -1.68414e-20
ExecutionTime = 5.13 s  ClockTime = 1 s

Time = 0.007

Courant Number mean: 0.0308301 max: 0.19789
nonePBiCGStab:  Solving for Ux, Initial residual = 0.02036, Final residual = 1.90424e-05, No Iterations 5
nonePBiCGStab:  Solving for Uy, Initial residual = 0.030165, Final residual = 2.37383e-05, No Iterations 5
nonePBiCGStab:  Solving for Uz, Initial residual = 0.0645058, Final residual = 0.000164833, No Iterations 5
linear solve U 5
[OGL LOG] init_host_sparsity_pattern : 4 ms
[OGL LOG] matrix not stored update host matrix
[OGL LOG] update_host_mtx : 2 ms
[OGL LOG] matrix is not yet sorted, sorting host matrix
[OGL LOG] sort_host_mtx_sparsity_pattern : 3 ms
[OGL LOG] sort_host_mtx : 1 ms
[OGL LOG] init_preconditioner : 0 ms
[OGL LOG] solve : 90 ms
BJompGKOBiCGStab:  Solving for p, Initial residual = 0.0211853, Final residual = 5.03111e-05, No Iterations 103
linear solve p 102
time step continuity errors : sum local = 9.44668e-06, global = 1.59797e-20, cumulative = -8.61767e-22
[OGL LOG] init_host_sparsity_pattern : 4 ms
[OGL LOG] matrix not stored update host matrix
[OGL LOG] update_host_mtx : 2 ms
[OGL LOG] matrix is not yet sorted, sorting host matrix
[OGL LOG] sort_host_mtx_sparsity_pattern : 2 ms
[OGL LOG] sort_host_mtx : 1 ms
[OGL LOG] init_preconditioner : 0 ms
[OGL LOG] solve : 75 ms
BJompGKOBiCGStab:  Solving for p, Initial residual = 0.0241781, Final residual = 8.75389e-05, No Iterations 86
linear solve p 88
time step continuity errors : sum local = 1.44324e-07, global = -2.35216e-20, cumulative = -2.43833e-20
ExecutionTime = 5.85 s  ClockTime = 1 s

Time = 0.008

Courant Number mean: 0.032476 max: 0.20117
nonePBiCGStab:  Solving for Ux, Initial residual = 0.0165203, Final residual = 1.45088e-05, No Iterations 5
nonePBiCGStab:  Solving for Uy, Initial residual = 0.0247926, Final residual = 1.87748e-05, No Iterations 5
nonePBiCGStab:  Solving for Uz, Initial residual = 0.0566338, Final residual = 0.00022011, No Iterations 5
linear solve U 5
[OGL LOG] init_host_sparsity_pattern : 4 ms
[OGL LOG] matrix not stored update host matrix
[OGL LOG] update_host_mtx : 2 ms
[OGL LOG] matrix is not yet sorted, sorting host matrix
[OGL LOG] sort_host_mtx_sparsity_pattern : 3 ms
[OGL LOG] sort_host_mtx : 1 ms
[OGL LOG] init_preconditioner : 0 ms
[OGL LOG] solve : 37 ms
BJompGKOBiCGStab:  Solving for p, Initial residual = 0.0181235, Final residual = 9.68707e-05, No Iterations 42
linear solve p 49
time step continuity errors : sum local = 9.67383e-08, global = -2.85217e-20, cumulative = -5.2905e-20
[OGL LOG] init_host_sparsity_pattern : 4 ms
[OGL LOG] matrix not stored update host matrix
[OGL LOG] update_host_mtx : 2 ms
[OGL LOG] matrix is not yet sorted, sorting host matrix
[OGL LOG] sort_host_mtx_sparsity_pattern : 3 ms
[OGL LOG] sort_host_mtx : 1 ms
[OGL LOG] init_preconditioner : 0 ms
[OGL LOG] solve : 32 ms
BJompGKOBiCGStab:  Solving for p, Initial residual = 0.0116012, Final residual = 8.13594e-05, No Iterations 37
linear solve p 45
time step continuity errors : sum local = 9.44983e-08, global = 1.62123e-20, cumulative = -3.66927e-20
ExecutionTime = 6.19 s  ClockTime = 1 s

Time = 0.009

Courant Number mean: 0.0338795 max: 0.203667
nonePBiCGStab:  Solving for Ux, Initial residual = 0.013806, Final residual = 6.83344e-06, No Iterations 5
nonePBiCGStab:  Solving for Uy, Initial residual = 0.0206775, Final residual = 7.90605e-06, No Iterations 5
nonePBiCGStab:  Solving for Uz, Initial residual = 0.0416653, Final residual = 4.80165e-05, No Iterations 5
linear solve U 5
[OGL LOG] init_host_sparsity_pattern : 4 ms
[OGL LOG] matrix not stored update host matrix
[OGL LOG] update_host_mtx : 2 ms
[OGL LOG] matrix is not yet sorted, sorting host matrix
[OGL LOG] sort_host_mtx_sparsity_pattern : 3 ms
[OGL LOG] sort_host_mtx : 1 ms
[OGL LOG] init_preconditioner : 0 ms
[OGL LOG] solve : 36 ms
BJompGKOBiCGStab:  Solving for p, Initial residual = 0.0126744, Final residual = 8.96005e-05, No Iterations 41
linear solve p 48
time step continuity errors : sum local = 1.35935e-07, global = -1.34715e-20, cumulative = -5.01642e-20
[OGL LOG] init_host_sparsity_pattern : 4 ms
[OGL LOG] matrix not stored update host matrix
[OGL LOG] update_host_mtx : 2 ms
[OGL LOG] matrix is not yet sorted, sorting host matrix
[OGL LOG] sort_host_mtx_sparsity_pattern : 2 ms
[OGL LOG] sort_host_mtx : 1 ms
[OGL LOG] init_preconditioner : 0 ms
[OGL LOG] solve : 31 ms
BJompGKOBiCGStab:  Solving for p, Initial residual = 0.00860745, Final residual = 9.16424e-05, No Iterations 35
linear solve p 43
time step continuity errors : sum local = 1.70802e-07, global = 2.22634e-20, cumulative = -2.79008e-20
ExecutionTime = 6.53 s  ClockTime = 2 s

Time = 0.01

Courant Number mean: 0.0350908 max: 0.205642
nonePBiCGStab:  Solving for Ux, Initial residual = 0.011703, Final residual = 3.02178e-06, No Iterations 5
nonePBiCGStab:  Solving for Uy, Initial residual = 0.0177577, Final residual = 4.82184e-06, No Iterations 5
nonePBiCGStab:  Solving for Uz, Initial residual = 0.0355684, Final residual = 2.1698e-05, No Iterations 5
linear solve U 5
[OGL LOG] init_host_sparsity_pattern : 4 ms
[OGL LOG] matrix not stored update host matrix
[OGL LOG] update_host_mtx : 2 ms
[OGL LOG] matrix is not yet sorted, sorting host matrix
[OGL LOG] sort_host_mtx_sparsity_pattern : 3 ms
[OGL LOG] sort_host_mtx : 1 ms
[OGL LOG] init_preconditioner : 0 ms
[OGL LOG] solve : 35 ms
BJompGKOBiCGStab:  Solving for p, Initial residual = 0.0107623, Final residual = 9.29808e-05, No Iterations 40
linear solve p 47
time step continuity errors : sum local = 1.58674e-07, global = 2.00114e-20, cumulative = -7.88944e-21
[OGL LOG] init_host_sparsity_pattern : 4 ms
[OGL LOG] matrix not stored update host matrix
[OGL LOG] update_host_mtx : 2 ms
[OGL LOG] matrix is not yet sorted, sorting host matrix
[OGL LOG] sort_host_mtx_sparsity_pattern : 3 ms
[OGL LOG] sort_host_mtx : 1 ms
[OGL LOG] init_preconditioner : 0 ms
[OGL LOG] solve : 33 ms
BJompGKOBiCGStab:  Solving for p, Initial residual = 0.00747656, Final residual = 9.35621e-05, No Iterations 37
linear solve p 46
time step continuity errors : sum local = 1.38962e-07, global = -1.11135e-20, cumulative = -1.90029e-20
ExecutionTime = 6.87 s  ClockTime = 2 s

End

