/*---------------------------------------------------------------------------*\
  =========                 |
  \\      /  F ield         | OpenFOAM: The Open Source CFD Toolbox
   \\    /   O peration     | Website:  https://openfoam.org
    \\  /    A nd           | Version:  8
     \\/     M anipulation  |
\*---------------------------------------------------------------------------*/
Build  : 8-40a5a48f630f
Exec   : icoFoam
Date   : Jul 28 2021
Time   : 01:28:15
Host   : "uc2n550.localdomain"
PID    : 1015828
I/O    : uncollated
Case   : /pfs/data5/home/kit/scc/nq7776/code/OBR/lidDrivenCavity3D/Variation_mesh/15/Variation_matrix_solver/BiCGStab_NoPrecond_OMP/base
nProcs : 1
sigFpe : Enabling floating point exception trapping (FOAM_SIGFPE).
fileModificationChecking : Monitoring run-time modified files using timeStampMaster (fileModificationSkew 10)
allowSystemOperations : Allowing user-supplied system call operations

// * * * * * * * * * * * * * * * * * * * * * * * * * * * * * * * * * * * * * //
Create time

Create mesh for time = 0

Reading transportProperties

Reading field p

Reading field U

Reading/calculating face flux field phi


Starting time loop

Time = 0.001

Courant Number mean: 0 max: 0
nonePBiCGStab:  Solving for Ux, Initial residual = 1, Final residual = 7.02612e-05, No Iterations 5
nonePBiCGStab:  Solving for Uy, Initial residual = 0, Final residual = 0, No Iterations 0
nonePBiCGStab:  Solving for Uz, Initial residual = 0, Final residual = 0, No Iterations 0
linear solve U 0
[OGL LOG] init_host_sparsity_pattern : 0 ms
[OGL LOG] matrix not stored update host matrix
[OGL LOG] update_host_mtx : 0 ms
[OGL LOG] matrix is not yet sorted, compute sorting idxs
[OGL LOG] compute_sort : 20 ms
[OGL LOG] matrix is not yet sorted, sorting host matrix
[OGL LOG] sort_host_mtx_sparsity_pattern : 0 ms
[OGL LOG] sort_host_mtx : 0 ms
[OGL LOG] init_preconditioner : 0 ms
[OGL LOG] solve : 14 ms
noneompGKOBiCGStab:  Solving for p, Initial residual = 1, Final residual = 6.6206e-05, No Iterations 94
linear solve p 39
time step continuity errors : sum local = 1.84878e-05, global = 9.97911e-21, cumulative = 9.97911e-21
[OGL LOG] init_host_sparsity_pattern : 0 ms
[OGL LOG] matrix not stored update host matrix
[OGL LOG] update_host_mtx : 0 ms
[OGL LOG] matrix is not yet sorted, sorting host matrix
[OGL LOG] sort_host_mtx_sparsity_pattern : 0 ms
[OGL LOG] sort_host_mtx : 0 ms
[OGL LOG] init_preconditioner : 0 ms
[OGL LOG] solve : 12 ms
noneompGKOBiCGStab:  Solving for p, Initial residual = 0.328437, Final residual = 7.21257e-05, No Iterations 86
linear solve p 15
time step continuity errors : sum local = 3.47776e-06, global = -6.65323e-21, cumulative = 3.32588e-21
ExecutionTime = 0.2 s  ClockTime = 0 s

End

