/*---------------------------------------------------------------------------*\
  =========                 |
  \\      /  F ield         | OpenFOAM: The Open Source CFD Toolbox
   \\    /   O peration     | Website:  https://openfoam.org
    \\  /    A nd           | Version:  8
     \\/     M anipulation  |
\*---------------------------------------------------------------------------*/
Build  : 8-40a5a48f630f
Exec   : icoFoam
Date   : Jul 28 2021
Time   : 02:23:57
Host   : "uc2n476.localdomain"
PID    : 1920461
I/O    : uncollated
Case   : /pfs/data5/home/kit/scc/nq7776/code/OBR/lidDrivenCavity3D/Variation_mesh/25/Variation_matrix_solver/CG_NoPrecond_Serial/base
nProcs : 1
sigFpe : Enabling floating point exception trapping (FOAM_SIGFPE).
fileModificationChecking : Monitoring run-time modified files using timeStampMaster (fileModificationSkew 10)
allowSystemOperations : Allowing user-supplied system call operations

// * * * * * * * * * * * * * * * * * * * * * * * * * * * * * * * * * * * * * //
Create time

Create mesh for time = 0

Reading transportProperties

Reading field p

Reading field U

Reading/calculating face flux field phi


Starting time loop

Time = 0.001

Courant Number mean: 0 max: 0
nonePBiCGStab:  Solving for Ux, Initial residual = 1, Final residual = 0.00310183, No Iterations 5
nonePBiCGStab:  Solving for Uy, Initial residual = 0, Final residual = 0, No Iterations 0
nonePBiCGStab:  Solving for Uz, Initial residual = 0, Final residual = 0, No Iterations 0
linear solve U 2
nonePCG:  Solving for p, Initial residual = 1, Final residual = 9.37899e-05, No Iterations 191
linear solve p 26
time step continuity errors : sum local = 4.79627e-08, global = -1.98047e-20, cumulative = -1.98047e-20
nonePCG:  Solving for p, Initial residual = 0.480526, Final residual = 8.54613e-05, No Iterations 187
linear solve p 25
time step continuity errors : sum local = 7.06721e-08, global = 1.83703e-20, cumulative = -1.43441e-21
ExecutionTime = 0.15 s  ClockTime = 0 s

Time = 0.002

Courant Number mean: 0.01197 max: 0.106554
nonePBiCGStab:  Solving for Ux, Initial residual = 0.210695, Final residual = 0.000695049, No Iterations 5
nonePBiCGStab:  Solving for Uy, Initial residual = 0.284647, Final residual = 0.000644148, No Iterations 5
nonePBiCGStab:  Solving for Uz, Initial residual = 0.89022, Final residual = 0.00332684, No Iterations 5
linear solve U 5
nonePCG:  Solving for p, Initial residual = 0.285782, Final residual = 9.62141e-05, No Iterations 183
linear solve p 24
time step continuity errors : sum local = 7.45837e-08, global = 1.60085e-20, cumulative = 1.45741e-20
nonePCG:  Solving for p, Initial residual = 0.189101, Final residual = 9.79857e-05, No Iterations 179
linear solve p 24
time step continuity errors : sum local = 8.05943e-08, global = -6.3375e-21, cumulative = 8.23657e-21
ExecutionTime = 0.21 s  ClockTime = 0 s

Time = 0.003

Courant Number mean: 0.0188463 max: 0.153562
nonePBiCGStab:  Solving for Ux, Initial residual = 0.0901229, Final residual = 0.000292361, No Iterations 5
nonePBiCGStab:  Solving for Uy, Initial residual = 0.124564, Final residual = 0.000198161, No Iterations 5
nonePBiCGStab:  Solving for Uz, Initial residual = 0.251702, Final residual = 0.000636707, No Iterations 5
linear solve U 5
nonePCG:  Solving for p, Initial residual = 0.101977, Final residual = 9.41984e-05, No Iterations 175
linear solve p 24
time step continuity errors : sum local = 7.28504e-08, global = -3.50274e-20, cumulative = -2.67909e-20
nonePCG:  Solving for p, Initial residual = 0.069482, Final residual = 9.4028e-05, No Iterations 170
linear solve p 23
time step continuity errors : sum local = 7.48228e-08, global = 3.6352e-21, cumulative = -2.31557e-20
ExecutionTime = 0.27 s  ClockTime = 1 s

Time = 0.004

Courant Number mean: 0.0233146 max: 0.175119
nonePBiCGStab:  Solving for Ux, Initial residual = 0.0520909, Final residual = 0.000102882, No Iterations 5
nonePBiCGStab:  Solving for Uy, Initial residual = 0.0743229, Final residual = 6.93001e-05, No Iterations 5
nonePBiCGStab:  Solving for Uz, Initial residual = 0.129589, Final residual = 0.000219505, No Iterations 5
linear solve U 5
nonePCG:  Solving for p, Initial residual = 0.0551884, Final residual = 9.21542e-05, No Iterations 170
linear solve p 23
time step continuity errors : sum local = 7.32445e-08, global = 1.14499e-20, cumulative = -1.17058e-20
nonePCG:  Solving for p, Initial residual = 0.0370386, Final residual = 9.08603e-05, No Iterations 166
linear solve p 22
time step continuity errors : sum local = 7.37004e-08, global = -3.64136e-21, cumulative = -1.53471e-20
ExecutionTime = 0.33 s  ClockTime = 1 s

Time = 0.005

Courant Number mean: 0.026494 max: 0.186504
nonePBiCGStab:  Solving for Ux, Initial residual = 0.0351737, Final residual = 3.75571e-05, No Iterations 5
nonePBiCGStab:  Solving for Uy, Initial residual = 0.050774, Final residual = 2.20224e-05, No Iterations 5
nonePBiCGStab:  Solving for Uz, Initial residual = 0.0911227, Final residual = 0.000119563, No Iterations 5
linear solve U 5
nonePCG:  Solving for p, Initial residual = 0.0348579, Final residual = 9.29201e-05, No Iterations 167
linear solve p 23
time step continuity errors : sum local = 7.58133e-08, global = 6.95669e-21, cumulative = -8.39043e-21
nonePCG:  Solving for p, Initial residual = 0.0230736, Final residual = 9.01106e-05, No Iterations 164
linear solve p 22
time step continuity errors : sum local = 7.443e-08, global = 8.77411e-21, cumulative = 3.83679e-22
ExecutionTime = 0.39 s  ClockTime = 1 s

Time = 0.006

Courant Number mean: 0.0288956 max: 0.193336
nonePBiCGStab:  Solving for Ux, Initial residual = 0.0259745, Final residual = 1.33445e-05, No Iterations 5
nonePBiCGStab:  Solving for Uy, Initial residual = 0.0379623, Final residual = 1.54527e-05, No Iterations 5
nonePBiCGStab:  Solving for Uz, Initial residual = 0.0705706, Final residual = 7.04309e-05, No Iterations 5
linear solve U 5
nonePCG:  Solving for p, Initial residual = 0.0243393, Final residual = 8.69367e-05, No Iterations 166
linear solve p 23
time step continuity errors : sum local = 7.21907e-08, global = 1.33916e-20, cumulative = 1.37753e-20
nonePCG:  Solving for p, Initial residual = 0.0162727, Final residual = 8.62179e-05, No Iterations 162
linear solve p 21
time step continuity errors : sum local = 7.21643e-08, global = 5.91724e-21, cumulative = 1.96925e-20
ExecutionTime = 0.45 s  ClockTime = 1 s

Time = 0.007

Courant Number mean: 0.0308312 max: 0.197891
nonePBiCGStab:  Solving for Ux, Initial residual = 0.0203866, Final residual = 6.63097e-06, No Iterations 5
nonePBiCGStab:  Solving for Uy, Initial residual = 0.0299963, Final residual = 9.3894e-06, No Iterations 5
nonePBiCGStab:  Solving for Uz, Initial residual = 0.0572779, Final residual = 4.11187e-05, No Iterations 5
linear solve U 5
nonePCG:  Solving for p, Initial residual = 0.0185583, Final residual = 9.92154e-05, No Iterations 78
linear solve p 11
time step continuity errors : sum local = 1.05544e-07, global = 2.85553e-21, cumulative = 2.2548e-20
nonePCG:  Solving for p, Initial residual = 0.0125559, Final residual = 8.83104e-05, No Iterations 71
linear solve p 10
time step continuity errors : sum local = 8.40486e-08, global = -6.17759e-21, cumulative = 1.63704e-20
ExecutionTime = 0.48 s  ClockTime = 1 s

Time = 0.008

Courant Number mean: 0.0324768 max: 0.201172
nonePBiCGStab:  Solving for Ux, Initial residual = 0.0165464, Final residual = 5.02197e-06, No Iterations 5
nonePBiCGStab:  Solving for Uy, Initial residual = 0.024589, Final residual = 6.33889e-06, No Iterations 5
nonePBiCGStab:  Solving for Uz, Initial residual = 0.0478318, Final residual = 3.28451e-05, No Iterations 5
linear solve U 5
nonePCG:  Solving for p, Initial residual = 0.0149058, Final residual = 9.76097e-05, No Iterations 74
linear solve p 10
time step continuity errors : sum local = 1.05961e-07, global = 2.72101e-20, cumulative = 4.35806e-20
nonePCG:  Solving for p, Initial residual = 0.0101493, Final residual = 9.44588e-05, No Iterations 69
linear solve p 9
time step continuity errors : sum local = 9.49469e-08, global = 5.45515e-21, cumulative = 4.90357e-20
ExecutionTime = 0.51 s  ClockTime = 1 s

Time = 0.009

Courant Number mean: 0.033881 max: 0.203668
nonePBiCGStab:  Solving for Ux, Initial residual = 0.0138064, Final residual = 3.22676e-06, No Iterations 5
nonePBiCGStab:  Solving for Uy, Initial residual = 0.0206663, Final residual = 4.16838e-06, No Iterations 5
nonePBiCGStab:  Solving for Uz, Initial residual = 0.0407252, Final residual = 2.11693e-05, No Iterations 5
linear solve U 5
nonePCG:  Solving for p, Initial residual = 0.0123407, Final residual = 9.96268e-05, No Iterations 73
linear solve p 10
time step continuity errors : sum local = 1.10926e-07, global = -8.90212e-21, cumulative = 4.01336e-20
nonePCG:  Solving for p, Initial residual = 0.0084552, Final residual = 9.54213e-05, No Iterations 68
linear solve p 9
time step continuity errors : sum local = 1.00385e-07, global = 1.10186e-20, cumulative = 5.11521e-20
ExecutionTime = 0.54 s  ClockTime = 1 s

Time = 0.01

Courant Number mean: 0.0350922 max: 0.205643
nonePBiCGStab:  Solving for Ux, Initial residual = 0.011739, Final residual = 2.26009e-06, No Iterations 5
nonePBiCGStab:  Solving for Uy, Initial residual = 0.0176903, Final residual = 3.07794e-06, No Iterations 5
nonePBiCGStab:  Solving for Uz, Initial residual = 0.0352162, Final residual = 1.63433e-05, No Iterations 5
linear solve U 5
nonePCG:  Solving for p, Initial residual = 0.0104186, Final residual = 9.85907e-05, No Iterations 73
linear solve p 10
time step continuity errors : sum local = 1.12568e-07, global = -1.94238e-20, cumulative = 3.17284e-20
nonePCG:  Solving for p, Initial residual = 0.00717365, Final residual = 9.89984e-05, No Iterations 67
linear solve p 9
time step continuity errors : sum local = 1.07167e-07, global = 1.02682e-20, cumulative = 4.19966e-20
ExecutionTime = 0.58 s  ClockTime = 1 s

End

