/*---------------------------------------------------------------------------*\
  =========                 |
  \\      /  F ield         | OpenFOAM: The Open Source CFD Toolbox
   \\    /   O peration     | Website:  https://openfoam.org
    \\  /    A nd           | Version:  8
     \\/     M anipulation  |
\*---------------------------------------------------------------------------*/
Build  : 8-40a5a48f630f
Exec   : icoFoam
Date   : Jul 27 2021
Time   : 21:49:47
Host   : "uc2n481.localdomain"
PID    : 105409
I/O    : uncollated
Case   : /pfs/data5/home/kit/scc/nq7776/code/OBR/lidDrivenCavity3D/Variation_mesh/90/Variation_matrix_solver/BiCGStab_BJ_CUDA/base
nProcs : 1
sigFpe : Enabling floating point exception trapping (FOAM_SIGFPE).
fileModificationChecking : Monitoring run-time modified files using timeStampMaster (fileModificationSkew 10)
allowSystemOperations : Allowing user-supplied system call operations

// * * * * * * * * * * * * * * * * * * * * * * * * * * * * * * * * * * * * * //
Create time

Create mesh for time = 0

Reading transportProperties

Reading field p

Reading field U

Reading/calculating face flux field phi


Starting time loop

Time = 0.001

Courant Number mean: 0 max: 0
nonePBiCGStab:  Solving for Ux, Initial residual = 1, Final residual = 0.0756268, No Iterations 5
nonePBiCGStab:  Solving for Uy, Initial residual = 0, Final residual = 0, No Iterations 0
nonePBiCGStab:  Solving for Uz, Initial residual = 0, Final residual = 0, No Iterations 0
linear solve U 201
[OGL LOG] init_host_sparsity_pattern : 222 ms
[OGL LOG] matrix not stored update host matrix
[OGL LOG] update_host_mtx : 110 ms
[OGL LOG] matrix is not yet sorted, compute sorting idxs
[OGL LOG] compute_sort : 6659 ms
[OGL LOG] matrix is not yet sorted, sorting host matrix
[OGL LOG] sort_host_mtx_sparsity_pattern : 148 ms
[OGL LOG] sort_host_mtx : 83 ms
[OGL LOG] init_preconditioner : 79 ms
[OGL LOG] solve : 960 ms
BJcudaGKOBiCGStab:  Solving for p, Initial residual = 1, Final residual = 8.49786e-05, No Iterations 468
linear solve p 9095
time step continuity errors : sum local = 0.000583673, global = -1.27038e-19, cumulative = -1.27038e-19
[OGL LOG] init_host_sparsity_pattern : 212 ms
[OGL LOG] matrix not stored update host matrix
[OGL LOG] update_host_mtx : 116 ms
[OGL LOG] matrix is not yet sorted, sorting host matrix
[OGL LOG] sort_host_mtx_sparsity_pattern : 156 ms
[OGL LOG] sort_host_mtx : 76 ms
[OGL LOG] init_preconditioner : 0 ms
[OGL LOG] solve : 890 ms
BJcudaGKOBiCGStab:  Solving for p, Initial residual = 0.876989, Final residual = 4.99446e-05, No Iterations 437
linear solve p 1496
time step continuity errors : sum local = 0.00738797, global = -1.52688e-17, cumulative = -1.53958e-17
ExecutionTime = 13.92 s  ClockTime = 14 s

Time = 0.002

Courant Number mean: 0.0437982 max: 0.843553
nonePBiCGStab:  Solving for Ux, Initial residual = 0.140265, Final residual = 0.0349448, No Iterations 5
nonePBiCGStab:  Solving for Uy, Initial residual = 0.433294, Final residual = 0.137961, No Iterations 5
nonePBiCGStab:  Solving for Uz, Initial residual = 0.702685, Final residual = 0.237522, No Iterations 5
linear solve U 406
[OGL LOG] init_host_sparsity_pattern : 223 ms
[OGL LOG] matrix not stored update host matrix
[OGL LOG] update_host_mtx : 112 ms
[OGL LOG] matrix is not yet sorted, sorting host matrix
[OGL LOG] sort_host_mtx_sparsity_pattern : 159 ms
[OGL LOG] sort_host_mtx : 75 ms
[OGL LOG] init_preconditioner : 0 ms
[OGL LOG] solve : 780 ms
BJcudaGKOBiCGStab:  Solving for p, Initial residual = 0.996093, Final residual = 9.65193e-05, No Iterations 386
linear solve p 1400
time step continuity errors : sum local = 0.00842137, global = -4.04961e-18, cumulative = -1.94454e-17
[OGL LOG] init_host_sparsity_pattern : 225 ms
[OGL LOG] matrix not stored update host matrix
[OGL LOG] update_host_mtx : 111 ms
[OGL LOG] matrix is not yet sorted, sorting host matrix
[OGL LOG] sort_host_mtx_sparsity_pattern : 151 ms
[OGL LOG] sort_host_mtx : 76 ms
[OGL LOG] init_preconditioner : 0 ms
[OGL LOG] solve : 385 ms
BJcudaGKOBiCGStab:  Solving for p, Initial residual = 0.817313, Final residual = 9.90025e-05, No Iterations 189
linear solve p 996
time step continuity errors : sum local = 5.29575e-06, global = -2.64207e-21, cumulative = -1.94481e-17
ExecutionTime = 17.15 s  ClockTime = 17 s

Time = 0.003

Courant Number mean: 0.079751 max: 1.3363
nonePBiCGStab:  Solving for Ux, Initial residual = 0.120368, Final residual = 0.0308951, No Iterations 5
nonePBiCGStab:  Solving for Uy, Initial residual = 0.45895, Final residual = 0.136677, No Iterations 5
nonePBiCGStab:  Solving for Uz, Initial residual = 0.837954, Final residual = 0.196427, No Iterations 5
linear solve U 401
[OGL LOG] init_host_sparsity_pattern : 242 ms
[OGL LOG] matrix not stored update host matrix
[OGL LOG] update_host_mtx : 110 ms
[OGL LOG] matrix is not yet sorted, sorting host matrix
[OGL LOG] sort_host_mtx_sparsity_pattern : 155 ms
[OGL LOG] sort_host_mtx : 76 ms
[OGL LOG] init_preconditioner : 0 ms
[OGL LOG] solve : 824 ms
BJcudaGKOBiCGStab:  Solving for p, Initial residual = 0.988718, Final residual = 9.83023e-05, No Iterations 407
linear solve p 1454
time step continuity errors : sum local = 0.036729, global = -9.08046e-17, cumulative = -1.10253e-16
[OGL LOG] init_host_sparsity_pattern : 236 ms
[OGL LOG] matrix not stored update host matrix
[OGL LOG] update_host_mtx : 109 ms
[OGL LOG] matrix is not yet sorted, sorting host matrix
[OGL LOG] sort_host_mtx_sparsity_pattern : 155 ms
[OGL LOG] sort_host_mtx : 76 ms
[OGL LOG] init_preconditioner : 0 ms
[OGL LOG] solve : 356 ms
BJcudaGKOBiCGStab:  Solving for p, Initial residual = 0.766473, Final residual = 9.83035e-05, No Iterations 174
linear solve p 980
time step continuity errors : sum local = 2.10955e-05, global = 1.23304e-19, cumulative = -1.10129e-16
ExecutionTime = 20.44 s  ClockTime = 20 s

Time = 0.004

Courant Number mean: 0.0926542 max: 3.51625
nonePBiCGStab:  Solving for Ux, Initial residual = 0.139431, Final residual = 0.0464292, No Iterations 5
nonePBiCGStab:  Solving for Uy, Initial residual = 0.492243, Final residual = 0.185758, No Iterations 5
nonePBiCGStab:  Solving for Uz, Initial residual = 0.864738, Final residual = 0.238907, No Iterations 5
linear solve U 403
[OGL LOG] init_host_sparsity_pattern : 223 ms
[OGL LOG] matrix not stored update host matrix
[OGL LOG] update_host_mtx : 112 ms
[OGL LOG] matrix is not yet sorted, sorting host matrix
[OGL LOG] sort_host_mtx_sparsity_pattern : 152 ms
[OGL LOG] sort_host_mtx : 77 ms
[OGL LOG] init_preconditioner : 0 ms
[OGL LOG] solve : 734 ms
BJcudaGKOBiCGStab:  Solving for p, Initial residual = 0.989893, Final residual = 9.36048e-05, No Iterations 363
linear solve p 1345
time step continuity errors : sum local = 1.12957, global = -1.13533e-15, cumulative = -1.24546e-15
[OGL LOG] init_host_sparsity_pattern : 235 ms
[OGL LOG] matrix not stored update host matrix
[OGL LOG] update_host_mtx : 109 ms
[OGL LOG] matrix is not yet sorted, sorting host matrix
[OGL LOG] sort_host_mtx_sparsity_pattern : 150 ms
[OGL LOG] sort_host_mtx : 84 ms
[OGL LOG] init_preconditioner : 0 ms
[OGL LOG] solve : 271 ms
BJcudaGKOBiCGStab:  Solving for p, Initial residual = 0.879997, Final residual = 9.80256e-05, No Iterations 131
linear solve p 902
time step continuity errors : sum local = 0.31982, global = 1.82308e-16, cumulative = -1.06315e-15
ExecutionTime = 23.52 s  ClockTime = 23 s

Time = 0.005

Courant Number mean: 0.672335 max: 20.2675
nonePBiCGStab:  Solving for Ux, Initial residual = 0.557151, Final residual = 0.225999, No Iterations 5
nonePBiCGStab:  Solving for Uy, Initial residual = 0.735193, Final residual = 0.288756, No Iterations 5
nonePBiCGStab:  Solving for Uz, Initial residual = 0.934732, Final residual = 0.297987, No Iterations 5
linear solve U 401
[OGL LOG] init_host_sparsity_pattern : 234 ms
[OGL LOG] matrix not stored update host matrix
[OGL LOG] update_host_mtx : 109 ms
[OGL LOG] matrix is not yet sorted, sorting host matrix
[OGL LOG] sort_host_mtx_sparsity_pattern : 152 ms
[OGL LOG] sort_host_mtx : 76 ms
[OGL LOG] init_preconditioner : 0 ms
[OGL LOG] solve : 347 ms
BJcudaGKOBiCGStab:  Solving for p, Initial residual = 0.959839, Final residual = 9.93785e-05, No Iterations 168
linear solve p 967
time step continuity errors : sum local = 0.00246252, global = 1.33568e-17, cumulative = -1.04979e-15
[OGL LOG] init_host_sparsity_pattern : 222 ms
[OGL LOG] matrix not stored update host matrix
[OGL LOG] update_host_mtx : 109 ms
[OGL LOG] matrix is not yet sorted, sorting host matrix
[OGL LOG] sort_host_mtx_sparsity_pattern : 151 ms
[OGL LOG] sort_host_mtx : 75 ms
[OGL LOG] init_preconditioner : 0 ms
[OGL LOG] solve : 268 ms
BJcudaGKOBiCGStab:  Solving for p, Initial residual = 0.782659, Final residual = 7.60911e-05, No Iterations 130
linear solve p 873
time step continuity errors : sum local = 0.0863421, global = -1.1603e-16, cumulative = -1.16582e-15
ExecutionTime = 26.2 s  ClockTime = 26 s

Time = 0.006

Courant Number mean: 4.828 max: 136.746
nonePBiCGStab:  Solving for Ux, Initial residual = 0.883753, Final residual = 0.613238, No Iterations 5
nonePBiCGStab:  Solving for Uy, Initial residual = 0.847503, Final residual = 0.552694, No Iterations 5
nonePBiCGStab:  Solving for Uz, Initial residual = 0.770212, Final residual = 0.336981, No Iterations 5
linear solve U 402
[OGL LOG] init_host_sparsity_pattern : 212 ms
[OGL LOG] matrix not stored update host matrix
[OGL LOG] update_host_mtx : 111 ms
[OGL LOG] matrix is not yet sorted, sorting host matrix
[OGL LOG] sort_host_mtx_sparsity_pattern : 151 ms
[OGL LOG] sort_host_mtx : 75 ms
[OGL LOG] init_preconditioner : 0 ms
[OGL LOG] solve : 372 ms
BJcudaGKOBiCGStab:  Solving for p, Initial residual = 0.921245, Final residual = 9.07414e-05, No Iterations 182
linear solve p 971
time step continuity errors : sum local = 0.00138073, global = 6.07282e-20, cumulative = -1.16576e-15
[OGL LOG] init_host_sparsity_pattern : 219 ms
[OGL LOG] matrix not stored update host matrix
[OGL LOG] update_host_mtx : 111 ms
[OGL LOG] matrix is not yet sorted, sorting host matrix
[OGL LOG] sort_host_mtx_sparsity_pattern : 151 ms
[OGL LOG] sort_host_mtx : 75 ms
[OGL LOG] init_preconditioner : 0 ms
[OGL LOG] solve : 344 ms
BJcudaGKOBiCGStab:  Solving for p, Initial residual = 0.721445, Final residual = 9.44996e-05, No Iterations 168
linear solve p 949
time step continuity errors : sum local = 0.00238036, global = 7.10085e-19, cumulative = -1.16505e-15
ExecutionTime = 28.97 s  ClockTime = 29 s

Time = 0.007

Courant Number mean: 3.20657 max: 87.4937
nonePBiCGStab:  Solving for Ux, Initial residual = 0.617336, Final residual = 0.266841, No Iterations 5
nonePBiCGStab:  Solving for Uy, Initial residual = 0.601902, Final residual = 0.284493, No Iterations 5
nonePBiCGStab:  Solving for Uz, Initial residual = 0.83195, Final residual = 0.24139, No Iterations 5
linear solve U 410
[OGL LOG] init_host_sparsity_pattern : 206 ms
[OGL LOG] matrix not stored update host matrix
[OGL LOG] update_host_mtx : 109 ms
[OGL LOG] matrix is not yet sorted, sorting host matrix
[OGL LOG] sort_host_mtx_sparsity_pattern : 155 ms
[OGL LOG] sort_host_mtx : 76 ms
[OGL LOG] init_preconditioner : 0 ms
[OGL LOG] solve : 354 ms
BJcudaGKOBiCGStab:  Solving for p, Initial residual = 0.924252, Final residual = 8.96035e-05, No Iterations 172
linear solve p 948
time step continuity errors : sum local = 0.000900032, global = -7.42696e-19, cumulative = -1.16579e-15
[OGL LOG] init_host_sparsity_pattern : 233 ms
[OGL LOG] matrix not stored update host matrix
[OGL LOG] update_host_mtx : 109 ms
[OGL LOG] matrix is not yet sorted, sorting host matrix
[OGL LOG] sort_host_mtx_sparsity_pattern : 153 ms
[OGL LOG] sort_host_mtx : 76 ms
[OGL LOG] init_preconditioner : 0 ms
[OGL LOG] solve : 352 ms
BJcudaGKOBiCGStab:  Solving for p, Initial residual = 0.733323, Final residual = 9.67027e-05, No Iterations 170
linear solve p 970
time step continuity errors : sum local = 0.000418184, global = 2.75054e-18, cumulative = -1.16304e-15
ExecutionTime = 31.73 s  ClockTime = 32 s

Time = 0.008

Courant Number mean: 2.40066 max: 49.7043
nonePBiCGStab:  Solving for Ux, Initial residual = 0.595131, Final residual = 0.180779, No Iterations 5
nonePBiCGStab:  Solving for Uy, Initial residual = 0.618035, Final residual = 0.157074, No Iterations 5
nonePBiCGStab:  Solving for Uz, Initial residual = 0.809243, Final residual = 0.103855, No Iterations 5
linear solve U 401
[OGL LOG] init_host_sparsity_pattern : 224 ms
[OGL LOG] matrix not stored update host matrix
[OGL LOG] update_host_mtx : 109 ms
[OGL LOG] matrix is not yet sorted, sorting host matrix
[OGL LOG] sort_host_mtx_sparsity_pattern : 151 ms
[OGL LOG] sort_host_mtx : 76 ms
[OGL LOG] init_preconditioner : 0 ms
[OGL LOG] solve : 808 ms
BJcudaGKOBiCGStab:  Solving for p, Initial residual = 0.952435, Final residual = 9.77e-05, No Iterations 396
linear solve p 1416
time step continuity errors : sum local = 0.00902973, global = 7.11407e-18, cumulative = -1.15593e-15
[OGL LOG] init_host_sparsity_pattern : 217 ms
[OGL LOG] matrix not stored update host matrix
[OGL LOG] update_host_mtx : 109 ms
[OGL LOG] matrix is not yet sorted, sorting host matrix
[OGL LOG] sort_host_mtx_sparsity_pattern : 151 ms
[OGL LOG] sort_host_mtx : 75 ms
[OGL LOG] init_preconditioner : 0 ms
[OGL LOG] solve : 790 ms
BJcudaGKOBiCGStab:  Solving for p, Initial residual = 0.74063, Final residual = 9.67265e-05, No Iterations 381
linear solve p 1389
time step continuity errors : sum local = 0.000131582, global = -1.51086e-19, cumulative = -1.15608e-15
ExecutionTime = 35.37 s  ClockTime = 35 s

Time = 0.009

Courant Number mean: 1.76038 max: 21.2906
nonePBiCGStab:  Solving for Ux, Initial residual = 0.499333, Final residual = 0.108363, No Iterations 5
nonePBiCGStab:  Solving for Uy, Initial residual = 0.588907, Final residual = 0.11565, No Iterations 5
nonePBiCGStab:  Solving for Uz, Initial residual = 0.843346, Final residual = 0.0589883, No Iterations 5
linear solve U 402
[OGL LOG] init_host_sparsity_pattern : 235 ms
[OGL LOG] matrix not stored update host matrix
[OGL LOG] update_host_mtx : 109 ms
[OGL LOG] matrix is not yet sorted, sorting host matrix
[OGL LOG] sort_host_mtx_sparsity_pattern : 151 ms
[OGL LOG] sort_host_mtx : 76 ms
[OGL LOG] init_preconditioner : 0 ms
[OGL LOG] solve : 283 ms
BJcudaGKOBiCGStab:  Solving for p, Initial residual = 0.969565, Final residual = 9.87615e-05, No Iterations 135
linear solve p 903
time step continuity errors : sum local = 0.000180871, global = 6.29062e-19, cumulative = -1.15545e-15
[OGL LOG] init_host_sparsity_pattern : 237 ms
[OGL LOG] matrix not stored update host matrix
[OGL LOG] update_host_mtx : 110 ms
[OGL LOG] matrix is not yet sorted, sorting host matrix
[OGL LOG] sort_host_mtx_sparsity_pattern : 151 ms
[OGL LOG] sort_host_mtx : 76 ms
[OGL LOG] init_preconditioner : 0 ms
[OGL LOG] solve : 287 ms
BJcudaGKOBiCGStab:  Solving for p, Initial residual = 0.746444, Final residual = 9.78637e-05, No Iterations 137
linear solve p 909
time step continuity errors : sum local = 0.00012476, global = 1.03658e-18, cumulative = -1.15441e-15
ExecutionTime = 38.01 s  ClockTime = 38 s

Time = 0.01

Courant Number mean: 1.3507 max: 12.766
nonePBiCGStab:  Solving for Ux, Initial residual = 0.397906, Final residual = 0.0711814, No Iterations 5
nonePBiCGStab:  Solving for Uy, Initial residual = 0.51916, Final residual = 0.0934152, No Iterations 5
nonePBiCGStab:  Solving for Uz, Initial residual = 0.844839, Final residual = 0.0461728, No Iterations 5
linear solve U 403
[OGL LOG] init_host_sparsity_pattern : 232 ms
[OGL LOG] matrix not stored update host matrix
[OGL LOG] update_host_mtx : 110 ms
[OGL LOG] matrix is not yet sorted, sorting host matrix
[OGL LOG] sort_host_mtx_sparsity_pattern : 152 ms
[OGL LOG] sort_host_mtx : 76 ms
[OGL LOG] init_preconditioner : 0 ms
[OGL LOG] solve : 321 ms
BJcudaGKOBiCGStab:  Solving for p, Initial residual = 0.981055, Final residual = 8.0701e-05, No Iterations 153
linear solve p 939
time step continuity errors : sum local = 0.000114999, global = -5.84243e-19, cumulative = -1.155e-15
[OGL LOG] init_host_sparsity_pattern : 249 ms
[OGL LOG] matrix not stored update host matrix
[OGL LOG] update_host_mtx : 108 ms
[OGL LOG] matrix is not yet sorted, sorting host matrix
[OGL LOG] sort_host_mtx_sparsity_pattern : 152 ms
[OGL LOG] sort_host_mtx : 76 ms
[OGL LOG] init_preconditioner : 0 ms
[OGL LOG] solve : 315 ms
BJcudaGKOBiCGStab:  Solving for p, Initial residual = 0.754091, Final residual = 9.62206e-05, No Iterations 149
linear solve p 948
time step continuity errors : sum local = 0.000153526, global = -5.9623e-19, cumulative = -1.1556e-15
ExecutionTime = 40.74 s  ClockTime = 41 s

End

