/*---------------------------------------------------------------------------*\
  =========                 |
  \\      /  F ield         | OpenFOAM: The Open Source CFD Toolbox
   \\    /   O peration     | Website:  https://openfoam.org
    \\  /    A nd           | Version:  8
     \\/     M anipulation  |
\*---------------------------------------------------------------------------*/
Build  : 8-40a5a48f630f
Exec   : icoFoam
Date   : Jul 28 2021
Time   : 02:39:59
Host   : "uc2n450.localdomain"
PID    : 361874
I/O    : uncollated
Case   : /pfs/data5/home/kit/scc/nq7776/code/OBR/lidDrivenCavity3D/Variation_mesh/40/Variation_matrix_solver/BiCGStab_BJ_OMP/base
nProcs : 1
sigFpe : Enabling floating point exception trapping (FOAM_SIGFPE).
fileModificationChecking : Monitoring run-time modified files using timeStampMaster (fileModificationSkew 10)
allowSystemOperations : Allowing user-supplied system call operations

// * * * * * * * * * * * * * * * * * * * * * * * * * * * * * * * * * * * * * //
Create time

Create mesh for time = 0

Reading transportProperties

Reading field p

Reading field U

Reading/calculating face flux field phi


Starting time loop

Time = 0.001

Courant Number mean: 0 max: 0
nonePBiCGStab:  Solving for Ux, Initial residual = 1, Final residual = 0.0197517, No Iterations 5
nonePBiCGStab:  Solving for Uy, Initial residual = 0, Final residual = 0, No Iterations 0
nonePBiCGStab:  Solving for Uz, Initial residual = 0, Final residual = 0, No Iterations 0
linear solve U 14
[OGL LOG] init_host_sparsity_pattern : 18 ms
[OGL LOG] matrix not stored update host matrix
[OGL LOG] update_host_mtx : 9 ms
[OGL LOG] matrix is not yet sorted, compute sorting idxs
[OGL LOG] compute_sort : 481 ms
[OGL LOG] matrix is not yet sorted, sorting host matrix
[OGL LOG] sort_host_mtx_sparsity_pattern : 12 ms
[OGL LOG] sort_host_mtx : 7 ms
[OGL LOG] init_preconditioner : 13 ms
[OGL LOG] solve : 18418 ms
BJompGKOBiCGStab:  Solving for p, Initial residual = 1, Final residual = 8.62669e-05, No Iterations 202
linear solve p 19025
time step continuity errors : sum local = 3.48439e-07, global = -2.36218e-20, cumulative = -2.36218e-20
[OGL LOG] init_host_sparsity_pattern : 18 ms
[OGL LOG] matrix not stored update host matrix
[OGL LOG] update_host_mtx : 9 ms
[OGL LOG] matrix is not yet sorted, sorting host matrix
[OGL LOG] sort_host_mtx_sparsity_pattern : 13 ms
[OGL LOG] sort_host_mtx : 6 ms
[OGL LOG] init_preconditioner : 0 ms
[OGL LOG] solve : 489 ms
BJompGKOBiCGStab:  Solving for p, Initial residual = 0.598907, Final residual = 7.79611e-05, No Iterations 203
linear solve p 546
time step continuity errors : sum local = 5.87717e-06, global = 4.63769e-21, cumulative = -1.89841e-20
ExecutionTime = 274.4 s  ClockTime = 20 s

Time = 0.002

Courant Number mean: 0.0210306 max: 0.237022
nonePBiCGStab:  Solving for Ux, Initial residual = 0.177445, Final residual = 0.00673337, No Iterations 5
nonePBiCGStab:  Solving for Uy, Initial residual = 0.294536, Final residual = 0.00823181, No Iterations 5
nonePBiCGStab:  Solving for Uz, Initial residual = 0.887391, Final residual = 0.0360621, No Iterations 5
linear solve U 27
[OGL LOG] init_host_sparsity_pattern : 17 ms
[OGL LOG] matrix not stored update host matrix
[OGL LOG] update_host_mtx : 9 ms
[OGL LOG] matrix is not yet sorted, sorting host matrix
[OGL LOG] sort_host_mtx_sparsity_pattern : 13 ms
[OGL LOG] sort_host_mtx : 6 ms
[OGL LOG] init_preconditioner : 0 ms
[OGL LOG] solve : 467 ms
BJompGKOBiCGStab:  Solving for p, Initial residual = 0.46156, Final residual = 7.05441e-05, No Iterations 194
linear solve p 522
time step continuity errors : sum local = 1.423e-06, global = 1.12101e-20, cumulative = -7.774e-21
[OGL LOG] init_host_sparsity_pattern : 18 ms
[OGL LOG] matrix not stored update host matrix
[OGL LOG] update_host_mtx : 9 ms
[OGL LOG] matrix is not yet sorted, sorting host matrix
[OGL LOG] sort_host_mtx_sparsity_pattern : 13 ms
[OGL LOG] sort_host_mtx : 6 ms
[OGL LOG] init_preconditioner : 0 ms
[OGL LOG] solve : 257 ms
BJompGKOBiCGStab:  Solving for p, Initial residual = 0.363718, Final residual = 8.82489e-05, No Iterations 107
linear solve p 313
time step continuity errors : sum local = 7.87811e-08, global = -8.7315e-21, cumulative = -1.65055e-20
ExecutionTime = 286.32 s  ClockTime = 21 s

Time = 0.003

Courant Number mean: 0.0320994 max: 0.305883
nonePBiCGStab:  Solving for Ux, Initial residual = 0.066014, Final residual = 0.00131651, No Iterations 5
nonePBiCGStab:  Solving for Uy, Initial residual = 0.10738, Final residual = 0.00182375, No Iterations 5
nonePBiCGStab:  Solving for Uz, Initial residual = 0.203366, Final residual = 0.0118128, No Iterations 5
linear solve U 27
[OGL LOG] init_host_sparsity_pattern : 18 ms
[OGL LOG] matrix not stored update host matrix
[OGL LOG] update_host_mtx : 9 ms
[OGL LOG] matrix is not yet sorted, sorting host matrix
[OGL LOG] sort_host_mtx_sparsity_pattern : 13 ms
[OGL LOG] sort_host_mtx : 6 ms
[OGL LOG] init_preconditioner : 0 ms
[OGL LOG] solve : 392 ms
BJompGKOBiCGStab:  Solving for p, Initial residual = 0.166206, Final residual = 8.80775e-05, No Iterations 162
linear solve p 447
time step continuity errors : sum local = 4.4453e-07, global = 1.93721e-20, cumulative = 2.86658e-21
[OGL LOG] init_host_sparsity_pattern : 18 ms
[OGL LOG] matrix not stored update host matrix
[OGL LOG] update_host_mtx : 9 ms
[OGL LOG] matrix is not yet sorted, sorting host matrix
[OGL LOG] sort_host_mtx_sparsity_pattern : 13 ms
[OGL LOG] sort_host_mtx : 6 ms
[OGL LOG] init_preconditioner : 0 ms
[OGL LOG] solve : 18372 ms
BJompGKOBiCGStab:  Solving for p, Initial residual = 0.130182, Final residual = 9.93097e-05, No Iterations 175
linear solve p 18429
time step continuity errors : sum local = 1.41408e-07, global = -1.13382e-20, cumulative = -8.4716e-21
ExecutionTime = 561.9 s  ClockTime = 40 s

Time = 0.004

Courant Number mean: 0.0386674 max: 0.327549
nonePBiCGStab:  Solving for Ux, Initial residual = 0.0386759, Final residual = 0.000604545, No Iterations 5
nonePBiCGStab:  Solving for Uy, Initial residual = 0.0674768, Final residual = 0.000692269, No Iterations 5
nonePBiCGStab:  Solving for Uz, Initial residual = 0.134992, Final residual = 0.00421288, No Iterations 5
linear solve U 26
[OGL LOG] init_host_sparsity_pattern : 17 ms
[OGL LOG] matrix not stored update host matrix
[OGL LOG] update_host_mtx : 9 ms
[OGL LOG] matrix is not yet sorted, sorting host matrix
[OGL LOG] sort_host_mtx_sparsity_pattern : 13 ms
[OGL LOG] sort_host_mtx : 6 ms
[OGL LOG] init_preconditioner : 0 ms
[OGL LOG] solve : 33263 ms
BJompGKOBiCGStab:  Solving for p, Initial residual = 0.0868287, Final residual = 9.82154e-05, No Iterations 179
linear solve p 33333
time step continuity errors : sum local = 2.03627e-07, global = 1.43146e-21, cumulative = -7.04013e-21
[OGL LOG] init_host_sparsity_pattern : 18 ms
[OGL LOG] matrix not stored update host matrix
[OGL LOG] update_host_mtx : 9 ms
[OGL LOG] matrix is not yet sorted, sorting host matrix
[OGL LOG] sort_host_mtx_sparsity_pattern : 13 ms
[OGL LOG] sort_host_mtx : 6 ms
[OGL LOG] init_preconditioner : 0 ms
[OGL LOG] solve : 20783 ms
BJompGKOBiCGStab:  Solving for p, Initial residual = 0.066841, Final residual = 8.19543e-05, No Iterations 174
linear solve p 20851
time step continuity errors : sum local = 2.70454e-07, global = 1.3927e-20, cumulative = 6.88683e-21
ExecutionTime = 1322.14 s  ClockTime = 94 s

Time = 0.005

Courant Number mean: 0.0434726 max: 0.337859
nonePBiCGStab:  Solving for Ux, Initial residual = 0.0269258, Final residual = 0.000338822, No Iterations 5
nonePBiCGStab:  Solving for Uy, Initial residual = 0.046781, Final residual = 0.000561764, No Iterations 5
nonePBiCGStab:  Solving for Uz, Initial residual = 0.093556, Final residual = 0.0025848, No Iterations 5
linear solve U 27
[OGL LOG] init_host_sparsity_pattern : 17 ms
[OGL LOG] matrix not stored update host matrix
[OGL LOG] update_host_mtx : 9 ms
[OGL LOG] matrix is not yet sorted, sorting host matrix
[OGL LOG] sort_host_mtx_sparsity_pattern : 13 ms
[OGL LOG] sort_host_mtx : 6 ms
[OGL LOG] init_preconditioner : 0 ms
[OGL LOG] solve : 433 ms
BJompGKOBiCGStab:  Solving for p, Initial residual = 0.0448972, Final residual = 7.5372e-05, No Iterations 179
linear solve p 489
time step continuity errors : sum local = 1.83568e-06, global = -8.85894e-21, cumulative = -1.97211e-21
[OGL LOG] init_host_sparsity_pattern : 18 ms
[OGL LOG] matrix not stored update host matrix
[OGL LOG] update_host_mtx : 9 ms
[OGL LOG] matrix is not yet sorted, sorting host matrix
[OGL LOG] sort_host_mtx_sparsity_pattern : 13 ms
[OGL LOG] sort_host_mtx : 6 ms
[OGL LOG] init_preconditioner : 0 ms
[OGL LOG] solve : 419 ms
BJompGKOBiCGStab:  Solving for p, Initial residual = 0.0385025, Final residual = 9.96653e-05, No Iterations 174
linear solve p 474
time step continuity errors : sum local = 6.90685e-07, global = 2.7473e-20, cumulative = 2.55008e-20
ExecutionTime = 1336.11 s  ClockTime = 95 s

Time = 0.006

Courant Number mean: 0.047192 max: 0.34402
nonePBiCGStab:  Solving for Ux, Initial residual = 0.0204049, Final residual = 0.000278419, No Iterations 5
nonePBiCGStab:  Solving for Uy, Initial residual = 0.0359626, Final residual = 0.000452711, No Iterations 5
nonePBiCGStab:  Solving for Uz, Initial residual = 0.0802239, Final residual = 0.00279665, No Iterations 5
linear solve U 27
[OGL LOG] init_host_sparsity_pattern : 17 ms
[OGL LOG] matrix not stored update host matrix
[OGL LOG] update_host_mtx : 9 ms
[OGL LOG] matrix is not yet sorted, sorting host matrix
[OGL LOG] sort_host_mtx_sparsity_pattern : 12 ms
[OGL LOG] sort_host_mtx : 6 ms
[OGL LOG] init_preconditioner : 0 ms
[OGL LOG] solve : 378 ms
BJompGKOBiCGStab:  Solving for p, Initial residual = 0.0318954, Final residual = 9.567e-05, No Iterations 156
linear solve p 433
time step continuity errors : sum local = 9.62776e-08, global = -8.75906e-21, cumulative = 1.67418e-20
[OGL LOG] init_host_sparsity_pattern : 18 ms
[OGL LOG] matrix not stored update host matrix
[OGL LOG] update_host_mtx : 9 ms
[OGL LOG] matrix is not yet sorted, sorting host matrix
[OGL LOG] sort_host_mtx_sparsity_pattern : 12 ms
[OGL LOG] sort_host_mtx : 6 ms
[OGL LOG] init_preconditioner : 0 ms
[OGL LOG] solve : 160 ms
BJompGKOBiCGStab:  Solving for p, Initial residual = 0.0253194, Final residual = 9.10648e-05, No Iterations 67
linear solve p 216
time step continuity errors : sum local = 9.89256e-08, global = 1.36574e-21, cumulative = 1.81075e-20
ExecutionTime = 1345.08 s  ClockTime = 96 s

Time = 0.007

Courant Number mean: 0.0502244 max: 0.348248
nonePBiCGStab:  Solving for Ux, Initial residual = 0.0163811, Final residual = 0.00017518, No Iterations 5
nonePBiCGStab:  Solving for Uy, Initial residual = 0.0284745, Final residual = 0.000258695, No Iterations 5
nonePBiCGStab:  Solving for Uz, Initial residual = 0.0622564, Final residual = 0.0017082, No Iterations 5
linear solve U 27
[OGL LOG] init_host_sparsity_pattern : 17 ms
[OGL LOG] matrix not stored update host matrix
[OGL LOG] update_host_mtx : 9 ms
[OGL LOG] matrix is not yet sorted, sorting host matrix
[OGL LOG] sort_host_mtx_sparsity_pattern : 12 ms
[OGL LOG] sort_host_mtx : 6 ms
[OGL LOG] init_preconditioner : 0 ms
[OGL LOG] solve : 421 ms
BJompGKOBiCGStab:  Solving for p, Initial residual = 0.0240838, Final residual = 9.23093e-05, No Iterations 175
linear solve p 476
time step continuity errors : sum local = 6.09179e-08, global = -9.1416e-21, cumulative = 8.96593e-21
[OGL LOG] init_host_sparsity_pattern : 18 ms
[OGL LOG] matrix not stored update host matrix
[OGL LOG] update_host_mtx : 9 ms
[OGL LOG] matrix is not yet sorted, sorting host matrix
[OGL LOG] sort_host_mtx_sparsity_pattern : 12 ms
[OGL LOG] sort_host_mtx : 6 ms
[OGL LOG] init_preconditioner : 0 ms
[OGL LOG] solve : 299 ms
BJompGKOBiCGStab:  Solving for p, Initial residual = 0.0200133, Final residual = 9.8081e-05, No Iterations 125
linear solve p 355
time step continuity errors : sum local = 1.99806e-07, global = 1.07308e-20, cumulative = 1.96967e-20
ExecutionTime = 1356.96 s  ClockTime = 97 s

Time = 0.008

Courant Number mean: 0.0527925 max: 0.351361
nonePBiCGStab:  Solving for Ux, Initial residual = 0.013345, Final residual = 0.000108245, No Iterations 5
nonePBiCGStab:  Solving for Uy, Initial residual = 0.0237455, Final residual = 0.000160405, No Iterations 5
nonePBiCGStab:  Solving for Uz, Initial residual = 0.0516805, Final residual = 0.00140434, No Iterations 5
linear solve U 27
[OGL LOG] init_host_sparsity_pattern : 17 ms
[OGL LOG] matrix not stored update host matrix
[OGL LOG] update_host_mtx : 9 ms
[OGL LOG] matrix is not yet sorted, sorting host matrix
[OGL LOG] sort_host_mtx_sparsity_pattern : 12 ms
[OGL LOG] sort_host_mtx : 6 ms
[OGL LOG] init_preconditioner : 0 ms
[OGL LOG] solve : 403 ms
BJompGKOBiCGStab:  Solving for p, Initial residual = 0.0192857, Final residual = 9.98324e-05, No Iterations 167
linear solve p 459
time step continuity errors : sum local = 6.7475e-08, global = 3.48105e-21, cumulative = 2.31777e-20
[OGL LOG] init_host_sparsity_pattern : 18 ms
[OGL LOG] matrix not stored update host matrix
[OGL LOG] update_host_mtx : 9 ms
[OGL LOG] matrix is not yet sorted, sorting host matrix
[OGL LOG] sort_host_mtx_sparsity_pattern : 12 ms
[OGL LOG] sort_host_mtx : 6 ms
[OGL LOG] init_preconditioner : 0 ms
[OGL LOG] solve : 298 ms
BJompGKOBiCGStab:  Solving for p, Initial residual = 0.0161552, Final residual = 9.41862e-05, No Iterations 124
linear solve p 353
time step continuity errors : sum local = 2.12596e-07, global = -7.31654e-22, cumulative = 2.24461e-20
ExecutionTime = 1368.52 s  ClockTime = 98 s

Time = 0.009

Courant Number mean: 0.0549808 max: 0.353777
nonePBiCGStab:  Solving for Ux, Initial residual = 0.0113134, Final residual = 8.95307e-05, No Iterations 5
nonePBiCGStab:  Solving for Uy, Initial residual = 0.0198658, Final residual = 0.000169224, No Iterations 5
nonePBiCGStab:  Solving for Uz, Initial residual = 0.0436771, Final residual = 0.00117, No Iterations 5
linear solve U 27
[OGL LOG] init_host_sparsity_pattern : 17 ms
[OGL LOG] matrix not stored update host matrix
[OGL LOG] update_host_mtx : 9 ms
[OGL LOG] matrix is not yet sorted, sorting host matrix
[OGL LOG] sort_host_mtx_sparsity_pattern : 12 ms
[OGL LOG] sort_host_mtx : 6 ms
[OGL LOG] init_preconditioner : 0 ms
[OGL LOG] solve : 417 ms
BJompGKOBiCGStab:  Solving for p, Initial residual = 0.0162131, Final residual = 9.66208e-05, No Iterations 173
linear solve p 472
time step continuity errors : sum local = 7.1535e-08, global = 7.06735e-21, cumulative = 2.95134e-20
[OGL LOG] init_host_sparsity_pattern : 18 ms
[OGL LOG] matrix not stored update host matrix
[OGL LOG] update_host_mtx : 9 ms
[OGL LOG] matrix is not yet sorted, sorting host matrix
[OGL LOG] sort_host_mtx_sparsity_pattern : 12 ms
[OGL LOG] sort_host_mtx : 6 ms
[OGL LOG] init_preconditioner : 0 ms
[OGL LOG] solve : 413 ms
BJompGKOBiCGStab:  Solving for p, Initial residual = 0.0136921, Final residual = 9.25129e-05, No Iterations 172
linear solve p 469
time step continuity errors : sum local = 7.81351e-08, global = -5.42709e-21, cumulative = 2.40863e-20
ExecutionTime = 1382.16 s  ClockTime = 99 s

Time = 0.01

Courant Number mean: 0.0568621 max: 0.355701
nonePBiCGStab:  Solving for Ux, Initial residual = 0.00958319, Final residual = 5.17632e-05, No Iterations 5
nonePBiCGStab:  Solving for Uy, Initial residual = 0.0171446, Final residual = 8.72615e-05, No Iterations 5
nonePBiCGStab:  Solving for Uz, Initial residual = 0.0363624, Final residual = 0.000706403, No Iterations 5
linear solve U 27
[OGL LOG] init_host_sparsity_pattern : 17 ms
[OGL LOG] matrix not stored update host matrix
[OGL LOG] update_host_mtx : 9 ms
[OGL LOG] matrix is not yet sorted, sorting host matrix
[OGL LOG] sort_host_mtx_sparsity_pattern : 12 ms
[OGL LOG] sort_host_mtx : 6 ms
[OGL LOG] init_preconditioner : 0 ms
[OGL LOG] solve : 156 ms
BJompGKOBiCGStab:  Solving for p, Initial residual = 0.0135045, Final residual = 9.53958e-05, No Iterations 64
linear solve p 212
time step continuity errors : sum local = 9.88192e-08, global = 1.24621e-20, cumulative = 3.65485e-20
[OGL LOG] init_host_sparsity_pattern : 19 ms
[OGL LOG] matrix not stored update host matrix
[OGL LOG] update_host_mtx : 10 ms
[OGL LOG] matrix is not yet sorted, sorting host matrix
[OGL LOG] sort_host_mtx_sparsity_pattern : 13 ms
[OGL LOG] sort_host_mtx : 6 ms
[OGL LOG] init_preconditioner : 0 ms
[OGL LOG] solve : 152 ms
BJompGKOBiCGStab:  Solving for p, Initial residual = 0.0113144, Final residual = 9.55477e-05, No Iterations 63
linear solve p 212
time step continuity errors : sum local = 8.84367e-08, global = -3.84476e-20, cumulative = -1.8991e-21
ExecutionTime = 1387.47 s  ClockTime = 99 s

End

