/*---------------------------------------------------------------------------*\
  =========                 |
  \\      /  F ield         | OpenFOAM: The Open Source CFD Toolbox
   \\    /   O peration     | Website:  https://openfoam.org
    \\  /    A nd           | Version:  8
     \\/     M anipulation  |
\*---------------------------------------------------------------------------*/
Build  : 8-40a5a48f630f
Exec   : icoFoam
Date   : Jul 28 2021
Time   : 01:38:14
Host   : "uc2n550.localdomain"
PID    : 1017658
I/O    : uncollated
Case   : /pfs/data5/home/kit/scc/nq7776/code/OBR/lidDrivenCavity3D/Variation_mesh/90/Variation_matrix_solver/BiCGStab_BJ_OMP/base
nProcs : 1
sigFpe : Enabling floating point exception trapping (FOAM_SIGFPE).
fileModificationChecking : Monitoring run-time modified files using timeStampMaster (fileModificationSkew 10)
allowSystemOperations : Allowing user-supplied system call operations

// * * * * * * * * * * * * * * * * * * * * * * * * * * * * * * * * * * * * * //
Create time

Create mesh for time = 0

Reading transportProperties

Reading field p

Reading field U

Reading/calculating face flux field phi


Starting time loop

Time = 0.001

Courant Number mean: 0 max: 0
nonePBiCGStab:  Solving for Ux, Initial residual = 1, Final residual = 0.0756268, No Iterations 5
nonePBiCGStab:  Solving for Uy, Initial residual = 0, Final residual = 0, No Iterations 0
nonePBiCGStab:  Solving for Uz, Initial residual = 0, Final residual = 0, No Iterations 0
linear solve U 192
[OGL LOG] init_host_sparsity_pattern : 209 ms
[OGL LOG] matrix not stored update host matrix
[OGL LOG] update_host_mtx : 108 ms
[OGL LOG] matrix is not yet sorted, compute sorting idxs
[OGL LOG] compute_sort : 6544 ms
[OGL LOG] matrix is not yet sorted, sorting host matrix
[OGL LOG] sort_host_mtx_sparsity_pattern : 151 ms
[OGL LOG] sort_host_mtx : 89 ms
[OGL LOG] init_preconditioner : 57 ms
[OGL LOG] solve : 19132 ms
BJompGKOBiCGStab:  Solving for p, Initial residual = 1, Final residual = 8.64788e-05, No Iterations 485
linear solve p 26452
time step continuity errors : sum local = 6.75104e-08, global = -7.35084e-21, cumulative = -7.35084e-21
[OGL LOG] init_host_sparsity_pattern : 208 ms
[OGL LOG] matrix not stored update host matrix
[OGL LOG] update_host_mtx : 111 ms
[OGL LOG] matrix is not yet sorted, sorting host matrix
[OGL LOG] sort_host_mtx_sparsity_pattern : 155 ms
[OGL LOG] sort_host_mtx : 95 ms
[OGL LOG] init_preconditioner : 0 ms
[OGL LOG] solve : 17709 ms
BJompGKOBiCGStab:  Solving for p, Initial residual = 0.701132, Final residual = 9.69855e-05, No Iterations 448
linear solve p 18403
time step continuity errors : sum local = 1.4212e-07, global = 6.037e-22, cumulative = -6.74714e-21
ExecutionTime = 158.48 s  ClockTime = 49 s

Time = 0.002

Courant Number mean: 0.0401009 max: 0.699777
nonePBiCGStab:  Solving for Ux, Initial residual = 0.140413, Final residual = 0.0352795, No Iterations 5
nonePBiCGStab:  Solving for Uy, Initial residual = 0.428673, Final residual = 0.104698, No Iterations 5
nonePBiCGStab:  Solving for Uz, Initial residual = 0.978406, Final residual = 0.28112, No Iterations 5
linear solve U 377
[OGL LOG] init_host_sparsity_pattern : 198 ms
[OGL LOG] matrix not stored update host matrix
[OGL LOG] update_host_mtx : 108 ms
[OGL LOG] matrix is not yet sorted, sorting host matrix
[OGL LOG] sort_host_mtx_sparsity_pattern : 155 ms
[OGL LOG] sort_host_mtx : 89 ms
[OGL LOG] init_preconditioner : 0 ms
[OGL LOG] solve : 17721 ms
BJompGKOBiCGStab:  Solving for p, Initial residual = 0.764409, Final residual = 9.82208e-05, No Iterations 451
linear solve p 18394
time step continuity errors : sum local = 2.42384e-07, global = 9.27237e-21, cumulative = 2.52523e-21
[OGL LOG] init_host_sparsity_pattern : 206 ms
[OGL LOG] matrix not stored update host matrix
[OGL LOG] update_host_mtx : 107 ms
[OGL LOG] matrix is not yet sorted, sorting host matrix
[OGL LOG] sort_host_mtx_sparsity_pattern : 150 ms
[OGL LOG] sort_host_mtx : 89 ms
[OGL LOG] init_preconditioner : 0 ms
[OGL LOG] solve : 17316 ms
BJompGKOBiCGStab:  Solving for p, Initial residual = 0.686719, Final residual = 9.46402e-05, No Iterations 438
linear solve p 17980
time step continuity errors : sum local = 1.48565e-06, global = -2.84474e-21, cumulative = -3.19508e-22
ExecutionTime = 300.52 s  ClockTime = 86 s

Time = 0.003

Courant Number mean: 0.0633506 max: 0.801231
nonePBiCGStab:  Solving for Ux, Initial residual = 0.0594736, Final residual = 0.0123666, No Iterations 5
nonePBiCGStab:  Solving for Uy, Initial residual = 0.183952, Final residual = 0.0485995, No Iterations 5
nonePBiCGStab:  Solving for Uz, Initial residual = 0.692957, Final residual = 0.216465, No Iterations 5
linear solve U 382
[OGL LOG] init_host_sparsity_pattern : 200 ms
[OGL LOG] matrix not stored update host matrix
[OGL LOG] update_host_mtx : 107 ms
[OGL LOG] matrix is not yet sorted, sorting host matrix
[OGL LOG] sort_host_mtx_sparsity_pattern : 156 ms
[OGL LOG] sort_host_mtx : 89 ms
[OGL LOG] init_preconditioner : 0 ms
[OGL LOG] solve : 19422 ms
BJompGKOBiCGStab:  Solving for p, Initial residual = 0.755659, Final residual = 9.26222e-05, No Iterations 492
linear solve p 20095
time step continuity errors : sum local = 8.71173e-08, global = -1.22564e-21, cumulative = -1.54515e-21
[OGL LOG] init_host_sparsity_pattern : 200 ms
[OGL LOG] matrix not stored update host matrix
[OGL LOG] update_host_mtx : 108 ms
[OGL LOG] matrix is not yet sorted, sorting host matrix
[OGL LOG] sort_host_mtx_sparsity_pattern : 151 ms
[OGL LOG] sort_host_mtx : 89 ms
[OGL LOG] init_preconditioner : 0 ms
[OGL LOG] solve : 16328 ms
BJompGKOBiCGStab:  Solving for p, Initial residual = 0.685186, Final residual = 9.2069e-05, No Iterations 416
linear solve p 16986
time step continuity errors : sum local = 1.72823e-07, global = -9.42953e-21, cumulative = -1.09747e-20
ExecutionTime = 445.44 s  ClockTime = 124 s

regIOobject::readIfModified() : 
    Re-reading object controlDict from file "/pfs/data5/home/kit/scc/nq7776/code/OBR/lidDrivenCavity3D/Variation_mesh/90/Variation_matrix_solver/BiCGStab_BJ_OMP/base/system/controlDict"
Time = 0.004

Courant Number mean: 0.0762393 max: 0.816908
nonePBiCGStab:  Solving for Ux, Initial residual = 0.0368103, Final residual = 0.00802521, No Iterations 5
nonePBiCGStab:  Solving for Uy, Initial residual = 0.127982, Final residual = 0.0359786, No Iterations 5
nonePBiCGStab:  Solving for Uz, Initial residual = 0.469367, Final residual = 0.12374, No Iterations 5
linear solve U 380
[OGL LOG] init_host_sparsity_pattern : 201 ms
[OGL LOG] matrix not stored update host matrix
[OGL LOG] update_host_mtx : 108 ms
[OGL LOG] matrix is not yet sorted, sorting host matrix
[OGL LOG] sort_host_mtx_sparsity_pattern : 156 ms
[OGL LOG] sort_host_mtx : 89 ms
[OGL LOG] init_preconditioner : 0 ms
[OGL LOG] solve : 16795 ms
BJompGKOBiCGStab:  Solving for p, Initial residual = 0.651209, Final residual = 4.46187e-05, No Iterations 426
linear solve p 17466
time step continuity errors : sum local = 3.7993e-07, global = -1.89895e-20, cumulative = -2.99642e-20
[OGL LOG] init_host_sparsity_pattern : 192 ms
[OGL LOG] matrix not stored update host matrix
[OGL LOG] update_host_mtx : 107 ms
[OGL LOG] matrix is not yet sorted, sorting host matrix
[OGL LOG] sort_host_mtx_sparsity_pattern : 151 ms
[OGL LOG] sort_host_mtx : 89 ms
[OGL LOG] init_preconditioner : 0 ms
[OGL LOG] solve : 7777 ms
BJompGKOBiCGStab:  Solving for p, Initial residual = 0.559512, Final residual = 9.7995e-05, No Iterations 197
linear solve p 8427
time step continuity errors : sum local = 1.46598e-07, global = -6.07448e-22, cumulative = -3.05716e-20
ExecutionTime = 545.68 s  ClockTime = 150 s

Time = 0.005

Courant Number mean: 0.08664 max: 0.829232
nonePBiCGStab:  Solving for Ux, Initial residual = 0.0272078, Final residual = 0.00594157, No Iterations 5
nonePBiCGStab:  Solving for Uy, Initial residual = 0.0835882, Final residual = 0.0261245, No Iterations 5
nonePBiCGStab:  Solving for Uz, Initial residual = 0.317537, Final residual = 0.0952373, No Iterations 5
linear solve U 378
[OGL LOG] init_host_sparsity_pattern : 201 ms
[OGL LOG] matrix not stored update host matrix
[OGL LOG] update_host_mtx : 108 ms
[OGL LOG] matrix is not yet sorted, sorting host matrix
[OGL LOG] sort_host_mtx_sparsity_pattern : 151 ms
[OGL LOG] sort_host_mtx : 89 ms
[OGL LOG] init_preconditioner : 0 ms
[OGL LOG] solve : 15865 ms
BJompGKOBiCGStab:  Solving for p, Initial residual = 0.680837, Final residual = 4.30608e-05, No Iterations 402
linear solve p 16525
time step continuity errors : sum local = 2.69034e-08, global = 1.55687e-20, cumulative = -1.50029e-20
[OGL LOG] init_host_sparsity_pattern : 193 ms
[OGL LOG] matrix not stored update host matrix
[OGL LOG] update_host_mtx : 108 ms
[OGL LOG] matrix is not yet sorted, sorting host matrix
[OGL LOG] sort_host_mtx_sparsity_pattern : 151 ms
[OGL LOG] sort_host_mtx : 89 ms
[OGL LOG] init_preconditioner : 0 ms
[OGL LOG] solve : 16358 ms
BJompGKOBiCGStab:  Solving for p, Initial residual = 0.599884, Final residual = 9.99438e-05, No Iterations 416
linear solve p 17012
time step continuity errors : sum local = 6.95816e-08, global = -2.69454e-21, cumulative = -1.76974e-20
ExecutionTime = 676.48 s  ClockTime = 185 s

regIOobject::readIfModified() : 
    Re-reading object controlDict from file "/pfs/data5/home/kit/scc/nq7776/code/OBR/lidDrivenCavity3D/Variation_mesh/90/Variation_matrix_solver/BiCGStab_BJ_OMP/base/system/controlDict"
End

