/*---------------------------------------------------------------------------*\
  =========                 |
  \\      /  F ield         | OpenFOAM: The Open Source CFD Toolbox
   \\    /   O peration     | Website:  https://openfoam.org
    \\  /    A nd           | Version:  8
     \\/     M anipulation  |
\*---------------------------------------------------------------------------*/
Build  : 8-40a5a48f630f
Exec   : icoFoam
Date   : Jul 28 2021
Time   : 02:05:33
Host   : "uc2n550.localdomain"
PID    : 1020617
I/O    : uncollated
Case   : /pfs/data5/home/kit/scc/nq7776/code/OBR/lidDrivenCavity3D/Variation_mesh/65/Variation_matrix_solver/BiCGStab_NoPrecond_OMP/base
nProcs : 1
sigFpe : Enabling floating point exception trapping (FOAM_SIGFPE).
fileModificationChecking : Monitoring run-time modified files using timeStampMaster (fileModificationSkew 10)
allowSystemOperations : Allowing user-supplied system call operations

// * * * * * * * * * * * * * * * * * * * * * * * * * * * * * * * * * * * * * //
Create time

Create mesh for time = 0

Reading transportProperties

Reading field p

Reading field U

Reading/calculating face flux field phi


Starting time loop

Time = 0.001

Courant Number mean: 0 max: 0
nonePBiCGStab:  Solving for Ux, Initial residual = 1, Final residual = 0.053017, No Iterations 5
nonePBiCGStab:  Solving for Uy, Initial residual = 0, Final residual = 0, No Iterations 0
nonePBiCGStab:  Solving for Uz, Initial residual = 0, Final residual = 0, No Iterations 0
linear solve U 71
[OGL LOG] init_host_sparsity_pattern : 78 ms
[OGL LOG] matrix not stored update host matrix
[OGL LOG] update_host_mtx : 40 ms
[OGL LOG] matrix is not yet sorted, compute sorting idxs
[OGL LOG] compute_sort : 2385 ms
[OGL LOG] matrix is not yet sorted, sorting host matrix
[OGL LOG] sort_host_mtx_sparsity_pattern : 56 ms
[OGL LOG] sort_host_mtx : 33 ms
[OGL LOG] init_preconditioner : 0 ms
[OGL LOG] solve : 2660 ms
noneompGKOBiCGStab:  Solving for p, Initial residual = 1, Final residual = 9.23015e-05, No Iterations 415
linear solve p 5320
time step continuity errors : sum local = 1.54945e-07, global = -1.26331e-21, cumulative = -1.26331e-21
[OGL LOG] init_host_sparsity_pattern : 75 ms
[OGL LOG] matrix not stored update host matrix
[OGL LOG] update_host_mtx : 40 ms
[OGL LOG] matrix is not yet sorted, sorting host matrix
[OGL LOG] sort_host_mtx_sparsity_pattern : 61 ms
[OGL LOG] sort_host_mtx : 27 ms
[OGL LOG] init_preconditioner : 0 ms
[OGL LOG] solve : 2581 ms
noneompGKOBiCGStab:  Solving for p, Initial residual = 0.674596, Final residual = 9.84261e-05, No Iterations 404
linear solve p 2832
time step continuity errors : sum local = 1.00708e-05, global = -5.06854e-21, cumulative = -6.33185e-21
ExecutionTime = 25.2 s  ClockTime = 9 s

Time = 0.002

Courant Number mean: 0.0326909 max: 0.468251
nonePBiCGStab:  Solving for Ux, Initial residual = 0.152194, Final residual = 0.0215458, No Iterations 5
nonePBiCGStab:  Solving for Uy, Initial residual = 0.364651, Final residual = 0.0501237, No Iterations 5
nonePBiCGStab:  Solving for Uz, Initial residual = 0.93044, Final residual = 0.176617, No Iterations 5
linear solve U 137
[OGL LOG] init_host_sparsity_pattern : 75 ms
[OGL LOG] matrix not stored update host matrix
[OGL LOG] update_host_mtx : 39 ms
[OGL LOG] matrix is not yet sorted, sorting host matrix
[OGL LOG] sort_host_mtx_sparsity_pattern : 58 ms
[OGL LOG] sort_host_mtx : 27 ms
[OGL LOG] init_preconditioner : 0 ms
[OGL LOG] solve : 2517 ms
noneompGKOBiCGStab:  Solving for p, Initial residual = 0.655668, Final residual = 5.46448e-05, No Iterations 389
linear solve p 2755
time step continuity errors : sum local = 3.85675e-06, global = 4.43614e-21, cumulative = -1.8957e-21
[OGL LOG] init_host_sparsity_pattern : 78 ms
[OGL LOG] matrix not stored update host matrix
[OGL LOG] update_host_mtx : 40 ms
[OGL LOG] matrix is not yet sorted, sorting host matrix
[OGL LOG] sort_host_mtx_sparsity_pattern : 56 ms
[OGL LOG] sort_host_mtx : 27 ms
[OGL LOG] init_preconditioner : 0 ms
[OGL LOG] solve : 2446 ms
noneompGKOBiCGStab:  Solving for p, Initial residual = 0.571889, Final residual = 8.36105e-05, No Iterations 381
linear solve p 2683
time step continuity errors : sum local = 9.04938e-07, global = 2.19159e-20, cumulative = 2.00202e-20
ExecutionTime = 45.83 s  ClockTime = 15 s

Time = 0.003

Courant Number mean: 0.050118 max: 0.55639
nonePBiCGStab:  Solving for Ux, Initial residual = 0.0551055, Final residual = 0.00595529, No Iterations 5
nonePBiCGStab:  Solving for Uy, Initial residual = 0.128762, Final residual = 0.0182074, No Iterations 5
nonePBiCGStab:  Solving for Uz, Initial residual = 0.427047, Final residual = 0.0805532, No Iterations 5
linear solve U 138
[OGL LOG] init_host_sparsity_pattern : 75 ms
[OGL LOG] matrix not stored update host matrix
[OGL LOG] update_host_mtx : 40 ms
[OGL LOG] matrix is not yet sorted, sorting host matrix
[OGL LOG] sort_host_mtx_sparsity_pattern : 57 ms
[OGL LOG] sort_host_mtx : 27 ms
[OGL LOG] init_preconditioner : 0 ms
[OGL LOG] solve : 2115 ms
noneompGKOBiCGStab:  Solving for p, Initial residual = 0.564551, Final residual = 9.88206e-05, No Iterations 326
linear solve p 2354
time step continuity errors : sum local = 7.1724e-07, global = 2.05202e-21, cumulative = 2.20722e-20
[OGL LOG] init_host_sparsity_pattern : 72 ms
[OGL LOG] matrix not stored update host matrix
[OGL LOG] update_host_mtx : 35 ms
[OGL LOG] matrix is not yet sorted, sorting host matrix
[OGL LOG] sort_host_mtx_sparsity_pattern : 56 ms
[OGL LOG] sort_host_mtx : 27 ms
[OGL LOG] init_preconditioner : 0 ms
[OGL LOG] solve : 2135 ms
noneompGKOBiCGStab:  Solving for p, Initial residual = 0.497657, Final residual = 9.42279e-05, No Iterations 330
linear solve p 2358
time step continuity errors : sum local = 9.67689e-08, global = -3.8758e-21, cumulative = 1.81964e-20
ExecutionTime = 63.62 s  ClockTime = 20 s

Time = 0.004

Courant Number mean: 0.0601502 max: 0.574867
nonePBiCGStab:  Solving for Ux, Initial residual = 0.0338066, Final residual = 0.00331301, No Iterations 5
nonePBiCGStab:  Solving for Uy, Initial residual = 0.0815276, Final residual = 0.00682144, No Iterations 5
nonePBiCGStab:  Solving for Uz, Initial residual = 0.281875, Final residual = 0.0422775, No Iterations 5
linear solve U 139
[OGL LOG] init_host_sparsity_pattern : 75 ms
[OGL LOG] matrix not stored update host matrix
[OGL LOG] update_host_mtx : 40 ms
[OGL LOG] matrix is not yet sorted, sorting host matrix
[OGL LOG] sort_host_mtx_sparsity_pattern : 56 ms
[OGL LOG] sort_host_mtx : 27 ms
[OGL LOG] init_preconditioner : 0 ms
[OGL LOG] solve : 2357 ms
noneompGKOBiCGStab:  Solving for p, Initial residual = 0.36645, Final residual = 7.0418e-05, No Iterations 364
linear solve p 2589
time step continuity errors : sum local = 7.54933e-07, global = 1.53421e-20, cumulative = 3.35385e-20
[OGL LOG] init_host_sparsity_pattern : 73 ms
[OGL LOG] matrix not stored update host matrix
[OGL LOG] update_host_mtx : 35 ms
[OGL LOG] matrix is not yet sorted, sorting host matrix
[OGL LOG] sort_host_mtx_sparsity_pattern : 55 ms
[OGL LOG] sort_host_mtx : 27 ms
[OGL LOG] init_preconditioner : 0 ms
[OGL LOG] solve : 2342 ms
noneompGKOBiCGStab:  Solving for p, Initial residual = 0.303289, Final residual = 8.71768e-05, No Iterations 362
linear solve p 2565
time step continuity errors : sum local = 8.78427e-08, global = -4.39679e-21, cumulative = 2.91417e-20
ExecutionTime = 83.18 s  ClockTime = 25 s

Time = 0.005

Courant Number mean: 0.0681552 max: 0.585616
nonePBiCGStab:  Solving for Ux, Initial residual = 0.0237099, Final residual = 0.00201786, No Iterations 5
nonePBiCGStab:  Solving for Uy, Initial residual = 0.0542805, Final residual = 0.00448926, No Iterations 5
nonePBiCGStab:  Solving for Uz, Initial residual = 0.162604, Final residual = 0.0326697, No Iterations 5
linear solve U 138
[OGL LOG] init_host_sparsity_pattern : 74 ms
[OGL LOG] matrix not stored update host matrix
[OGL LOG] update_host_mtx : 40 ms
[OGL LOG] matrix is not yet sorted, sorting host matrix
[OGL LOG] sort_host_mtx_sparsity_pattern : 56 ms
[OGL LOG] sort_host_mtx : 27 ms
[OGL LOG] init_preconditioner : 0 ms
[OGL LOG] solve : 2016 ms
noneompGKOBiCGStab:  Solving for p, Initial residual = 0.289331, Final residual = 9.65807e-05, No Iterations 317
linear solve p 2250
time step continuity errors : sum local = 9.26951e-08, global = 1.80444e-20, cumulative = 4.71861e-20
[OGL LOG] init_host_sparsity_pattern : 74 ms
[OGL LOG] matrix not stored update host matrix
[OGL LOG] update_host_mtx : 38 ms
[OGL LOG] matrix is not yet sorted, sorting host matrix
[OGL LOG] sort_host_mtx_sparsity_pattern : 58 ms
[OGL LOG] sort_host_mtx : 27 ms
[OGL LOG] init_preconditioner : 0 ms
[OGL LOG] solve : 2013 ms
noneompGKOBiCGStab:  Solving for p, Initial residual = 0.244668, Final residual = 9.23763e-05, No Iterations 311
linear solve p 2247
time step continuity errors : sum local = 1.97703e-06, global = 2.28596e-20, cumulative = 7.00456e-20
ExecutionTime = 100.1 s  ClockTime = 30 s

Time = 0.006

Courant Number mean: 0.0744312 max: 0.592142
nonePBiCGStab:  Solving for Ux, Initial residual = 0.0181512, Final residual = 0.001692, No Iterations 5
nonePBiCGStab:  Solving for Uy, Initial residual = 0.0402228, Final residual = 0.00323403, No Iterations 5
nonePBiCGStab:  Solving for Uz, Initial residual = 0.136038, Final residual = 0.0285052, No Iterations 5
linear solve U 138
[OGL LOG] init_host_sparsity_pattern : 75 ms
[OGL LOG] matrix not stored update host matrix
[OGL LOG] update_host_mtx : 40 ms
[OGL LOG] matrix is not yet sorted, sorting host matrix
[OGL LOG] sort_host_mtx_sparsity_pattern : 56 ms
[OGL LOG] sort_host_mtx : 28 ms
[OGL LOG] init_preconditioner : 0 ms
[OGL LOG] solve : 2513 ms
noneompGKOBiCGStab:  Solving for p, Initial residual = 0.216105, Final residual = 7.85634e-05, No Iterations 388
linear solve p 2746
time step continuity errors : sum local = 1.91565e-07, global = -1.30897e-20, cumulative = 5.69559e-20
[OGL LOG] init_host_sparsity_pattern : 72 ms
[OGL LOG] matrix not stored update host matrix
[OGL LOG] update_host_mtx : 37 ms
[OGL LOG] matrix is not yet sorted, sorting host matrix
[OGL LOG] sort_host_mtx_sparsity_pattern : 56 ms
[OGL LOG] sort_host_mtx : 27 ms
[OGL LOG] init_preconditioner : 0 ms
[OGL LOG] solve : 2159 ms
noneompGKOBiCGStab:  Solving for p, Initial residual = 0.179366, Final residual = 9.41278e-05, No Iterations 334
linear solve p 2387
time step continuity errors : sum local = 6.35894e-08, global = 1.25269e-20, cumulative = 6.94828e-20
ExecutionTime = 119.55 s  ClockTime = 36 s

Time = 0.007

Courant Number mean: 0.079626 max: 0.596642
nonePBiCGStab:  Solving for Ux, Initial residual = 0.0141973, Final residual = 0.000984065, No Iterations 5
nonePBiCGStab:  Solving for Uy, Initial residual = 0.032523, Final residual = 0.00200594, No Iterations 5
nonePBiCGStab:  Solving for Uz, Initial residual = 0.103664, Final residual = 0.0193302, No Iterations 5
linear solve U 137
[OGL LOG] init_host_sparsity_pattern : 75 ms
[OGL LOG] matrix not stored update host matrix
[OGL LOG] update_host_mtx : 40 ms
[OGL LOG] matrix is not yet sorted, sorting host matrix
[OGL LOG] sort_host_mtx_sparsity_pattern : 56 ms
[OGL LOG] sort_host_mtx : 27 ms
[OGL LOG] init_preconditioner : 0 ms
[OGL LOG] solve : 1970 ms
noneompGKOBiCGStab:  Solving for p, Initial residual = 0.167008, Final residual = 9.03839e-05, No Iterations 304
linear solve p 2202
time step continuity errors : sum local = 3.67063e-07, global = -4.03197e-21, cumulative = 6.54508e-20
[OGL LOG] init_host_sparsity_pattern : 72 ms
[OGL LOG] matrix not stored update host matrix
[OGL LOG] update_host_mtx : 37 ms
[OGL LOG] matrix is not yet sorted, sorting host matrix
[OGL LOG] sort_host_mtx_sparsity_pattern : 56 ms
[OGL LOG] sort_host_mtx : 27 ms
[OGL LOG] init_preconditioner : 0 ms
[OGL LOG] solve : 1947 ms
noneompGKOBiCGStab:  Solving for p, Initial residual = 0.13954, Final residual = 9.92093e-05, No Iterations 300
linear solve p 2175
time step continuity errors : sum local = 1.5783e-07, global = 2.99106e-20, cumulative = 9.53614e-20
ExecutionTime = 135.99 s  ClockTime = 40 s

Time = 0.008

Courant Number mean: 0.0839813 max: 0.600058
nonePBiCGStab:  Solving for Ux, Initial residual = 0.0117802, Final residual = 0.000825359, No Iterations 5
nonePBiCGStab:  Solving for Uy, Initial residual = 0.0257795, Final residual = 0.00151532, No Iterations 5
nonePBiCGStab:  Solving for Uz, Initial residual = 0.0863649, Final residual = 0.0169219, No Iterations 5
linear solve U 136
[OGL LOG] init_host_sparsity_pattern : 72 ms
[OGL LOG] matrix not stored update host matrix
[OGL LOG] update_host_mtx : 38 ms
[OGL LOG] matrix is not yet sorted, sorting host matrix
[OGL LOG] sort_host_mtx_sparsity_pattern : 56 ms
[OGL LOG] sort_host_mtx : 27 ms
[OGL LOG] init_preconditioner : 0 ms
[OGL LOG] solve : 2426 ms
noneompGKOBiCGStab:  Solving for p, Initial residual = 0.129179, Final residual = 7.41517e-05, No Iterations 377
linear solve p 2653
time step continuity errors : sum local = 1.51228e-07, global = -7.53324e-21, cumulative = 8.78282e-20
[OGL LOG] init_host_sparsity_pattern : 75 ms
[OGL LOG] matrix not stored update host matrix
[OGL LOG] update_host_mtx : 40 ms
[OGL LOG] matrix is not yet sorted, sorting host matrix
[OGL LOG] sort_host_mtx_sparsity_pattern : 56 ms
[OGL LOG] sort_host_mtx : 27 ms
[OGL LOG] init_preconditioner : 0 ms
[OGL LOG] solve : 2361 ms
noneompGKOBiCGStab:  Solving for p, Initial residual = 0.107739, Final residual = 2.11826e-05, No Iterations 366
linear solve p 2595
time step continuity errors : sum local = 1.25063e-08, global = 2.04902e-20, cumulative = 1.08318e-19
ExecutionTime = 155.89 s  ClockTime = 46 s

Time = 0.009

Courant Number mean: 0.0877261 max: 0.602612
nonePBiCGStab:  Solving for Ux, Initial residual = 0.0097159, Final residual = 0.00054991, No Iterations 5
nonePBiCGStab:  Solving for Uy, Initial residual = 0.0221198, Final residual = 0.00102318, No Iterations 5
nonePBiCGStab:  Solving for Uz, Initial residual = 0.0660512, Final residual = 0.0089269, No Iterations 5
linear solve U 136
[OGL LOG] init_host_sparsity_pattern : 73 ms
[OGL LOG] matrix not stored update host matrix
[OGL LOG] update_host_mtx : 40 ms
[OGL LOG] matrix is not yet sorted, sorting host matrix
[OGL LOG] sort_host_mtx_sparsity_pattern : 57 ms
[OGL LOG] sort_host_mtx : 27 ms
[OGL LOG] init_preconditioner : 0 ms
[OGL LOG] solve : 1934 ms
noneompGKOBiCGStab:  Solving for p, Initial residual = 0.102007, Final residual = 9.65077e-05, No Iterations 298
linear solve p 2168
time step continuity errors : sum local = 5.21506e-07, global = 2.03981e-20, cumulative = 1.28717e-19
[OGL LOG] init_host_sparsity_pattern : 72 ms
[OGL LOG] matrix not stored update host matrix
[OGL LOG] update_host_mtx : 37 ms
[OGL LOG] matrix is not yet sorted, sorting host matrix
[OGL LOG] sort_host_mtx_sparsity_pattern : 56 ms
[OGL LOG] sort_host_mtx : 27 ms
[OGL LOG] init_preconditioner : 0 ms
[OGL LOG] solve : 979 ms
noneompGKOBiCGStab:  Solving for p, Initial residual = 0.0856569, Final residual = 9.73855e-05, No Iterations 150
linear solve p 1206
time step continuity errors : sum local = 7.87129e-08, global = -6.39478e-22, cumulative = 1.28077e-19
ExecutionTime = 168.34 s  ClockTime = 50 s

Time = 0.01

Courant Number mean: 0.0909826 max: 0.604727
nonePBiCGStab:  Solving for Ux, Initial residual = 0.00835346, Final residual = 0.00056001, No Iterations 5
nonePBiCGStab:  Solving for Uy, Initial residual = 0.0184432, Final residual = 0.00104189, No Iterations 5
nonePBiCGStab:  Solving for Uz, Initial residual = 0.0587489, Final residual = 0.0116597, No Iterations 5
linear solve U 138
[OGL LOG] init_host_sparsity_pattern : 72 ms
[OGL LOG] matrix not stored update host matrix
[OGL LOG] update_host_mtx : 39 ms
[OGL LOG] matrix is not yet sorted, sorting host matrix
[OGL LOG] sort_host_mtx_sparsity_pattern : 56 ms
[OGL LOG] sort_host_mtx : 28 ms
[OGL LOG] init_preconditioner : 0 ms
[OGL LOG] solve : 1984 ms
noneompGKOBiCGStab:  Solving for p, Initial residual = 0.0879467, Final residual = 9.62782e-05, No Iterations 307
linear solve p 2212
time step continuity errors : sum local = 4.34765e-06, global = -8.54593e-21, cumulative = 1.19531e-19
[OGL LOG] init_host_sparsity_pattern : 76 ms
[OGL LOG] matrix not stored update host matrix
[OGL LOG] update_host_mtx : 41 ms
[OGL LOG] matrix is not yet sorted, sorting host matrix
[OGL LOG] sort_host_mtx_sparsity_pattern : 56 ms
[OGL LOG] sort_host_mtx : 27 ms
[OGL LOG] init_preconditioner : 0 ms
[OGL LOG] solve : 1027 ms
noneompGKOBiCGStab:  Solving for p, Initial residual = 0.0818716, Final residual = 7.60317e-05, No Iterations 158
linear solve p 1262
time step continuity errors : sum local = 4.93664e-08, global = 8.95051e-23, cumulative = 1.19621e-19
ExecutionTime = 181.16 s  ClockTime = 53 s

End

