/*---------------------------------------------------------------------------*\
  =========                 |
  \\      /  F ield         | OpenFOAM: The Open Source CFD Toolbox
   \\    /   O peration     | Website:  https://openfoam.org
    \\  /    A nd           | Version:  8
     \\/     M anipulation  |
\*---------------------------------------------------------------------------*/
Build  : 8-40a5a48f630f
Exec   : icoFoam
Date   : Jul 28 2021
Time   : 02:22:52
Host   : "uc2n476.localdomain"
PID    : 1920281
I/O    : uncollated
Case   : /pfs/data5/home/kit/scc/nq7776/code/OBR/lidDrivenCavity3D/Variation_mesh/25/Variation_matrix_solver/CG_DIC_Serial/base
nProcs : 1
sigFpe : Enabling floating point exception trapping (FOAM_SIGFPE).
fileModificationChecking : Monitoring run-time modified files using timeStampMaster (fileModificationSkew 10)
allowSystemOperations : Allowing user-supplied system call operations

// * * * * * * * * * * * * * * * * * * * * * * * * * * * * * * * * * * * * * //
Create time

Create mesh for time = 0

Reading transportProperties

Reading field p

Reading field U

Reading/calculating face flux field phi


Starting time loop

Time = 0.001

Courant Number mean: 0 max: 0
nonePBiCGStab:  Solving for Ux, Initial residual = 1, Final residual = 0.00310183, No Iterations 5
nonePBiCGStab:  Solving for Uy, Initial residual = 0, Final residual = 0, No Iterations 0
nonePBiCGStab:  Solving for Uz, Initial residual = 0, Final residual = 0, No Iterations 0
linear solve U 2
DICPCG:  Solving for p, Initial residual = 1, Final residual = 5.4857e-05, No Iterations 62
linear solve p 15
time step continuity errors : sum local = 2.80476e-08, global = -1.37962e-20, cumulative = -1.37962e-20
DICPCG:  Solving for p, Initial residual = 0.480535, Final residual = 7.07476e-05, No Iterations 60
linear solve p 15
time step continuity errors : sum local = 5.85057e-08, global = -4.91197e-21, cumulative = -1.87082e-20
ExecutionTime = 0.14 s  ClockTime = 0 s

Time = 0.002

Courant Number mean: 0.01197 max: 0.106554
nonePBiCGStab:  Solving for Ux, Initial residual = 0.210695, Final residual = 0.000695048, No Iterations 5
nonePBiCGStab:  Solving for Uy, Initial residual = 0.284647, Final residual = 0.000644154, No Iterations 5
nonePBiCGStab:  Solving for Uz, Initial residual = 0.890228, Final residual = 0.00332618, No Iterations 5
linear solve U 5
DICPCG:  Solving for p, Initial residual = 0.285773, Final residual = 6.88834e-05, No Iterations 58
linear solve p 14
time step continuity errors : sum local = 5.33731e-08, global = 4.35699e-21, cumulative = -1.43512e-20
DICPCG:  Solving for p, Initial residual = 0.1891, Final residual = 7.29827e-05, No Iterations 57
linear solve p 14
time step continuity errors : sum local = 5.99997e-08, global = 1.10869e-20, cumulative = -3.26432e-21
ExecutionTime = 0.18 s  ClockTime = 0 s

Time = 0.003

Courant Number mean: 0.0188463 max: 0.153562
nonePBiCGStab:  Solving for Ux, Initial residual = 0.090123, Final residual = 0.000292359, No Iterations 5
nonePBiCGStab:  Solving for Uy, Initial residual = 0.124565, Final residual = 0.000198162, No Iterations 5
nonePBiCGStab:  Solving for Uz, Initial residual = 0.251788, Final residual = 0.00063709, No Iterations 5
linear solve U 5
DICPCG:  Solving for p, Initial residual = 0.10204, Final residual = 7.62262e-05, No Iterations 55
linear solve p 13
time step continuity errors : sum local = 5.89212e-08, global = 1.49842e-20, cumulative = 1.17199e-20
DICPCG:  Solving for p, Initial residual = 0.069519, Final residual = 7.54487e-05, No Iterations 54
linear solve p 13
time step continuity errors : sum local = 6.00339e-08, global = 2.07902e-21, cumulative = 1.37989e-20
ExecutionTime = 0.22 s  ClockTime = 0 s

Time = 0.004

Courant Number mean: 0.0233147 max: 0.175119
nonePBiCGStab:  Solving for Ux, Initial residual = 0.0520901, Final residual = 0.000102879, No Iterations 5
nonePBiCGStab:  Solving for Uy, Initial residual = 0.0743237, Final residual = 6.93049e-05, No Iterations 5
nonePBiCGStab:  Solving for Uz, Initial residual = 0.129875, Final residual = 0.000217726, No Iterations 5
linear solve U 5
DICPCG:  Solving for p, Initial residual = 0.0551325, Final residual = 9.96306e-05, No Iterations 53
linear solve p 13
time step continuity errors : sum local = 7.9214e-08, global = 4.34331e-21, cumulative = 1.81422e-20
DICPCG:  Solving for p, Initial residual = 0.0369949, Final residual = 9.25274e-05, No Iterations 52
linear solve p 12
time step continuity errors : sum local = 7.50969e-08, global = 1.33216e-20, cumulative = 3.14639e-20
ExecutionTime = 0.25 s  ClockTime = 0 s

Time = 0.005

Courant Number mean: 0.026494 max: 0.186504
nonePBiCGStab:  Solving for Ux, Initial residual = 0.0351738, Final residual = 3.75609e-05, No Iterations 5
nonePBiCGStab:  Solving for Uy, Initial residual = 0.0507743, Final residual = 2.20334e-05, No Iterations 5
nonePBiCGStab:  Solving for Uz, Initial residual = 0.0910849, Final residual = 0.000116017, No Iterations 5
linear solve U 5
DICPCG:  Solving for p, Initial residual = 0.0348761, Final residual = 9.94812e-05, No Iterations 52
linear solve p 13
time step continuity errors : sum local = 8.1236e-08, global = -1.85613e-20, cumulative = 1.29026e-20
DICPCG:  Solving for p, Initial residual = 0.0230928, Final residual = 6.59292e-05, No Iterations 52
linear solve p 12
time step continuity errors : sum local = 5.44941e-08, global = -4.63666e-21, cumulative = 8.26595e-21
ExecutionTime = 0.29 s  ClockTime = 0 s

Time = 0.006

Courant Number mean: 0.0288956 max: 0.193336
nonePBiCGStab:  Solving for Ux, Initial residual = 0.0259742, Final residual = 1.33442e-05, No Iterations 5
nonePBiCGStab:  Solving for Uy, Initial residual = 0.0379632, Final residual = 1.54441e-05, No Iterations 5
nonePBiCGStab:  Solving for Uz, Initial residual = 0.0705262, Final residual = 6.8484e-05, No Iterations 5
linear solve U 5
DICPCG:  Solving for p, Initial residual = 0.0243646, Final residual = 7.3062e-05, No Iterations 52
linear solve p 12
time step continuity errors : sum local = 6.07236e-08, global = -2.96415e-21, cumulative = 5.3018e-21
DICPCG:  Solving for p, Initial residual = 0.0162993, Final residual = 9.11982e-05, No Iterations 23
linear solve p 5
time step continuity errors : sum local = 9.92889e-08, global = -1.33341e-20, cumulative = -8.0323e-21
ExecutionTime = 0.32 s  ClockTime = 0 s

Time = 0.007

Courant Number mean: 0.0308311 max: 0.197891
nonePBiCGStab:  Solving for Ux, Initial residual = 0.0203782, Final residual = 8.4843e-06, No Iterations 5
nonePBiCGStab:  Solving for Uy, Initial residual = 0.0300211, Final residual = 1.05023e-05, No Iterations 5
nonePBiCGStab:  Solving for Uz, Initial residual = 0.0575495, Final residual = 6.62376e-05, No Iterations 5
linear solve U 5
DICPCG:  Solving for p, Initial residual = 0.0186967, Final residual = 9.57804e-05, No Iterations 23
linear solve p 5
time step continuity errors : sum local = 9.78619e-08, global = -4.08162e-21, cumulative = -1.21139e-20
DICPCG:  Solving for p, Initial residual = 0.0126189, Final residual = 7.95308e-05, No Iterations 23
linear solve p 5
time step continuity errors : sum local = 9.14275e-08, global = -7.06542e-21, cumulative = -1.91793e-20
ExecutionTime = 0.35 s  ClockTime = 0 s

Time = 0.008

Courant Number mean: 0.0324766 max: 0.201172
nonePBiCGStab:  Solving for Ux, Initial residual = 0.0165474, Final residual = 4.78183e-06, No Iterations 5
nonePBiCGStab:  Solving for Uy, Initial residual = 0.0245868, Final residual = 6.00463e-06, No Iterations 5
nonePBiCGStab:  Solving for Uz, Initial residual = 0.0478402, Final residual = 3.056e-05, No Iterations 5
linear solve U 5
DICPCG:  Solving for p, Initial residual = 0.0148811, Final residual = 7.25597e-05, No Iterations 23
linear solve p 5
time step continuity errors : sum local = 7.12144e-08, global = -8.85001e-21, cumulative = -2.80293e-20
DICPCG:  Solving for p, Initial residual = 0.0101172, Final residual = 8.63962e-05, No Iterations 22
linear solve p 5
time step continuity errors : sum local = 9.19197e-08, global = 4.40858e-20, cumulative = 1.60564e-20
ExecutionTime = 0.37 s  ClockTime = 0 s

Time = 0.009

Courant Number mean: 0.0338808 max: 0.203668
nonePBiCGStab:  Solving for Ux, Initial residual = 0.0138064, Final residual = 3.18289e-06, No Iterations 5
nonePBiCGStab:  Solving for Uy, Initial residual = 0.0206656, Final residual = 4.16817e-06, No Iterations 5
nonePBiCGStab:  Solving for Uz, Initial residual = 0.0407362, Final residual = 2.12167e-05, No Iterations 5
linear solve U 5
DICPCG:  Solving for p, Initial residual = 0.0123564, Final residual = 9.40524e-05, No Iterations 22
linear solve p 5
time step continuity errors : sum local = 8.7356e-08, global = 4.95087e-20, cumulative = 6.55651e-20
DICPCG:  Solving for p, Initial residual = 0.00845328, Final residual = 8.75656e-05, No Iterations 21
linear solve p 5
time step continuity errors : sum local = 8.86742e-08, global = 1.92398e-20, cumulative = 8.48049e-20
ExecutionTime = 0.39 s  ClockTime = 0 s

Time = 0.01

Courant Number mean: 0.035092 max: 0.205643
nonePBiCGStab:  Solving for Ux, Initial residual = 0.011739, Final residual = 2.23733e-06, No Iterations 5
nonePBiCGStab:  Solving for Uy, Initial residual = 0.017689, Final residual = 3.04173e-06, No Iterations 5
nonePBiCGStab:  Solving for Uz, Initial residual = 0.0352026, Final residual = 1.61757e-05, No Iterations 5
linear solve U 5
DICPCG:  Solving for p, Initial residual = 0.0104501, Final residual = 8.04106e-05, No Iterations 22
linear solve p 5
time step continuity errors : sum local = 7.3137e-08, global = -1.42663e-21, cumulative = 8.33782e-20
DICPCG:  Solving for p, Initial residual = 0.00718276, Final residual = 9.66647e-05, No Iterations 20
linear solve p 5
time step continuity errors : sum local = 9.2854e-08, global = 9.88481e-22, cumulative = 8.43667e-20
ExecutionTime = 0.41 s  ClockTime = 0 s

End

