/*---------------------------------------------------------------------------*\
  =========                 |
  \\      /  F ield         | OpenFOAM: The Open Source CFD Toolbox
   \\    /   O peration     | Website:  https://openfoam.org
    \\  /    A nd           | Version:  8
     \\/     M anipulation  |
\*---------------------------------------------------------------------------*/
Build  : 8-40a5a48f630f
Exec   : icoFoam
Date   : Jul 28 2021
Time   : 01:40:35
Host   : "uc2n476.localdomain"
PID    : 1914257
I/O    : uncollated
Case   : /pfs/data5/home/kit/scc/nq7776/code/OBR/lidDrivenCavity3D/Variation_mesh/15/Variation_matrix_solver/CG_DIC_Serial/base
nProcs : 1
sigFpe : Enabling floating point exception trapping (FOAM_SIGFPE).
fileModificationChecking : Monitoring run-time modified files using timeStampMaster (fileModificationSkew 10)
allowSystemOperations : Allowing user-supplied system call operations

// * * * * * * * * * * * * * * * * * * * * * * * * * * * * * * * * * * * * * //
Create time

Create mesh for time = 0

Reading transportProperties

Reading field p

Reading field U

Reading/calculating face flux field phi


Starting time loop

Time = 0.001

Courant Number mean: 0 max: 0
nonePBiCGStab:  Solving for Ux, Initial residual = 1, Final residual = 7.02612e-05, No Iterations 5
nonePBiCGStab:  Solving for Uy, Initial residual = 0, Final residual = 0, No Iterations 0
nonePBiCGStab:  Solving for Uz, Initial residual = 0, Final residual = 0, No Iterations 0
linear solve U 0
DICPCG:  Solving for p, Initial residual = 1, Final residual = 3.95192e-05, No Iterations 37
linear solve p 2
time step continuity errors : sum local = 1.66048e-08, global = 7.30771e-21, cumulative = 7.30771e-21
DICPCG:  Solving for p, Initial residual = 0.316794, Final residual = 9.74942e-05, No Iterations 34
linear solve p 1
time step continuity errors : sum local = 7.16427e-08, global = -8.87327e-21, cumulative = -1.56556e-21
ExecutionTime = 0.06 s  ClockTime = 0 s

Time = 0.002

Courant Number mean: 0.00559436 max: 0.0357002
nonePBiCGStab:  Solving for Ux, Initial residual = 0.242392, Final residual = 1.25093e-05, No Iterations 5
nonePBiCGStab:  Solving for Uy, Initial residual = 0.296212, Final residual = 8.52154e-06, No Iterations 5
nonePBiCGStab:  Solving for Uz, Initial residual = 0.685451, Final residual = 3.69032e-05, No Iterations 5
linear solve U 1
DICPCG:  Solving for p, Initial residual = 0.15698, Final residual = 5.85298e-05, No Iterations 33
linear solve p 1
time step continuity errors : sum local = 4.19683e-08, global = 1.37846e-20, cumulative = 1.2219e-20
DICPCG:  Solving for p, Initial residual = 0.060559, Final residual = 7.71537e-05, No Iterations 31
linear solve p 1
time step continuity errors : sum local = 6.02393e-08, global = 2.02426e-20, cumulative = 3.24616e-20
ExecutionTime = 0.07 s  ClockTime = 0 s

Time = 0.003

Courant Number mean: 0.00940317 max: 0.0587295
nonePBiCGStab:  Solving for Ux, Initial residual = 0.117973, Final residual = 4.35386e-06, No Iterations 5
nonePBiCGStab:  Solving for Uy, Initial residual = 0.148719, Final residual = 3.24267e-06, No Iterations 5
nonePBiCGStab:  Solving for Uz, Initial residual = 0.319197, Final residual = 9.69549e-06, No Iterations 5
linear solve U 1
DICPCG:  Solving for p, Initial residual = 0.0758658, Final residual = 9.21617e-05, No Iterations 31
linear solve p 1
time step continuity errors : sum local = 7.41069e-08, global = -2.84244e-20, cumulative = 4.0372e-21
DICPCG:  Solving for p, Initial residual = 0.034037, Final residual = 7.49918e-05, No Iterations 30
linear solve p 1
time step continuity errors : sum local = 6.29157e-08, global = -9.22374e-21, cumulative = -5.18654e-21
ExecutionTime = 0.07 s  ClockTime = 0 s

Time = 0.004

Courant Number mean: 0.0121905 max: 0.0737268
nonePBiCGStab:  Solving for Ux, Initial residual = 0.0723349, Final residual = 2.50595e-06, No Iterations 5
nonePBiCGStab:  Solving for Uy, Initial residual = 0.0916586, Final residual = 1.32826e-06, No Iterations 5
nonePBiCGStab:  Solving for Uz, Initial residual = 0.182454, Final residual = 4.77323e-06, No Iterations 5
linear solve U 1
DICPCG:  Solving for p, Initial residual = 0.0491697, Final residual = 5.77194e-05, No Iterations 31
linear solve p 1
time step continuity errors : sum local = 4.93336e-08, global = 6.64572e-21, cumulative = 1.45919e-21
DICPCG:  Solving for p, Initial residual = 0.0220616, Final residual = 5.0355e-05, No Iterations 30
linear solve p 1
time step continuity errors : sum local = 4.41201e-08, global = -7.01563e-21, cumulative = -5.55644e-21
ExecutionTime = 0.08 s  ClockTime = 0 s

Time = 0.005

Courant Number mean: 0.014306 max: 0.0838051
nonePBiCGStab:  Solving for Ux, Initial residual = 0.0485642, Final residual = 1.20673e-06, No Iterations 5
nonePBiCGStab:  Solving for Uy, Initial residual = 0.0627378, Final residual = 5.40407e-07, No Iterations 5
nonePBiCGStab:  Solving for Uz, Initial residual = 0.129742, Final residual = 2.99571e-06, No Iterations 5
linear solve U 1
DICPCG:  Solving for p, Initial residual = 0.0359133, Final residual = 9.26e-05, No Iterations 30
linear solve p 1
time step continuity errors : sum local = 8.23118e-08, global = -3.33059e-21, cumulative = -8.88703e-21
DICPCG:  Solving for p, Initial residual = 0.0152202, Final residual = 7.70264e-05, No Iterations 29
linear solve p 1
time step continuity errors : sum local = 6.97229e-08, global = 9.54764e-21, cumulative = 6.60601e-22
ExecutionTime = 0.09 s  ClockTime = 0 s

Time = 0.006

Courant Number mean: 0.0159483 max: 0.0908033
nonePBiCGStab:  Solving for Ux, Initial residual = 0.0353497, Final residual = 9.439e-07, No Iterations 5
nonePBiCGStab:  Solving for Uy, Initial residual = 0.0460971, Final residual = 5.18625e-07, No Iterations 5
nonePBiCGStab:  Solving for Uz, Initial residual = 0.099503, Final residual = 1.65208e-06, No Iterations 5
linear solve U 1
DICPCG:  Solving for p, Initial residual = 0.0288163, Final residual = 7.16062e-05, No Iterations 30
linear solve p 1
time step continuity errors : sum local = 6.5723e-08, global = -2.80402e-20, cumulative = -2.73796e-20
DICPCG:  Solving for p, Initial residual = 0.0110009, Final residual = 7.8892e-05, No Iterations 13
linear solve p 0
time step continuity errors : sum local = 1.07693e-07, global = -3.92044e-21, cumulative = -3.13e-20
ExecutionTime = 0.09 s  ClockTime = 0 s

Time = 0.007

Courant Number mean: 0.0172717 max: 0.0958252
nonePBiCGStab:  Solving for Ux, Initial residual = 0.0271551, Final residual = 4.75862e-07, No Iterations 5
nonePBiCGStab:  Solving for Uy, Initial residual = 0.0356394, Final residual = 9.75162e-07, No Iterations 4
nonePBiCGStab:  Solving for Uz, Initial residual = 0.0795388, Final residual = 1.41011e-06, No Iterations 5
linear solve U 1
DICPCG:  Solving for p, Initial residual = 0.0218241, Final residual = 6.90919e-05, No Iterations 14
linear solve p 0
time step continuity errors : sum local = 7.09504e-08, global = 2.11109e-20, cumulative = -1.01891e-20
DICPCG:  Solving for p, Initial residual = 0.0086463, Final residual = 8.57061e-05, No Iterations 12
linear solve p 0
time step continuity errors : sum local = 1.02428e-07, global = -4.10376e-20, cumulative = -5.12267e-20
ExecutionTime = 0.09 s  ClockTime = 0 s

Time = 0.008

Courant Number mean: 0.0183553 max: 0.0995501
nonePBiCGStab:  Solving for Ux, Initial residual = 0.0216569, Final residual = 2.96866e-07, No Iterations 5
nonePBiCGStab:  Solving for Uy, Initial residual = 0.0286129, Final residual = 6.93018e-07, No Iterations 4
nonePBiCGStab:  Solving for Uz, Initial residual = 0.0649765, Final residual = 1.04819e-06, No Iterations 5
linear solve U 1
DICPCG:  Solving for p, Initial residual = 0.0162976, Final residual = 9.25369e-05, No Iterations 13
linear solve p 0
time step continuity errors : sum local = 1.04793e-07, global = -8.59999e-21, cumulative = -5.98267e-20
DICPCG:  Solving for p, Initial residual = 0.00664102, Final residual = 6.24329e-05, No Iterations 12
linear solve p 0
time step continuity errors : sum local = 6.16743e-08, global = -1.85867e-20, cumulative = -7.84134e-20
ExecutionTime = 0.1 s  ClockTime = 0 s

Time = 0.009

Courant Number mean: 0.0192552 max: 0.102395
nonePBiCGStab:  Solving for Ux, Initial residual = 0.0176819, Final residual = 6.94504e-07, No Iterations 4
nonePBiCGStab:  Solving for Uy, Initial residual = 0.0236223, Final residual = 5.55721e-07, No Iterations 4
nonePBiCGStab:  Solving for Uz, Initial residual = 0.0544995, Final residual = 7.42518e-07, No Iterations 5
linear solve U 1
DICPCG:  Solving for p, Initial residual = 0.0132571, Final residual = 9.4888e-05, No Iterations 13
linear solve p 0
time step continuity errors : sum local = 1.26639e-07, global = -4.90249e-21, cumulative = -8.33159e-20
DICPCG:  Solving for p, Initial residual = 0.00539335, Final residual = 9.60939e-05, No Iterations 11
linear solve p 0
time step continuity errors : sum local = 1.15973e-07, global = 2.02519e-20, cumulative = -6.30641e-20
ExecutionTime = 0.1 s  ClockTime = 0 s

Time = 0.01

Courant Number mean: 0.0200143 max: 0.104627
nonePBiCGStab:  Solving for Ux, Initial residual = 0.0147301, Final residual = 4.85877e-07, No Iterations 4
nonePBiCGStab:  Solving for Uy, Initial residual = 0.0199292, Final residual = 8.70176e-07, No Iterations 4
nonePBiCGStab:  Solving for Uz, Initial residual = 0.0463445, Final residual = 5.70012e-07, No Iterations 5
linear solve U 1
DICPCG:  Solving for p, Initial residual = 0.0111565, Final residual = 7.02594e-05, No Iterations 28
linear solve p 1
time step continuity errors : sum local = 6.93965e-08, global = 1.17537e-22, cumulative = -6.29465e-20
DICPCG:  Solving for p, Initial residual = 0.00450453, Final residual = 8.51105e-05, No Iterations 11
linear solve p 0
time step continuity errors : sum local = 1.0156e-07, global = -9.03964e-21, cumulative = -7.19862e-20
ExecutionTime = 0.11 s  ClockTime = 0 s

End

