/*---------------------------------------------------------------------------*\
  =========                 |
  \\      /  F ield         | OpenFOAM: The Open Source CFD Toolbox
   \\    /   O peration     | Website:  https://openfoam.org
    \\  /    A nd           | Version:  8
     \\/     M anipulation  |
\*---------------------------------------------------------------------------*/
Build  : 8-40a5a48f630f
Exec   : icoFoam
Date   : Jul 27 2021
Time   : 21:37:10
Host   : "uc2n481.localdomain"
PID    : 94051
I/O    : uncollated
Case   : /pfs/data5/home/kit/scc/nq7776/code/OBR/lidDrivenCavity3D/Variation_mesh/15/Variation_matrix_solver/CG_NoPrecond_CUDA/base
nProcs : 1
sigFpe : Enabling floating point exception trapping (FOAM_SIGFPE).
fileModificationChecking : Monitoring run-time modified files using timeStampMaster (fileModificationSkew 10)
allowSystemOperations : Allowing user-supplied system call operations

// * * * * * * * * * * * * * * * * * * * * * * * * * * * * * * * * * * * * * //
Create time

Create mesh for time = 0

Reading transportProperties

Reading field p

Reading field U

Reading/calculating face flux field phi


Starting time loop

Time = 0.001

Courant Number mean: 0 max: 0
nonePBiCGStab:  Solving for Ux, Initial residual = 1, Final residual = 7.02612e-05, No Iterations 5
nonePBiCGStab:  Solving for Uy, Initial residual = 0, Final residual = 0, No Iterations 0
nonePBiCGStab:  Solving for Uz, Initial residual = 0, Final residual = 0, No Iterations 0
linear solve U 0
[OGL LOG] init_host_sparsity_pattern : 0 ms
[OGL LOG] matrix not stored update host matrix
[OGL LOG] update_host_mtx : 0 ms
[OGL LOG] matrix is not yet sorted, compute sorting idxs
[OGL LOG] compute_sort : 20 ms
[OGL LOG] matrix is not yet sorted, sorting host matrix
[OGL LOG] sort_host_mtx_sparsity_pattern : 0 ms
[OGL LOG] sort_host_mtx : 0 ms
[OGL LOG] init_preconditioner : 0 ms
[OGL LOG] solve : 17 ms
nonecudaGKOCG:  Solving for p, Initial residual = 1, Final residual = 7.85787e-05, No Iterations 111
linear solve p 799
time step continuity errors : sum local = 3.29838e-08, global = 9.4494e-21, cumulative = 9.4494e-21
[OGL LOG] init_host_sparsity_pattern : 0 ms
[OGL LOG] matrix not stored update host matrix
[OGL LOG] update_host_mtx : 0 ms
[OGL LOG] matrix is not yet sorted, sorting host matrix
[OGL LOG] sort_host_mtx_sparsity_pattern : 0 ms
[OGL LOG] sort_host_mtx : 0 ms
[OGL LOG] init_preconditioner : 0 ms
[OGL LOG] solve : 15 ms
nonecudaGKOCG:  Solving for p, Initial residual = 0.316788, Final residual = 9.20608e-05, No Iterations 105
linear solve p 18
time step continuity errors : sum local = 6.76732e-08, global = -7.71056e-21, cumulative = 1.73884e-21
ExecutionTime = 0.85 s  ClockTime = 0 s

Time = 0.002

Courant Number mean: 0.00559436 max: 0.0357002
nonePBiCGStab:  Solving for Ux, Initial residual = 0.242392, Final residual = 1.25093e-05, No Iterations 5
nonePBiCGStab:  Solving for Uy, Initial residual = 0.296212, Final residual = 8.5215e-06, No Iterations 5
nonePBiCGStab:  Solving for Uz, Initial residual = 0.685395, Final residual = 3.69566e-05, No Iterations 5
linear solve U 1
[OGL LOG] init_host_sparsity_pattern : 0 ms
[OGL LOG] matrix not stored update host matrix
[OGL LOG] update_host_mtx : 0 ms
[OGL LOG] matrix is not yet sorted, sorting host matrix
[OGL LOG] sort_host_mtx_sparsity_pattern : 0 ms
[OGL LOG] sort_host_mtx : 0 ms
[OGL LOG] init_preconditioner : 0 ms
[OGL LOG] solve : 15 ms
nonecudaGKOCG:  Solving for p, Initial residual = 0.156981, Final residual = 8.62418e-05, No Iterations 102
linear solve p 18
time step continuity errors : sum local = 6.18778e-08, global = -3.41564e-21, cumulative = -1.6768e-21
[OGL LOG] init_host_sparsity_pattern : 0 ms
[OGL LOG] matrix not stored update host matrix
[OGL LOG] update_host_mtx : 0 ms
[OGL LOG] matrix is not yet sorted, sorting host matrix
[OGL LOG] sort_host_mtx_sparsity_pattern : 0 ms
[OGL LOG] sort_host_mtx : 0 ms
[OGL LOG] init_preconditioner : 0 ms
[OGL LOG] solve : 14 ms
nonecudaGKOCG:  Solving for p, Initial residual = 0.0605666, Final residual = 7.82874e-05, No Iterations 97
linear solve p 17
time step continuity errors : sum local = 6.10576e-08, global = -8.58376e-21, cumulative = -1.02606e-20
ExecutionTime = 0.89 s  ClockTime = 0 s

Time = 0.003

Courant Number mean: 0.00940316 max: 0.0587296
nonePBiCGStab:  Solving for Ux, Initial residual = 0.117973, Final residual = 4.35382e-06, No Iterations 5
nonePBiCGStab:  Solving for Uy, Initial residual = 0.148718, Final residual = 3.24272e-06, No Iterations 5
nonePBiCGStab:  Solving for Uz, Initial residual = 0.318987, Final residual = 9.70184e-06, No Iterations 5
linear solve U 1
[OGL LOG] init_host_sparsity_pattern : 0 ms
[OGL LOG] matrix not stored update host matrix
[OGL LOG] update_host_mtx : 0 ms
[OGL LOG] matrix is not yet sorted, sorting host matrix
[OGL LOG] sort_host_mtx_sparsity_pattern : 0 ms
[OGL LOG] sort_host_mtx : 0 ms
[OGL LOG] init_preconditioner : 0 ms
[OGL LOG] solve : 14 ms
nonecudaGKOCG:  Solving for p, Initial residual = 0.0758659, Final residual = 7.71685e-05, No Iterations 99
linear solve p 17
time step continuity errors : sum local = 6.19293e-08, global = 1.75259e-20, cumulative = 7.26533e-21
[OGL LOG] init_host_sparsity_pattern : 0 ms
[OGL LOG] matrix not stored update host matrix
[OGL LOG] update_host_mtx : 0 ms
[OGL LOG] matrix is not yet sorted, sorting host matrix
[OGL LOG] sort_host_mtx_sparsity_pattern : 0 ms
[OGL LOG] sort_host_mtx : 0 ms
[OGL LOG] init_preconditioner : 0 ms
[OGL LOG] solve : 14 ms
nonecudaGKOCG:  Solving for p, Initial residual = 0.0340513, Final residual = 9.20824e-05, No Iterations 95
linear solve p 16
time step continuity errors : sum local = 7.71974e-08, global = -2.33027e-20, cumulative = -1.60374e-20
ExecutionTime = 0.93 s  ClockTime = 0 s

Time = 0.004

Courant Number mean: 0.0121905 max: 0.0737268
nonePBiCGStab:  Solving for Ux, Initial residual = 0.0723349, Final residual = 2.50589e-06, No Iterations 5
nonePBiCGStab:  Solving for Uy, Initial residual = 0.091659, Final residual = 1.32832e-06, No Iterations 5
nonePBiCGStab:  Solving for Uz, Initial residual = 0.182385, Final residual = 4.76272e-06, No Iterations 5
linear solve U 1
[OGL LOG] init_host_sparsity_pattern : 0 ms
[OGL LOG] matrix not stored update host matrix
[OGL LOG] update_host_mtx : 0 ms
[OGL LOG] matrix is not yet sorted, sorting host matrix
[OGL LOG] sort_host_mtx_sparsity_pattern : 0 ms
[OGL LOG] sort_host_mtx : 0 ms
[OGL LOG] init_preconditioner : 0 ms
[OGL LOG] solve : 14 ms
nonecudaGKOCG:  Solving for p, Initial residual = 0.049185, Final residual = 7.33792e-05, No Iterations 98
linear solve p 17
time step continuity errors : sum local = 6.25977e-08, global = 1.252e-20, cumulative = -3.51738e-21
[OGL LOG] init_host_sparsity_pattern : 0 ms
[OGL LOG] matrix not stored update host matrix
[OGL LOG] update_host_mtx : 0 ms
[OGL LOG] matrix is not yet sorted, sorting host matrix
[OGL LOG] sort_host_mtx_sparsity_pattern : 0 ms
[OGL LOG] sort_host_mtx : 0 ms
[OGL LOG] init_preconditioner : 0 ms
[OGL LOG] solve : 14 ms
nonecudaGKOCG:  Solving for p, Initial residual = 0.0220796, Final residual = 9.67678e-05, No Iterations 94
linear solve p 16
time step continuity errors : sum local = 8.46792e-08, global = -1.5776e-20, cumulative = -1.92934e-20
ExecutionTime = 0.96 s  ClockTime = 1 s

Time = 0.005

Courant Number mean: 0.014306 max: 0.083805
nonePBiCGStab:  Solving for Ux, Initial residual = 0.048564, Final residual = 1.20681e-06, No Iterations 5
nonePBiCGStab:  Solving for Uy, Initial residual = 0.0627382, Final residual = 5.39949e-07, No Iterations 5
nonePBiCGStab:  Solving for Uz, Initial residual = 0.129721, Final residual = 3.01162e-06, No Iterations 5
linear solve U 1
[OGL LOG] init_host_sparsity_pattern : 0 ms
[OGL LOG] matrix not stored update host matrix
[OGL LOG] update_host_mtx : 0 ms
[OGL LOG] matrix is not yet sorted, sorting host matrix
[OGL LOG] sort_host_mtx_sparsity_pattern : 0 ms
[OGL LOG] sort_host_mtx : 0 ms
[OGL LOG] init_preconditioner : 0 ms
[OGL LOG] solve : 14 ms
nonecudaGKOCG:  Solving for p, Initial residual = 0.035925, Final residual = 8.80734e-05, No Iterations 97
linear solve p 17
time step continuity errors : sum local = 7.80953e-08, global = -2.27661e-20, cumulative = -4.20594e-20
[OGL LOG] init_host_sparsity_pattern : 0 ms
[OGL LOG] matrix not stored update host matrix
[OGL LOG] update_host_mtx : 0 ms
[OGL LOG] matrix is not yet sorted, sorting host matrix
[OGL LOG] sort_host_mtx_sparsity_pattern : 0 ms
[OGL LOG] sort_host_mtx : 0 ms
[OGL LOG] init_preconditioner : 0 ms
[OGL LOG] solve : 13 ms
nonecudaGKOCG:  Solving for p, Initial residual = 0.0152348, Final residual = 9.83453e-05, No Iterations 93
linear solve p 16
time step continuity errors : sum local = 8.87608e-08, global = 7.21301e-21, cumulative = -3.48464e-20
ExecutionTime = 1 s  ClockTime = 1 s

Time = 0.006

Courant Number mean: 0.0159483 max: 0.0908032
nonePBiCGStab:  Solving for Ux, Initial residual = 0.0353493, Final residual = 9.43891e-07, No Iterations 5
nonePBiCGStab:  Solving for Uy, Initial residual = 0.0460981, Final residual = 5.18321e-07, No Iterations 5
nonePBiCGStab:  Solving for Uz, Initial residual = 0.0994268, Final residual = 1.68946e-06, No Iterations 5
linear solve U 1
[OGL LOG] init_host_sparsity_pattern : 0 ms
[OGL LOG] matrix not stored update host matrix
[OGL LOG] update_host_mtx : 0 ms
[OGL LOG] matrix is not yet sorted, sorting host matrix
[OGL LOG] sort_host_mtx_sparsity_pattern : 0 ms
[OGL LOG] sort_host_mtx : 0 ms
[OGL LOG] init_preconditioner : 0 ms
[OGL LOG] solve : 14 ms
nonecudaGKOCG:  Solving for p, Initial residual = 0.0288193, Final residual = 7.8151e-05, No Iterations 97
linear solve p 17
time step continuity errors : sum local = 7.15875e-08, global = 2.05681e-20, cumulative = -1.42783e-20
[OGL LOG] init_host_sparsity_pattern : 0 ms
[OGL LOG] matrix not stored update host matrix
[OGL LOG] update_host_mtx : 0 ms
[OGL LOG] matrix is not yet sorted, sorting host matrix
[OGL LOG] sort_host_mtx_sparsity_pattern : 0 ms
[OGL LOG] sort_host_mtx : 0 ms
[OGL LOG] init_preconditioner : 0 ms
[OGL LOG] solve : 13 ms
nonecudaGKOCG:  Solving for p, Initial residual = 0.0110065, Final residual = 9.51198e-05, No Iterations 92
linear solve p 16
time step continuity errors : sum local = 8.85081e-08, global = 2.80032e-20, cumulative = 1.37249e-20
ExecutionTime = 1.03 s  ClockTime = 1 s

Time = 0.007

Courant Number mean: 0.0172718 max: 0.0958251
nonePBiCGStab:  Solving for Ux, Initial residual = 0.0271631, Final residual = 4.70437e-07, No Iterations 5
nonePBiCGStab:  Solving for Uy, Initial residual = 0.0356269, Final residual = 9.44429e-07, No Iterations 4
nonePBiCGStab:  Solving for Uz, Initial residual = 0.0794176, Final residual = 1.27742e-06, No Iterations 5
linear solve U 1
[OGL LOG] init_host_sparsity_pattern : 0 ms
[OGL LOG] matrix not stored update host matrix
[OGL LOG] update_host_mtx : 0 ms
[OGL LOG] matrix is not yet sorted, sorting host matrix
[OGL LOG] sort_host_mtx_sparsity_pattern : 0 ms
[OGL LOG] sort_host_mtx : 0 ms
[OGL LOG] init_preconditioner : 0 ms
[OGL LOG] solve : 14 ms
nonecudaGKOCG:  Solving for p, Initial residual = 0.0217453, Final residual = 9.51281e-05, No Iterations 96
linear solve p 17
time step continuity errors : sum local = 8.93089e-08, global = -1.86793e-20, cumulative = -4.95446e-21
[OGL LOG] init_host_sparsity_pattern : 0 ms
[OGL LOG] matrix not stored update host matrix
[OGL LOG] update_host_mtx : 0 ms
[OGL LOG] matrix is not yet sorted, sorting host matrix
[OGL LOG] sort_host_mtx_sparsity_pattern : 0 ms
[OGL LOG] sort_host_mtx : 0 ms
[OGL LOG] init_preconditioner : 0 ms
[OGL LOG] solve : 6 ms
nonecudaGKOCG:  Solving for p, Initial residual = 0.00859943, Final residual = 9.86337e-05, No Iterations 40
linear solve p 9
time step continuity errors : sum local = 1.19262e-07, global = -1.32709e-20, cumulative = -1.82253e-20
ExecutionTime = 1.07 s  ClockTime = 1 s

Time = 0.008

Courant Number mean: 0.0183553 max: 0.0995502
nonePBiCGStab:  Solving for Ux, Initial residual = 0.0216524, Final residual = 2.97269e-07, No Iterations 5
nonePBiCGStab:  Solving for Uy, Initial residual = 0.0286207, Final residual = 6.97859e-07, No Iterations 4
nonePBiCGStab:  Solving for Uz, Initial residual = 0.064944, Final residual = 1.10022e-06, No Iterations 5
linear solve U 1
[OGL LOG] init_host_sparsity_pattern : 0 ms
[OGL LOG] matrix not stored update host matrix
[OGL LOG] update_host_mtx : 0 ms
[OGL LOG] matrix is not yet sorted, sorting host matrix
[OGL LOG] sort_host_mtx_sparsity_pattern : 0 ms
[OGL LOG] sort_host_mtx : 0 ms
[OGL LOG] init_preconditioner : 0 ms
[OGL LOG] solve : 7 ms
nonecudaGKOCG:  Solving for p, Initial residual = 0.0163415, Final residual = 8.31008e-05, No Iterations 44
linear solve p 9
time step continuity errors : sum local = 8.13703e-08, global = -4.16196e-21, cumulative = -2.23873e-20
[OGL LOG] init_host_sparsity_pattern : 0 ms
[OGL LOG] matrix not stored update host matrix
[OGL LOG] update_host_mtx : 0 ms
[OGL LOG] matrix is not yet sorted, sorting host matrix
[OGL LOG] sort_host_mtx_sparsity_pattern : 0 ms
[OGL LOG] sort_host_mtx : 0 ms
[OGL LOG] init_preconditioner : 0 ms
[OGL LOG] solve : 6 ms
nonecudaGKOCG:  Solving for p, Initial residual = 0.00665249, Final residual = 9.78216e-05, No Iterations 38
linear solve p 8
time step continuity errors : sum local = 1.08933e-07, global = -3.13818e-20, cumulative = -5.37691e-20
ExecutionTime = 1.09 s  ClockTime = 1 s

Time = 0.009

Courant Number mean: 0.0192552 max: 0.102395
nonePBiCGStab:  Solving for Ux, Initial residual = 0.0176813, Final residual = 6.85454e-07, No Iterations 4
nonePBiCGStab:  Solving for Uy, Initial residual = 0.0236227, Final residual = 5.51096e-07, No Iterations 4
nonePBiCGStab:  Solving for Uz, Initial residual = 0.0544352, Final residual = 7.41342e-07, No Iterations 5
linear solve U 0
[OGL LOG] init_host_sparsity_pattern : 0 ms
[OGL LOG] matrix not stored update host matrix
[OGL LOG] update_host_mtx : 0 ms
[OGL LOG] matrix is not yet sorted, sorting host matrix
[OGL LOG] sort_host_mtx_sparsity_pattern : 0 ms
[OGL LOG] sort_host_mtx : 0 ms
[OGL LOG] init_preconditioner : 0 ms
[OGL LOG] solve : 6 ms
nonecudaGKOCG:  Solving for p, Initial residual = 0.0132666, Final residual = 7.82473e-05, No Iterations 43
linear solve p 9
time step continuity errors : sum local = 9.22746e-08, global = -7.106e-21, cumulative = -6.08751e-20
[OGL LOG] init_host_sparsity_pattern : 0 ms
[OGL LOG] matrix not stored update host matrix
[OGL LOG] update_host_mtx : 0 ms
[OGL LOG] matrix is not yet sorted, sorting host matrix
[OGL LOG] sort_host_mtx_sparsity_pattern : 0 ms
[OGL LOG] sort_host_mtx : 0 ms
[OGL LOG] init_preconditioner : 0 ms
[OGL LOG] solve : 5 ms
nonecudaGKOCG:  Solving for p, Initial residual = 0.005401, Final residual = 9.84804e-05, No Iterations 36
linear solve p 8
time step continuity errors : sum local = 1.002e-07, global = -4.06483e-20, cumulative = -1.01523e-19
ExecutionTime = 1.11 s  ClockTime = 1 s

Time = 0.01

Courant Number mean: 0.0200142 max: 0.104627
nonePBiCGStab:  Solving for Ux, Initial residual = 0.01473, Final residual = 4.83532e-07, No Iterations 4
nonePBiCGStab:  Solving for Uy, Initial residual = 0.0199285, Final residual = 8.70045e-07, No Iterations 4
nonePBiCGStab:  Solving for Uz, Initial residual = 0.0463303, Final residual = 5.74145e-07, No Iterations 5
linear solve U 0
[OGL LOG] init_host_sparsity_pattern : 0 ms
[OGL LOG] matrix not stored update host matrix
[OGL LOG] update_host_mtx : 0 ms
[OGL LOG] matrix is not yet sorted, sorting host matrix
[OGL LOG] sort_host_mtx_sparsity_pattern : 0 ms
[OGL LOG] sort_host_mtx : 0 ms
[OGL LOG] init_preconditioner : 0 ms
[OGL LOG] solve : 6 ms
nonecudaGKOCG:  Solving for p, Initial residual = 0.0111404, Final residual = 8.12817e-05, No Iterations 43
linear solve p 9
time step continuity errors : sum local = 1.11161e-07, global = 3.43073e-21, cumulative = -9.80926e-20
[OGL LOG] init_host_sparsity_pattern : 0 ms
[OGL LOG] matrix not stored update host matrix
[OGL LOG] update_host_mtx : 0 ms
[OGL LOG] matrix is not yet sorted, sorting host matrix
[OGL LOG] sort_host_mtx_sparsity_pattern : 0 ms
[OGL LOG] sort_host_mtx : 0 ms
[OGL LOG] init_preconditioner : 0 ms
[OGL LOG] solve : 5 ms
nonecudaGKOCG:  Solving for p, Initial residual = 0.00449569, Final residual = 9.29371e-05, No Iterations 36
linear solve p 8
time step continuity errors : sum local = 1.12584e-07, global = 3.84792e-20, cumulative = -5.96134e-20
ExecutionTime = 1.13 s  ClockTime = 1 s

End

