/*---------------------------------------------------------------------------*\
  =========                 |
  \\      /  F ield         | OpenFOAM: The Open Source CFD Toolbox
   \\    /   O peration     | Website:  https://openfoam.org
    \\  /    A nd           | Version:  8
     \\/     M anipulation  |
\*---------------------------------------------------------------------------*/
Build  : 8-40a5a48f630f
Exec   : icoFoam
Date   : Jul 27 2021
Time   : 22:05:32
Host   : "uc2n481.localdomain"
PID    : 120243
I/O    : uncollated
Case   : /pfs/data5/home/kit/scc/nq7776/code/OBR/lidDrivenCavity3D/Variation_mesh/65/Variation_matrix_solver/CG_NoPrecond_CUDA/base
nProcs : 1
sigFpe : Enabling floating point exception trapping (FOAM_SIGFPE).
fileModificationChecking : Monitoring run-time modified files using timeStampMaster (fileModificationSkew 10)
allowSystemOperations : Allowing user-supplied system call operations

// * * * * * * * * * * * * * * * * * * * * * * * * * * * * * * * * * * * * * //
Create time

Create mesh for time = 0

Reading transportProperties

Reading field p

Reading field U

Reading/calculating face flux field phi


Starting time loop

Time = 0.001

Courant Number mean: 0 max: 0
nonePBiCGStab:  Solving for Ux, Initial residual = 1, Final residual = 0.053017, No Iterations 5
nonePBiCGStab:  Solving for Uy, Initial residual = 0, Final residual = 0, No Iterations 0
nonePBiCGStab:  Solving for Uz, Initial residual = 0, Final residual = 0, No Iterations 0
linear solve U 74
[OGL LOG] init_host_sparsity_pattern : 79 ms
[OGL LOG] matrix not stored update host matrix
[OGL LOG] update_host_mtx : 40 ms
[OGL LOG] matrix is not yet sorted, compute sorting idxs
[OGL LOG] compute_sort : 2428 ms
[OGL LOG] matrix is not yet sorted, sorting host matrix
[OGL LOG] sort_host_mtx_sparsity_pattern : 55 ms
[OGL LOG] sort_host_mtx : 28 ms
[OGL LOG] init_preconditioner : 0 ms
[OGL LOG] solve : 242 ms
nonecudaGKOCG:  Solving for p, Initial residual = 1, Final residual = 9.51833e-05, No Iterations 510
linear solve p 3671
time step continuity errors : sum local = 4.58047e-08, global = -4.53365e-21, cumulative = -4.53365e-21
[OGL LOG] init_host_sparsity_pattern : 73 ms
[OGL LOG] matrix not stored update host matrix
[OGL LOG] update_host_mtx : 40 ms
[OGL LOG] matrix is not yet sorted, sorting host matrix
[OGL LOG] sort_host_mtx_sparsity_pattern : 57 ms
[OGL LOG] sort_host_mtx : 39 ms
[OGL LOG] init_preconditioner : 0 ms
[OGL LOG] solve : 238 ms
nonecudaGKOCG:  Solving for p, Initial residual = 0.674187, Final residual = 9.91355e-05, No Iterations 503
linear solve p 467
time step continuity errors : sum local = 6.77243e-08, global = -2.39866e-21, cumulative = -6.9323e-21
ExecutionTime = 5.41 s  ClockTime = 5 s

Time = 0.002

Courant Number mean: 0.0326827 max: 0.468252
nonePBiCGStab:  Solving for Ux, Initial residual = 0.151756, Final residual = 0.0210783, No Iterations 5
nonePBiCGStab:  Solving for Uy, Initial residual = 0.364889, Final residual = 0.0451024, No Iterations 5
nonePBiCGStab:  Solving for Uz, Initial residual = 0.979949, Final residual = 0.154118, No Iterations 5
linear solve U 147
[OGL LOG] init_host_sparsity_pattern : 76 ms
[OGL LOG] matrix not stored update host matrix
[OGL LOG] update_host_mtx : 35 ms
[OGL LOG] matrix is not yet sorted, sorting host matrix
[OGL LOG] sort_host_mtx_sparsity_pattern : 52 ms
[OGL LOG] sort_host_mtx : 28 ms
[OGL LOG] init_preconditioner : 0 ms
[OGL LOG] solve : 236 ms
nonecudaGKOCG:  Solving for p, Initial residual = 0.656711, Final residual = 9.94624e-05, No Iterations 499
linear solve p 446
time step continuity errors : sum local = 8.45752e-08, global = 8.55845e-21, cumulative = 1.62615e-21
[OGL LOG] init_host_sparsity_pattern : 76 ms
[OGL LOG] matrix not stored update host matrix
[OGL LOG] update_host_mtx : 35 ms
[OGL LOG] matrix is not yet sorted, sorting host matrix
[OGL LOG] sort_host_mtx_sparsity_pattern : 51 ms
[OGL LOG] sort_host_mtx : 28 ms
[OGL LOG] init_preconditioner : 0 ms
[OGL LOG] solve : 237 ms
nonecudaGKOCG:  Solving for p, Initial residual = 0.574986, Final residual = 8.89508e-05, No Iterations 498
linear solve p 446
time step continuity errors : sum local = 7.74704e-08, global = 3.18876e-21, cumulative = 4.8149e-21
ExecutionTime = 6.62 s  ClockTime = 7 s

Time = 0.003

Courant Number mean: 0.0502554 max: 0.556611
nonePBiCGStab:  Solving for Ux, Initial residual = 0.0551707, Final residual = 0.00592584, No Iterations 5
nonePBiCGStab:  Solving for Uy, Initial residual = 0.124792, Final residual = 0.0163171, No Iterations 5
nonePBiCGStab:  Solving for Uz, Initial residual = 0.342258, Final residual = 0.0517401, No Iterations 5
linear solve U 147
[OGL LOG] init_host_sparsity_pattern : 73 ms
[OGL LOG] matrix not stored update host matrix
[OGL LOG] update_host_mtx : 35 ms
[OGL LOG] matrix is not yet sorted, sorting host matrix
[OGL LOG] sort_host_mtx_sparsity_pattern : 51 ms
[OGL LOG] sort_host_mtx : 28 ms
[OGL LOG] init_preconditioner : 0 ms
[OGL LOG] solve : 234 ms
nonecudaGKOCG:  Solving for p, Initial residual = 0.556896, Final residual = 9.8349e-05, No Iterations 493
linear solve p 439
time step continuity errors : sum local = 5.66614e-08, global = -1.80984e-20, cumulative = -1.32835e-20
[OGL LOG] init_host_sparsity_pattern : 74 ms
[OGL LOG] matrix not stored update host matrix
[OGL LOG] update_host_mtx : 37 ms
[OGL LOG] matrix is not yet sorted, sorting host matrix
[OGL LOG] sort_host_mtx_sparsity_pattern : 52 ms
[OGL LOG] sort_host_mtx : 29 ms
[OGL LOG] init_preconditioner : 0 ms
[OGL LOG] solve : 233 ms
nonecudaGKOCG:  Solving for p, Initial residual = 0.491439, Final residual = 9.7207e-05, No Iterations 492
linear solve p 446
time step continuity errors : sum local = 5.43801e-08, global = 1.66118e-20, cumulative = 3.32828e-21
ExecutionTime = 7.82 s  ClockTime = 8 s

Time = 0.004

Courant Number mean: 0.0602927 max: 0.575008
nonePBiCGStab:  Solving for Ux, Initial residual = 0.0331619, Final residual = 0.00304836, No Iterations 5
nonePBiCGStab:  Solving for Uy, Initial residual = 0.0805128, Final residual = 0.00691232, No Iterations 5
nonePBiCGStab:  Solving for Uz, Initial residual = 0.204145, Final residual = 0.0243136, No Iterations 5
linear solve U 145
[OGL LOG] init_host_sparsity_pattern : 74 ms
[OGL LOG] matrix not stored update host matrix
[OGL LOG] update_host_mtx : 36 ms
[OGL LOG] matrix is not yet sorted, sorting host matrix
[OGL LOG] sort_host_mtx_sparsity_pattern : 52 ms
[OGL LOG] sort_host_mtx : 28 ms
[OGL LOG] init_preconditioner : 0 ms
[OGL LOG] solve : 114 ms
nonecudaGKOCG:  Solving for p, Initial residual = 0.352227, Final residual = 9.9872e-05, No Iterations 239
linear solve p 322
time step continuity errors : sum local = 6.18802e-08, global = -2.15618e-21, cumulative = 1.1721e-21
[OGL LOG] init_host_sparsity_pattern : 73 ms
[OGL LOG] matrix not stored update host matrix
[OGL LOG] update_host_mtx : 35 ms
[OGL LOG] matrix is not yet sorted, sorting host matrix
[OGL LOG] sort_host_mtx_sparsity_pattern : 51 ms
[OGL LOG] sort_host_mtx : 28 ms
[OGL LOG] init_preconditioner : 0 ms
[OGL LOG] solve : 113 ms
nonecudaGKOCG:  Solving for p, Initial residual = 0.291674, Final residual = 9.53501e-05, No Iterations 236
linear solve p 319
time step continuity errors : sum local = 5.53607e-08, global = -5.98641e-21, cumulative = -4.8143e-21
ExecutionTime = 8.78 s  ClockTime = 9 s

Time = 0.005

Courant Number mean: 0.0682799 max: 0.585617
nonePBiCGStab:  Solving for Ux, Initial residual = 0.0235497, Final residual = 0.00193592, No Iterations 5
nonePBiCGStab:  Solving for Uy, Initial residual = 0.0529868, Final residual = 0.003785, No Iterations 5
nonePBiCGStab:  Solving for Uz, Initial residual = 0.105308, Final residual = 0.0122169, No Iterations 5
linear solve U 148
[OGL LOG] init_host_sparsity_pattern : 73 ms
[OGL LOG] matrix not stored update host matrix
[OGL LOG] update_host_mtx : 36 ms
[OGL LOG] matrix is not yet sorted, sorting host matrix
[OGL LOG] sort_host_mtx_sparsity_pattern : 51 ms
[OGL LOG] sort_host_mtx : 28 ms
[OGL LOG] init_preconditioner : 0 ms
[OGL LOG] solve : 109 ms
nonecudaGKOCG:  Solving for p, Initial residual = 0.271316, Final residual = 9.74225e-05, No Iterations 227
linear solve p 315
time step continuity errors : sum local = 4.77401e-08, global = -1.32906e-20, cumulative = -1.81049e-20
[OGL LOG] init_host_sparsity_pattern : 73 ms
[OGL LOG] matrix not stored update host matrix
[OGL LOG] update_host_mtx : 35 ms
[OGL LOG] matrix is not yet sorted, sorting host matrix
[OGL LOG] sort_host_mtx_sparsity_pattern : 51 ms
[OGL LOG] sort_host_mtx : 28 ms
[OGL LOG] init_preconditioner : 0 ms
[OGL LOG] solve : 108 ms
nonecudaGKOCG:  Solving for p, Initial residual = 0.230529, Final residual = 9.78984e-05, No Iterations 225
linear solve p 314
time step continuity errors : sum local = 4.75206e-08, global = -3.8872e-21, cumulative = -2.19921e-20
ExecutionTime = 9.73 s  ClockTime = 10 s

Time = 0.006

Courant Number mean: 0.0745601 max: 0.592192
nonePBiCGStab:  Solving for Ux, Initial residual = 0.0176777, Final residual = 0.001107, No Iterations 5
nonePBiCGStab:  Solving for Uy, Initial residual = 0.0396037, Final residual = 0.00184101, No Iterations 5
nonePBiCGStab:  Solving for Uz, Initial residual = 0.084754, Final residual = 0.00888819, No Iterations 5
linear solve U 147
[OGL LOG] init_host_sparsity_pattern : 73 ms
[OGL LOG] matrix not stored update host matrix
[OGL LOG] update_host_mtx : 35 ms
[OGL LOG] matrix is not yet sorted, sorting host matrix
[OGL LOG] sort_host_mtx_sparsity_pattern : 51 ms
[OGL LOG] sort_host_mtx : 28 ms
[OGL LOG] init_preconditioner : 0 ms
[OGL LOG] solve : 110 ms
nonecudaGKOCG:  Solving for p, Initial residual = 0.175809, Final residual = 9.01651e-05, No Iterations 225
linear solve p 316
time step continuity errors : sum local = 5.07774e-08, global = 5.55476e-21, cumulative = -1.64373e-20
[OGL LOG] init_host_sparsity_pattern : 74 ms
[OGL LOG] matrix not stored update host matrix
[OGL LOG] update_host_mtx : 38 ms
[OGL LOG] matrix is not yet sorted, sorting host matrix
[OGL LOG] sort_host_mtx_sparsity_pattern : 56 ms
[OGL LOG] sort_host_mtx : 28 ms
[OGL LOG] init_preconditioner : 0 ms
[OGL LOG] solve : 107 ms
nonecudaGKOCG:  Solving for p, Initial residual = 0.145788, Final residual = 9.64419e-05, No Iterations 222
linear solve p 323
time step continuity errors : sum local = 4.95627e-08, global = 1.79534e-20, cumulative = 1.5161e-21
ExecutionTime = 10.69 s  ClockTime = 11 s

Time = 0.007

Courant Number mean: 0.0797731 max: 0.596671
nonePBiCGStab:  Solving for Ux, Initial residual = 0.013948, Final residual = 0.000743761, No Iterations 5
nonePBiCGStab:  Solving for Uy, Initial residual = 0.0312508, Final residual = 0.00141138, No Iterations 5
nonePBiCGStab:  Solving for Uz, Initial residual = 0.0641655, Final residual = 0.00449879, No Iterations 5
linear solve U 146
[OGL LOG] init_host_sparsity_pattern : 73 ms
[OGL LOG] matrix not stored update host matrix
[OGL LOG] update_host_mtx : 35 ms
[OGL LOG] matrix is not yet sorted, sorting host matrix
[OGL LOG] sort_host_mtx_sparsity_pattern : 52 ms
[OGL LOG] sort_host_mtx : 28 ms
[OGL LOG] init_preconditioner : 0 ms
[OGL LOG] solve : 104 ms
nonecudaGKOCG:  Solving for p, Initial residual = 0.127913, Final residual = 9.56527e-05, No Iterations 215
linear solve p 310
time step continuity errors : sum local = 4.31255e-08, global = -1.26162e-20, cumulative = -1.11002e-20
[OGL LOG] init_host_sparsity_pattern : 74 ms
[OGL LOG] matrix not stored update host matrix
[OGL LOG] update_host_mtx : 35 ms
[OGL LOG] matrix is not yet sorted, sorting host matrix
[OGL LOG] sort_host_mtx_sparsity_pattern : 51 ms
[OGL LOG] sort_host_mtx : 28 ms
[OGL LOG] init_preconditioner : 0 ms
[OGL LOG] solve : 103 ms
nonecudaGKOCG:  Solving for p, Initial residual = 0.107269, Final residual = 9.76285e-05, No Iterations 213
linear solve p 310
time step continuity errors : sum local = 4.56484e-08, global = -9.12931e-21, cumulative = -2.02295e-20
ExecutionTime = 11.62 s  ClockTime = 12 s

Time = 0.008

Courant Number mean: 0.084144 max: 0.600054
nonePBiCGStab:  Solving for Ux, Initial residual = 0.0113974, Final residual = 0.000498275, No Iterations 5
nonePBiCGStab:  Solving for Uy, Initial residual = 0.0252535, Final residual = 0.00081495, No Iterations 5
nonePBiCGStab:  Solving for Uz, Initial residual = 0.0531052, Final residual = 0.0039135, No Iterations 5
linear solve U 146
[OGL LOG] init_host_sparsity_pattern : 74 ms
[OGL LOG] matrix not stored update host matrix
[OGL LOG] update_host_mtx : 35 ms
[OGL LOG] matrix is not yet sorted, sorting host matrix
[OGL LOG] sort_host_mtx_sparsity_pattern : 51 ms
[OGL LOG] sort_host_mtx : 28 ms
[OGL LOG] init_preconditioner : 0 ms
[OGL LOG] solve : 213 ms
nonecudaGKOCG:  Solving for p, Initial residual = 0.0860645, Final residual = 9.87069e-05, No Iterations 448
linear solve p 418
time step continuity errors : sum local = 4.32657e-08, global = -1.64433e-20, cumulative = -3.66728e-20
[OGL LOG] init_host_sparsity_pattern : 74 ms
[OGL LOG] matrix not stored update host matrix
[OGL LOG] update_host_mtx : 35 ms
[OGL LOG] matrix is not yet sorted, sorting host matrix
[OGL LOG] sort_host_mtx_sparsity_pattern : 52 ms
[OGL LOG] sort_host_mtx : 28 ms
[OGL LOG] init_preconditioner : 0 ms
[OGL LOG] solve : 104 ms
nonecudaGKOCG:  Solving for p, Initial residual = 0.0718539, Final residual = 9.70993e-05, No Iterations 216
linear solve p 311
time step continuity errors : sum local = 5.05384e-08, global = -7.95695e-21, cumulative = -4.46297e-20
ExecutionTime = 12.67 s  ClockTime = 13 s

Time = 0.009

Courant Number mean: 0.0878974 max: 0.602634
nonePBiCGStab:  Solving for Ux, Initial residual = 0.00949925, Final residual = 0.000425595, No Iterations 5
nonePBiCGStab:  Solving for Uy, Initial residual = 0.0212983, Final residual = 0.000652949, No Iterations 5
nonePBiCGStab:  Solving for Uz, Initial residual = 0.0451079, Final residual = 0.00253883, No Iterations 5
linear solve U 147
[OGL LOG] init_host_sparsity_pattern : 73 ms
[OGL LOG] matrix not stored update host matrix
[OGL LOG] update_host_mtx : 35 ms
[OGL LOG] matrix is not yet sorted, sorting host matrix
[OGL LOG] sort_host_mtx_sparsity_pattern : 53 ms
[OGL LOG] sort_host_mtx : 28 ms
[OGL LOG] init_preconditioner : 0 ms
[OGL LOG] solve : 216 ms
nonecudaGKOCG:  Solving for p, Initial residual = 0.062275, Final residual = 9.43683e-05, No Iterations 450
linear solve p 424
time step continuity errors : sum local = 4.07302e-08, global = 1.96466e-21, cumulative = -4.26651e-20
[OGL LOG] init_host_sparsity_pattern : 73 ms
[OGL LOG] matrix not stored update host matrix
[OGL LOG] update_host_mtx : 35 ms
[OGL LOG] matrix is not yet sorted, sorting host matrix
[OGL LOG] sort_host_mtx_sparsity_pattern : 51 ms
[OGL LOG] sort_host_mtx : 28 ms
[OGL LOG] init_preconditioner : 0 ms
[OGL LOG] solve : 213 ms
nonecudaGKOCG:  Solving for p, Initial residual = 0.0525448, Final residual = 9.84266e-05, No Iterations 448
linear solve p 418
time step continuity errors : sum local = 4.25013e-08, global = 3.12666e-21, cumulative = -3.95384e-20
ExecutionTime = 13.83 s  ClockTime = 14 s

Time = 0.01

Courant Number mean: 0.0911617 max: 0.604745
nonePBiCGStab:  Solving for Ux, Initial residual = 0.0080956, Final residual = 0.000301685, No Iterations 5
nonePBiCGStab:  Solving for Uy, Initial residual = 0.0180122, Final residual = 0.000470319, No Iterations 5
nonePBiCGStab:  Solving for Uz, Initial residual = 0.0389293, Final residual = 0.00235237, No Iterations 5
linear solve U 145
[OGL LOG] init_host_sparsity_pattern : 73 ms
[OGL LOG] matrix not stored update host matrix
[OGL LOG] update_host_mtx : 35 ms
[OGL LOG] matrix is not yet sorted, sorting host matrix
[OGL LOG] sort_host_mtx_sparsity_pattern : 52 ms
[OGL LOG] sort_host_mtx : 29 ms
[OGL LOG] init_preconditioner : 0 ms
[OGL LOG] solve : 212 ms
nonecudaGKOCG:  Solving for p, Initial residual = 0.0439469, Final residual = 9.56964e-05, No Iterations 446
linear solve p 418
time step continuity errors : sum local = 4.09379e-08, global = 3.4426e-21, cumulative = -3.60958e-20
[OGL LOG] init_host_sparsity_pattern : 74 ms
[OGL LOG] matrix not stored update host matrix
[OGL LOG] update_host_mtx : 35 ms
[OGL LOG] matrix is not yet sorted, sorting host matrix
[OGL LOG] sort_host_mtx_sparsity_pattern : 51 ms
[OGL LOG] sort_host_mtx : 29 ms
[OGL LOG] init_preconditioner : 0 ms
[OGL LOG] solve : 100 ms
nonecudaGKOCG:  Solving for p, Initial residual = 0.0372164, Final residual = 9.87589e-05, No Iterations 208
linear solve p 307
time step continuity errors : sum local = 5.03477e-08, global = -2.86489e-20, cumulative = -6.47448e-20
ExecutionTime = 14.87 s  ClockTime = 15 s

End

