/*---------------------------------------------------------------------------*\
  =========                 |
  \\      /  F ield         | OpenFOAM: The Open Source CFD Toolbox
   \\    /   O peration     | Website:  https://openfoam.org
    \\  /    A nd           | Version:  8
     \\/     M anipulation  |
\*---------------------------------------------------------------------------*/
Build  : 8-40a5a48f630f
Exec   : icoFoam
Date   : Jul 28 2021
Time   : 02:46:16
Host   : "uc2n450.localdomain"
PID    : 362731
I/O    : uncollated
Case   : /pfs/data5/home/kit/scc/nq7776/code/OBR/lidDrivenCavity3D/Variation_mesh/25/Variation_matrix_solver/BiCGStab_NoPrecond_OMP/base
nProcs : 1
sigFpe : Enabling floating point exception trapping (FOAM_SIGFPE).
fileModificationChecking : Monitoring run-time modified files using timeStampMaster (fileModificationSkew 10)
allowSystemOperations : Allowing user-supplied system call operations

// * * * * * * * * * * * * * * * * * * * * * * * * * * * * * * * * * * * * * //
Create time

Create mesh for time = 0

Reading transportProperties

Reading field p

Reading field U

Reading/calculating face flux field phi


Starting time loop

Time = 0.001

Courant Number mean: 0 max: 0
nonePBiCGStab:  Solving for Ux, Initial residual = 1, Final residual = 0.00310183, No Iterations 5
nonePBiCGStab:  Solving for Uy, Initial residual = 0, Final residual = 0, No Iterations 0
nonePBiCGStab:  Solving for Uz, Initial residual = 0, Final residual = 0, No Iterations 0
linear solve U 2
[OGL LOG] init_host_sparsity_pattern : 4 ms
[OGL LOG] matrix not stored update host matrix
[OGL LOG] update_host_mtx : 2 ms
[OGL LOG] matrix is not yet sorted, compute sorting idxs
[OGL LOG] compute_sort : 105 ms
[OGL LOG] matrix is not yet sorted, sorting host matrix
[OGL LOG] sort_host_mtx_sparsity_pattern : 3 ms
[OGL LOG] sort_host_mtx : 1 ms
[OGL LOG] init_preconditioner : 0 ms
[OGL LOG] solve : 71 ms
noneompGKOBiCGStab:  Solving for p, Initial residual = 1, Final residual = 7.67433e-05, No Iterations 160
linear solve p 194
time step continuity errors : sum local = 3.16243e-07, global = -1.89193e-20, cumulative = -1.89193e-20
[OGL LOG] init_host_sparsity_pattern : 4 ms
[OGL LOG] matrix not stored update host matrix
[OGL LOG] update_host_mtx : 2 ms
[OGL LOG] matrix is not yet sorted, sorting host matrix
[OGL LOG] sort_host_mtx_sparsity_pattern : 3 ms
[OGL LOG] sort_host_mtx : 1 ms
[OGL LOG] init_preconditioner : 0 ms
[OGL LOG] solve : 67 ms
noneompGKOBiCGStab:  Solving for p, Initial residual = 0.480766, Final residual = 6.58783e-05, No Iterations 152
linear solve p 81
time step continuity errors : sum local = 2.12872e-06, global = 2.16928e-21, cumulative = -1.675e-20
ExecutionTime = 2.57 s  ClockTime = 1 s

Time = 0.002

Courant Number mean: 0.0119723 max: 0.106554
nonePBiCGStab:  Solving for Ux, Initial residual = 0.210896, Final residual = 0.000695171, No Iterations 5
nonePBiCGStab:  Solving for Uy, Initial residual = 0.284496, Final residual = 0.00067322, No Iterations 5
nonePBiCGStab:  Solving for Uz, Initial residual = 0.856529, Final residual = 0.00313843, No Iterations 5
linear solve U 6
[OGL LOG] init_host_sparsity_pattern : 4 ms
[OGL LOG] matrix not stored update host matrix
[OGL LOG] update_host_mtx : 2 ms
[OGL LOG] matrix is not yet sorted, sorting host matrix
[OGL LOG] sort_host_mtx_sparsity_pattern : 3 ms
[OGL LOG] sort_host_mtx : 1 ms
[OGL LOG] init_preconditioner : 0 ms
[OGL LOG] solve : 64 ms
noneompGKOBiCGStab:  Solving for p, Initial residual = 0.288039, Final residual = 9.89406e-05, No Iterations 146
linear solve p 77
time step continuity errors : sum local = 3.17998e-07, global = 1.20597e-20, cumulative = -4.69032e-21
[OGL LOG] init_host_sparsity_pattern : 4 ms
[OGL LOG] matrix not stored update host matrix
[OGL LOG] update_host_mtx : 2 ms
[OGL LOG] matrix is not yet sorted, sorting host matrix
[OGL LOG] sort_host_mtx_sparsity_pattern : 3 ms
[OGL LOG] sort_host_mtx : 1 ms
[OGL LOG] init_preconditioner : 0 ms
[OGL LOG] solve : 65 ms
noneompGKOBiCGStab:  Solving for p, Initial residual = 0.18949, Final residual = 6.82925e-05, No Iterations 148
linear solve p 78
time step continuity errors : sum local = 4.72924e-06, global = -2.42418e-20, cumulative = -2.89321e-20
ExecutionTime = 4.81 s  ClockTime = 1 s

Time = 0.003

Courant Number mean: 0.0188479 max: 0.153566
nonePBiCGStab:  Solving for Ux, Initial residual = 0.089886, Final residual = 0.000292137, No Iterations 5
nonePBiCGStab:  Solving for Uy, Initial residual = 0.125257, Final residual = 0.00020582, No Iterations 5
nonePBiCGStab:  Solving for Uz, Initial residual = 0.300661, Final residual = 0.00137659, No Iterations 5
linear solve U 6
[OGL LOG] init_host_sparsity_pattern : 4 ms
[OGL LOG] matrix not stored update host matrix
[OGL LOG] update_host_mtx : 2 ms
[OGL LOG] matrix is not yet sorted, sorting host matrix
[OGL LOG] sort_host_mtx_sparsity_pattern : 3 ms
[OGL LOG] sort_host_mtx : 1 ms
[OGL LOG] init_preconditioner : 0 ms
[OGL LOG] solve : 62 ms
noneompGKOBiCGStab:  Solving for p, Initial residual = 0.108203, Final residual = 7.97105e-05, No Iterations 141
linear solve p 75
time step continuity errors : sum local = 4.29824e-07, global = -7.64108e-21, cumulative = -3.65732e-20
[OGL LOG] init_host_sparsity_pattern : 4 ms
[OGL LOG] matrix not stored update host matrix
[OGL LOG] update_host_mtx : 2 ms
[OGL LOG] matrix is not yet sorted, sorting host matrix
[OGL LOG] sort_host_mtx_sparsity_pattern : 3 ms
[OGL LOG] sort_host_mtx : 1 ms
[OGL LOG] init_preconditioner : 0 ms
[OGL LOG] solve : 26 ms
noneompGKOBiCGStab:  Solving for p, Initial residual = 0.0713733, Final residual = 9.66745e-05, No Iterations 60
linear solve p 40
time step continuity errors : sum local = 3.69281e-07, global = -4.90932e-22, cumulative = -3.70641e-20
ExecutionTime = 6.42 s  ClockTime = 1 s

Time = 0.004

Courant Number mean: 0.0233161 max: 0.175117
nonePBiCGStab:  Solving for Ux, Initial residual = 0.0523927, Final residual = 8.80552e-05, No Iterations 5
nonePBiCGStab:  Solving for Uy, Initial residual = 0.0740742, Final residual = 0.000112063, No Iterations 5
nonePBiCGStab:  Solving for Uz, Initial residual = 0.145761, Final residual = 0.000692063, No Iterations 5
linear solve U 6
[OGL LOG] init_host_sparsity_pattern : 4 ms
[OGL LOG] matrix not stored update host matrix
[OGL LOG] update_host_mtx : 2 ms
[OGL LOG] matrix is not yet sorted, sorting host matrix
[OGL LOG] sort_host_mtx_sparsity_pattern : 3 ms
[OGL LOG] sort_host_mtx : 1 ms
[OGL LOG] init_preconditioner : 0 ms
[OGL LOG] solve : 58 ms
noneompGKOBiCGStab:  Solving for p, Initial residual = 0.0576591, Final residual = 9.7032e-05, No Iterations 133
linear solve p 71
time step continuity errors : sum local = 2.78192e-07, global = 9.7566e-22, cumulative = -3.60884e-20
[OGL LOG] init_host_sparsity_pattern : 4 ms
[OGL LOG] matrix not stored update host matrix
[OGL LOG] update_host_mtx : 2 ms
[OGL LOG] matrix is not yet sorted, sorting host matrix
[OGL LOG] sort_host_mtx_sparsity_pattern : 3 ms
[OGL LOG] sort_host_mtx : 1 ms
[OGL LOG] init_preconditioner : 0 ms
[OGL LOG] solve : 24 ms
noneompGKOBiCGStab:  Solving for p, Initial residual = 0.0383155, Final residual = 8.12516e-05, No Iterations 55
linear solve p 37
time step continuity errors : sum local = 1.22996e-07, global = -2.24559e-20, cumulative = -5.85444e-20
ExecutionTime = 7.93 s  ClockTime = 1 s

Time = 0.005

Courant Number mean: 0.0264934 max: 0.186505
nonePBiCGStab:  Solving for Ux, Initial residual = 0.0350786, Final residual = 4.04999e-05, No Iterations 5
nonePBiCGStab:  Solving for Uy, Initial residual = 0.0510124, Final residual = 2.9416e-05, No Iterations 5
nonePBiCGStab:  Solving for Uz, Initial residual = 0.0980726, Final residual = 0.000246705, No Iterations 5
linear solve U 6
[OGL LOG] init_host_sparsity_pattern : 4 ms
[OGL LOG] matrix not stored update host matrix
[OGL LOG] update_host_mtx : 2 ms
[OGL LOG] matrix is not yet sorted, sorting host matrix
[OGL LOG] sort_host_mtx_sparsity_pattern : 3 ms
[OGL LOG] sort_host_mtx : 1 ms
[OGL LOG] init_preconditioner : 0 ms
[OGL LOG] solve : 56 ms
noneompGKOBiCGStab:  Solving for p, Initial residual = 0.0355925, Final residual = 9.6903e-05, No Iterations 129
linear solve p 69
time step continuity errors : sum local = 1.45951e-07, global = -1.20718e-20, cumulative = -7.06162e-20
[OGL LOG] init_host_sparsity_pattern : 4 ms
[OGL LOG] matrix not stored update host matrix
[OGL LOG] update_host_mtx : 2 ms
[OGL LOG] matrix is not yet sorted, sorting host matrix
[OGL LOG] sort_host_mtx_sparsity_pattern : 3 ms
[OGL LOG] sort_host_mtx : 1 ms
[OGL LOG] init_preconditioner : 0 ms
[OGL LOG] solve : 23 ms
noneompGKOBiCGStab:  Solving for p, Initial residual = 0.0234719, Final residual = 7.69296e-05, No Iterations 52
linear solve p 36
time step continuity errors : sum local = 1.09769e-07, global = -3.83502e-21, cumulative = -7.44512e-20
ExecutionTime = 9.38 s  ClockTime = 1 s

Time = 0.006

Courant Number mean: 0.0288949 max: 0.193335
nonePBiCGStab:  Solving for Ux, Initial residual = 0.0259854, Final residual = 1.47644e-05, No Iterations 5
nonePBiCGStab:  Solving for Uy, Initial residual = 0.0379601, Final residual = 1.55727e-05, No Iterations 5
nonePBiCGStab:  Solving for Uz, Initial residual = 0.0716353, Final residual = 7.73661e-05, No Iterations 5
linear solve U 6
[OGL LOG] init_host_sparsity_pattern : 4 ms
[OGL LOG] matrix not stored update host matrix
[OGL LOG] update_host_mtx : 2 ms
[OGL LOG] matrix is not yet sorted, sorting host matrix
[OGL LOG] sort_host_mtx_sparsity_pattern : 3 ms
[OGL LOG] sort_host_mtx : 1 ms
[OGL LOG] init_preconditioner : 0 ms
[OGL LOG] solve : 21 ms
noneompGKOBiCGStab:  Solving for p, Initial residual = 0.0244122, Final residual = 8.20303e-05, No Iterations 48
linear solve p 34
time step continuity errors : sum local = 1.66048e-07, global = -2.2386e-20, cumulative = -9.68372e-20
[OGL LOG] init_host_sparsity_pattern : 4 ms
[OGL LOG] matrix not stored update host matrix
[OGL LOG] update_host_mtx : 2 ms
[OGL LOG] matrix is not yet sorted, sorting host matrix
[OGL LOG] sort_host_mtx_sparsity_pattern : 3 ms
[OGL LOG] sort_host_mtx : 1 ms
[OGL LOG] init_preconditioner : 0 ms
[OGL LOG] solve : 21 ms
noneompGKOBiCGStab:  Solving for p, Initial residual = 0.0163508, Final residual = 7.80634e-05, No Iterations 48
linear solve p 34
time step continuity errors : sum local = 2.11717e-07, global = 4.72977e-21, cumulative = -9.21074e-20
ExecutionTime = 10.25 s  ClockTime = 1 s

Time = 0.007

Courant Number mean: 0.0308302 max: 0.197891
nonePBiCGStab:  Solving for Ux, Initial residual = 0.0202845, Final residual = 7.8395e-06, No Iterations 5
nonePBiCGStab:  Solving for Uy, Initial residual = 0.0301425, Final residual = 1.00514e-05, No Iterations 5
nonePBiCGStab:  Solving for Uz, Initial residual = 0.0575156, Final residual = 6.09245e-05, No Iterations 5
linear solve U 6
[OGL LOG] init_host_sparsity_pattern : 4 ms
[OGL LOG] matrix not stored update host matrix
[OGL LOG] update_host_mtx : 2 ms
[OGL LOG] matrix is not yet sorted, sorting host matrix
[OGL LOG] sort_host_mtx_sparsity_pattern : 3 ms
[OGL LOG] sort_host_mtx : 1 ms
[OGL LOG] init_preconditioner : 0 ms
[OGL LOG] solve : 23 ms
noneompGKOBiCGStab:  Solving for p, Initial residual = 0.0190931, Final residual = 9.65165e-05, No Iterations 53
linear solve p 36
time step continuity errors : sum local = 1.03099e-07, global = 8.67309e-21, cumulative = -8.34343e-20
[OGL LOG] init_host_sparsity_pattern : 4 ms
[OGL LOG] matrix not stored update host matrix
[OGL LOG] update_host_mtx : 2 ms
[OGL LOG] matrix is not yet sorted, sorting host matrix
[OGL LOG] sort_host_mtx_sparsity_pattern : 3 ms
[OGL LOG] sort_host_mtx : 1 ms
[OGL LOG] init_preconditioner : 0 ms
[OGL LOG] solve : 22 ms
noneompGKOBiCGStab:  Solving for p, Initial residual = 0.0128975, Final residual = 9.92317e-05, No Iterations 49
linear solve p 35
time step continuity errors : sum local = 1.10898e-07, global = -1.43672e-20, cumulative = -9.78015e-20
ExecutionTime = 11.18 s  ClockTime = 2 s

Time = 0.008

Courant Number mean: 0.0324761 max: 0.201171
nonePBiCGStab:  Solving for Ux, Initial residual = 0.0165531, Final residual = 4.86988e-06, No Iterations 5
nonePBiCGStab:  Solving for Uy, Initial residual = 0.0245882, Final residual = 5.83123e-06, No Iterations 5
nonePBiCGStab:  Solving for Uz, Initial residual = 0.0481697, Final residual = 3.10085e-05, No Iterations 5
linear solve U 6
[OGL LOG] init_host_sparsity_pattern : 4 ms
[OGL LOG] matrix not stored update host matrix
[OGL LOG] update_host_mtx : 2 ms
[OGL LOG] matrix is not yet sorted, sorting host matrix
[OGL LOG] sort_host_mtx_sparsity_pattern : 3 ms
[OGL LOG] sort_host_mtx : 1 ms
[OGL LOG] init_preconditioner : 0 ms
[OGL LOG] solve : 23 ms
noneompGKOBiCGStab:  Solving for p, Initial residual = 0.015133, Final residual = 8.67851e-05, No Iterations 52
linear solve p 36
time step continuity errors : sum local = 8.75082e-08, global = -5.76245e-21, cumulative = -1.03564e-19
[OGL LOG] init_host_sparsity_pattern : 4 ms
[OGL LOG] matrix not stored update host matrix
[OGL LOG] update_host_mtx : 2 ms
[OGL LOG] matrix is not yet sorted, sorting host matrix
[OGL LOG] sort_host_mtx_sparsity_pattern : 3 ms
[OGL LOG] sort_host_mtx : 1 ms
[OGL LOG] init_preconditioner : 0 ms
[OGL LOG] solve : 20 ms
noneompGKOBiCGStab:  Solving for p, Initial residual = 0.0103553, Final residual = 9.591e-05, No Iterations 47
linear solve p 34
time step continuity errors : sum local = 9.0004e-08, global = 1.39132e-21, cumulative = -1.02173e-19
ExecutionTime = 12.07 s  ClockTime = 2 s

Time = 0.009

Courant Number mean: 0.0338802 max: 0.203668
nonePBiCGStab:  Solving for Ux, Initial residual = 0.0137821, Final residual = 3.2856e-06, No Iterations 5
nonePBiCGStab:  Solving for Uy, Initial residual = 0.0207063, Final residual = 4.17525e-06, No Iterations 5
nonePBiCGStab:  Solving for Uz, Initial residual = 0.0409117, Final residual = 2.24461e-05, No Iterations 5
linear solve U 6
[OGL LOG] init_host_sparsity_pattern : 4 ms
[OGL LOG] matrix not stored update host matrix
[OGL LOG] update_host_mtx : 2 ms
[OGL LOG] matrix is not yet sorted, sorting host matrix
[OGL LOG] sort_host_mtx_sparsity_pattern : 3 ms
[OGL LOG] sort_host_mtx : 1 ms
[OGL LOG] init_preconditioner : 0 ms
[OGL LOG] solve : 28 ms
noneompGKOBiCGStab:  Solving for p, Initial residual = 0.012456, Final residual = 9.24135e-05, No Iterations 51
linear solve p 42
time step continuity errors : sum local = 1.04485e-07, global = -1.88672e-20, cumulative = -1.2104e-19
[OGL LOG] init_host_sparsity_pattern : 4 ms
[OGL LOG] matrix not stored update host matrix
[OGL LOG] update_host_mtx : 2 ms
[OGL LOG] matrix is not yet sorted, sorting host matrix
[OGL LOG] sort_host_mtx_sparsity_pattern : 3 ms
[OGL LOG] sort_host_mtx : 1 ms
[OGL LOG] init_preconditioner : 0 ms
[OGL LOG] solve : 8904 ms
noneompGKOBiCGStab:  Solving for p, Initial residual = 0.00858285, Final residual = 8.77734e-05, No Iterations 48
linear solve p 8931
time step continuity errors : sum local = 9.10583e-08, global = 7.75104e-21, cumulative = -1.13289e-19
ExecutionTime = 146.23 s  ClockTime = 11 s

Time = 0.01

Courant Number mean: 0.0350916 max: 0.205642
nonePBiCGStab:  Solving for Ux, Initial residual = 0.01173, Final residual = 2.14143e-06, No Iterations 5
nonePBiCGStab:  Solving for Uy, Initial residual = 0.0177118, Final residual = 2.83652e-06, No Iterations 5
nonePBiCGStab:  Solving for Uz, Initial residual = 0.0355539, Final residual = 1.54834e-05, No Iterations 5
linear solve U 5
[OGL LOG] init_host_sparsity_pattern : 4 ms
[OGL LOG] matrix not stored update host matrix
[OGL LOG] update_host_mtx : 2 ms
[OGL LOG] matrix is not yet sorted, sorting host matrix
[OGL LOG] sort_host_mtx_sparsity_pattern : 3 ms
[OGL LOG] sort_host_mtx : 1 ms
[OGL LOG] init_preconditioner : 0 ms
[OGL LOG] solve : 9265 ms
noneompGKOBiCGStab:  Solving for p, Initial residual = 0.0106395, Final residual = 9.8757e-05, No Iterations 50
linear solve p 9291
time step continuity errors : sum local = 9.19339e-08, global = 4.90766e-21, cumulative = -1.08381e-19
[OGL LOG] init_host_sparsity_pattern : 4 ms
[OGL LOG] matrix not stored update host matrix
[OGL LOG] update_host_mtx : 2 ms
[OGL LOG] matrix is not yet sorted, sorting host matrix
[OGL LOG] sort_host_mtx_sparsity_pattern : 3 ms
[OGL LOG] sort_host_mtx : 1 ms
[OGL LOG] init_preconditioner : 0 ms
[OGL LOG] solve : 8277 ms
noneompGKOBiCGStab:  Solving for p, Initial residual = 0.00737459, Final residual = 9.64859e-05, No Iterations 45
linear solve p 8302
time step continuity errors : sum local = 8.32851e-08, global = 2.28806e-21, cumulative = -1.06093e-19
ExecutionTime = 409.29 s  ClockTime = 28 s

End

