/*---------------------------------------------------------------------------*\
  =========                 |
  \\      /  F ield         | OpenFOAM: The Open Source CFD Toolbox
   \\    /   O peration     | Website:  https://openfoam.org
    \\  /    A nd           | Version:  8
     \\/     M anipulation  |
\*---------------------------------------------------------------------------*/
Build  : 8-40a5a48f630f
Exec   : icoFoam
Date   : Jul 27 2021
Time   : 21:35:13
Host   : "uc2n481.localdomain"
PID    : 91810
I/O    : uncollated
Case   : /pfs/data5/home/kit/scc/nq7776/code/OBR/lidDrivenCavity3D/Variation_mesh/5/Variation_matrix_solver/CG_NoPrecond_CUDA/base
nProcs : 1
sigFpe : Enabling floating point exception trapping (FOAM_SIGFPE).
fileModificationChecking : Monitoring run-time modified files using timeStampMaster (fileModificationSkew 10)
allowSystemOperations : Allowing user-supplied system call operations

// * * * * * * * * * * * * * * * * * * * * * * * * * * * * * * * * * * * * * //
Create time

Create mesh for time = 0

Reading transportProperties

Reading field p

Reading field U

Reading/calculating face flux field phi


Starting time loop

Time = 0.001

Courant Number mean: 0 max: 0
nonePBiCGStab:  Solving for Ux, Initial residual = 1, Final residual = 2.34893e-07, No Iterations 3
nonePBiCGStab:  Solving for Uy, Initial residual = 0, Final residual = 0, No Iterations 0
nonePBiCGStab:  Solving for Uz, Initial residual = 0, Final residual = 0, No Iterations 0
linear solve U 0
[OGL LOG] init_host_sparsity_pattern : 0 ms
[OGL LOG] matrix not stored update host matrix
[OGL LOG] update_host_mtx : 0 ms
[OGL LOG] matrix is not yet sorted, compute sorting idxs
[OGL LOG] compute_sort : 0 ms
[OGL LOG] matrix is not yet sorted, sorting host matrix
[OGL LOG] sort_host_mtx_sparsity_pattern : 0 ms
[OGL LOG] sort_host_mtx : 0 ms
[OGL LOG] init_preconditioner : 0 ms
[OGL LOG] solve : 5 ms
nonecudaGKOCG:  Solving for p, Initial residual = 1, Final residual = 4.84498e-05, No Iterations 31
linear solve p 764
time step continuity errors : sum local = 9.09472e-09, global = 6.02808e-23, cumulative = 6.02808e-23
[OGL LOG] init_host_sparsity_pattern : 0 ms
[OGL LOG] matrix not stored update host matrix
[OGL LOG] update_host_mtx : 0 ms
[OGL LOG] matrix is not yet sorted, sorting host matrix
[OGL LOG] sort_host_mtx_sparsity_pattern : 0 ms
[OGL LOG] sort_host_mtx : 0 ms
[OGL LOG] init_preconditioner : 0 ms
[OGL LOG] solve : 4 ms
nonecudaGKOCG:  Solving for p, Initial residual = 0.054493, Final residual = 9.23434e-05, No Iterations 26
linear solve p 5
time step continuity errors : sum local = 3.41031e-08, global = -4.00996e-21, cumulative = -3.94968e-21
ExecutionTime = 0.8 s  ClockTime = 1 s

Time = 0.002

Courant Number mean: 0.000593121 max: 0.00137349
nonePBiCGStab:  Solving for Ux, Initial residual = 0.290545, Final residual = 5.20344e-07, No Iterations 3
nonePBiCGStab:  Solving for Uy, Initial residual = 0.317546, Final residual = 8.88572e-08, No Iterations 3
nonePBiCGStab:  Solving for Uz, Initial residual = 0.317208, Final residual = 2.06639e-07, No Iterations 3
linear solve U 0
[OGL LOG] init_host_sparsity_pattern : 0 ms
[OGL LOG] matrix not stored update host matrix
[OGL LOG] update_host_mtx : 0 ms
[OGL LOG] matrix is not yet sorted, sorting host matrix
[OGL LOG] sort_host_mtx_sparsity_pattern : 0 ms
[OGL LOG] sort_host_mtx : 0 ms
[OGL LOG] init_preconditioner : 0 ms
[OGL LOG] solve : 2 ms
nonecudaGKOCG:  Solving for p, Initial residual = 0.1104, Final residual = 9.32035e-05, No Iterations 15
linear solve p 3
time step continuity errors : sum local = 5.30664e-08, global = -8.71393e-21, cumulative = -1.26636e-20
[OGL LOG] init_host_sparsity_pattern : 0 ms
[OGL LOG] matrix not stored update host matrix
[OGL LOG] update_host_mtx : 0 ms
[OGL LOG] matrix is not yet sorted, sorting host matrix
[OGL LOG] sort_host_mtx_sparsity_pattern : 0 ms
[OGL LOG] sort_host_mtx : 0 ms
[OGL LOG] init_preconditioner : 0 ms
[OGL LOG] solve : 2 ms
nonecudaGKOCG:  Solving for p, Initial residual = 0.00289507, Final residual = 6.30722e-05, No Iterations 10
linear solve p 2
time step continuity errors : sum local = 3.92709e-08, global = -4.58529e-21, cumulative = -1.72489e-20
ExecutionTime = 0.81 s  ClockTime = 1 s

Time = 0.003

Courant Number mean: 0.00113041 max: 0.00263299
nonePBiCGStab:  Solving for Ux, Initial residual = 0.161947, Final residual = 2.72965e-07, No Iterations 3
nonePBiCGStab:  Solving for Uy, Initial residual = 0.186574, Final residual = 5.50558e-08, No Iterations 3
nonePBiCGStab:  Solving for Uz, Initial residual = 0.229807, Final residual = 1.45063e-07, No Iterations 3
linear solve U 0
[OGL LOG] init_host_sparsity_pattern : 0 ms
[OGL LOG] matrix not stored update host matrix
[OGL LOG] update_host_mtx : 0 ms
[OGL LOG] matrix is not yet sorted, sorting host matrix
[OGL LOG] sort_host_mtx_sparsity_pattern : 0 ms
[OGL LOG] sort_host_mtx : 0 ms
[OGL LOG] init_preconditioner : 0 ms
[OGL LOG] solve : 4 ms
nonecudaGKOCG:  Solving for p, Initial residual = 0.0561612, Final residual = 9.20393e-05, No Iterations 23
linear solve p 4
time step continuity errors : sum local = 4.3313e-08, global = -1.01518e-20, cumulative = -2.74007e-20
[OGL LOG] init_host_sparsity_pattern : 0 ms
[OGL LOG] matrix not stored update host matrix
[OGL LOG] update_host_mtx : 0 ms
[OGL LOG] matrix is not yet sorted, sorting host matrix
[OGL LOG] sort_host_mtx_sparsity_pattern : 0 ms
[OGL LOG] sort_host_mtx : 0 ms
[OGL LOG] init_preconditioner : 0 ms
[OGL LOG] solve : 1 ms
nonecudaGKOCG:  Solving for p, Initial residual = 0.00153162, Final residual = 6.01871e-05, No Iterations 6
linear solve p 1
time step continuity errors : sum local = 3.39412e-08, global = -1.59842e-21, cumulative = -2.89991e-20
ExecutionTime = 0.81 s  ClockTime = 1 s

Time = 0.004

Courant Number mean: 0.0016182 max: 0.00379122
nonePBiCGStab:  Solving for Ux, Initial residual = 0.108854, Final residual = 1.69544e-07, No Iterations 3
nonePBiCGStab:  Solving for Uy, Initial residual = 0.129126, Final residual = 8.08043e-07, No Iterations 2
nonePBiCGStab:  Solving for Uz, Initial residual = 0.175221, Final residual = 1.00512e-07, No Iterations 3
linear solve U 0
[OGL LOG] init_host_sparsity_pattern : 0 ms
[OGL LOG] matrix not stored update host matrix
[OGL LOG] update_host_mtx : 0 ms
[OGL LOG] matrix is not yet sorted, sorting host matrix
[OGL LOG] sort_host_mtx_sparsity_pattern : 0 ms
[OGL LOG] sort_host_mtx : 0 ms
[OGL LOG] init_preconditioner : 0 ms
[OGL LOG] solve : 2 ms
nonecudaGKOCG:  Solving for p, Initial residual = 0.0347343, Final residual = 9.72696e-05, No Iterations 12
linear solve p 2
time step continuity errors : sum local = 6.57383e-08, global = -1.10835e-20, cumulative = -4.00826e-20
[OGL LOG] init_host_sparsity_pattern : 0 ms
[OGL LOG] matrix not stored update host matrix
[OGL LOG] update_host_mtx : 0 ms
[OGL LOG] matrix is not yet sorted, sorting host matrix
[OGL LOG] sort_host_mtx_sparsity_pattern : 0 ms
[OGL LOG] sort_host_mtx : 0 ms
[OGL LOG] init_preconditioner : 0 ms
[OGL LOG] solve : 1 ms
nonecudaGKOCG:  Solving for p, Initial residual = 0.0010268, Final residual = 6.55768e-05, No Iterations 7
linear solve p 2
time step continuity errors : sum local = 5.07302e-08, global = 1.48024e-20, cumulative = -2.52802e-20
ExecutionTime = 0.82 s  ClockTime = 1 s

Time = 0.005

Courant Number mean: 0.00206191 max: 0.00485796
nonePBiCGStab:  Solving for Ux, Initial residual = 0.0800669, Final residual = 1.1381e-07, No Iterations 3
nonePBiCGStab:  Solving for Uy, Initial residual = 0.0966906, Final residual = 5.81597e-07, No Iterations 2
nonePBiCGStab:  Solving for Uz, Initial residual = 0.142945, Final residual = 9.35731e-08, No Iterations 3
linear solve U 0
[OGL LOG] init_host_sparsity_pattern : 0 ms
[OGL LOG] matrix not stored update host matrix
[OGL LOG] update_host_mtx : 0 ms
[OGL LOG] matrix is not yet sorted, sorting host matrix
[OGL LOG] sort_host_mtx_sparsity_pattern : 0 ms
[OGL LOG] sort_host_mtx : 0 ms
[OGL LOG] init_preconditioner : 0 ms
[OGL LOG] solve : 3 ms
nonecudaGKOCG:  Solving for p, Initial residual = 0.0235498, Final residual = 8.74553e-05, No Iterations 23
linear solve p 4
time step continuity errors : sum local = 4.71636e-08, global = -6.21461e-21, cumulative = -3.14948e-20
[OGL LOG] init_host_sparsity_pattern : 0 ms
[OGL LOG] matrix not stored update host matrix
[OGL LOG] update_host_mtx : 0 ms
[OGL LOG] matrix is not yet sorted, sorting host matrix
[OGL LOG] sort_host_mtx_sparsity_pattern : 0 ms
[OGL LOG] sort_host_mtx : 0 ms
[OGL LOG] init_preconditioner : 0 ms
[OGL LOG] solve : 1 ms
nonecudaGKOCG:  Solving for p, Initial residual = 0.000765919, Final residual = 7.82482e-05, No Iterations 6
linear solve p 1
time step continuity errors : sum local = 4.92454e-08, global = -2.14697e-20, cumulative = -5.29645e-20
ExecutionTime = 0.83 s  ClockTime = 1 s

Time = 0.006

Courant Number mean: 0.00246619 max: 0.00584194
nonePBiCGStab:  Solving for Ux, Initial residual = 0.0620368, Final residual = 8.00316e-08, No Iterations 3
nonePBiCGStab:  Solving for Uy, Initial residual = 0.0759909, Final residual = 4.33528e-07, No Iterations 2
nonePBiCGStab:  Solving for Uz, Initial residual = 0.118556, Final residual = 7.20317e-08, No Iterations 3
linear solve U 0
[OGL LOG] init_host_sparsity_pattern : 0 ms
[OGL LOG] matrix not stored update host matrix
[OGL LOG] update_host_mtx : 0 ms
[OGL LOG] matrix is not yet sorted, sorting host matrix
[OGL LOG] sort_host_mtx_sparsity_pattern : 0 ms
[OGL LOG] sort_host_mtx : 0 ms
[OGL LOG] init_preconditioner : 0 ms
[OGL LOG] solve : 2 ms
nonecudaGKOCG:  Solving for p, Initial residual = 0.0172961, Final residual = 8.59928e-05, No Iterations 12
linear solve p 2
time step continuity errors : sum local = 6.98055e-08, global = -1.02624e-20, cumulative = -6.32269e-20
[OGL LOG] init_host_sparsity_pattern : 0 ms
[OGL LOG] matrix not stored update host matrix
[OGL LOG] update_host_mtx : 0 ms
[OGL LOG] matrix is not yet sorted, sorting host matrix
[OGL LOG] sort_host_mtx_sparsity_pattern : 0 ms
[OGL LOG] sort_host_mtx : 0 ms
[OGL LOG] init_preconditioner : 0 ms
[OGL LOG] solve : 1 ms
nonecudaGKOCG:  Solving for p, Initial residual = 0.000631952, Final residual = 7.56551e-05, No Iterations 6
linear solve p 1
time step continuity errors : sum local = 6.32674e-08, global = -1.42308e-20, cumulative = -7.74577e-20
ExecutionTime = 0.83 s  ClockTime = 1 s

Time = 0.007

Courant Number mean: 0.00283514 max: 0.00675067
nonePBiCGStab:  Solving for Ux, Initial residual = 0.0497806, Final residual = 9.32103e-07, No Iterations 2
nonePBiCGStab:  Solving for Uy, Initial residual = 0.0616361, Final residual = 3.31916e-07, No Iterations 2
nonePBiCGStab:  Solving for Uz, Initial residual = 0.101567, Final residual = 8.8264e-07, No Iterations 2
linear solve U 0
[OGL LOG] init_host_sparsity_pattern : 0 ms
[OGL LOG] matrix not stored update host matrix
[OGL LOG] update_host_mtx : 0 ms
[OGL LOG] matrix is not yet sorted, sorting host matrix
[OGL LOG] sort_host_mtx_sparsity_pattern : 0 ms
[OGL LOG] sort_host_mtx : 0 ms
[OGL LOG] init_preconditioner : 0 ms
[OGL LOG] solve : 3 ms
nonecudaGKOCG:  Solving for p, Initial residual = 0.0132892, Final residual = 6.93924e-05, No Iterations 23
linear solve p 4
time step continuity errors : sum local = 3.96623e-08, global = 6.03842e-23, cumulative = -7.73974e-20
[OGL LOG] init_host_sparsity_pattern : 0 ms
[OGL LOG] matrix not stored update host matrix
[OGL LOG] update_host_mtx : 0 ms
[OGL LOG] matrix is not yet sorted, sorting host matrix
[OGL LOG] sort_host_mtx_sparsity_pattern : 0 ms
[OGL LOG] sort_host_mtx : 0 ms
[OGL LOG] init_preconditioner : 0 ms
[OGL LOG] solve : 1 ms
nonecudaGKOCG:  Solving for p, Initial residual = 0.000522581, Final residual = 6.38764e-05, No Iterations 6
linear solve p 1
time step continuity errors : sum local = 4.40736e-08, global = -2.14844e-20, cumulative = -9.88817e-20
ExecutionTime = 0.84 s  ClockTime = 1 s

Time = 0.008

Courant Number mean: 0.00317231 max: 0.00759082
nonePBiCGStab:  Solving for Ux, Initial residual = 0.0409003, Final residual = 7.0781e-07, No Iterations 2
nonePBiCGStab:  Solving for Uy, Initial residual = 0.0512142, Final residual = 2.58843e-07, No Iterations 2
nonePBiCGStab:  Solving for Uz, Initial residual = 0.0874895, Final residual = 7.59377e-07, No Iterations 2
linear solve U 0
[OGL LOG] init_host_sparsity_pattern : 0 ms
[OGL LOG] matrix not stored update host matrix
[OGL LOG] update_host_mtx : 0 ms
[OGL LOG] matrix is not yet sorted, sorting host matrix
[OGL LOG] sort_host_mtx_sparsity_pattern : 0 ms
[OGL LOG] sort_host_mtx : 0 ms
[OGL LOG] init_preconditioner : 0 ms
[OGL LOG] solve : 2 ms
nonecudaGKOCG:  Solving for p, Initial residual = 0.0106286, Final residual = 7.60714e-05, No Iterations 12
linear solve p 2
time step continuity errors : sum local = 6.66078e-08, global = 1.55799e-21, cumulative = -9.73237e-20
[OGL LOG] init_host_sparsity_pattern : 0 ms
[OGL LOG] matrix not stored update host matrix
[OGL LOG] update_host_mtx : 0 ms
[OGL LOG] matrix is not yet sorted, sorting host matrix
[OGL LOG] sort_host_mtx_sparsity_pattern : 0 ms
[OGL LOG] sort_host_mtx : 0 ms
[OGL LOG] init_preconditioner : 0 ms
[OGL LOG] solve : 1 ms
nonecudaGKOCG:  Solving for p, Initial residual = 0.000468472, Final residual = 6.61893e-05, No Iterations 6
linear solve p 1
time step continuity errors : sum local = 5.90839e-08, global = 1.36022e-20, cumulative = -8.37216e-20
ExecutionTime = 0.84 s  ClockTime = 1 s

Time = 0.009

Courant Number mean: 0.00348091 max: 0.00836826
nonePBiCGStab:  Solving for Ux, Initial residual = 0.0342429, Final residual = 5.43689e-07, No Iterations 2
nonePBiCGStab:  Solving for Uy, Initial residual = 0.0432833, Final residual = 2.05133e-07, No Iterations 2
nonePBiCGStab:  Solving for Uz, Initial residual = 0.0773214, Final residual = 6.40799e-07, No Iterations 2
linear solve U 0
[OGL LOG] init_host_sparsity_pattern : 0 ms
[OGL LOG] matrix not stored update host matrix
[OGL LOG] update_host_mtx : 0 ms
[OGL LOG] matrix is not yet sorted, sorting host matrix
[OGL LOG] sort_host_mtx_sparsity_pattern : 0 ms
[OGL LOG] sort_host_mtx : 0 ms
[OGL LOG] init_preconditioner : 0 ms
[OGL LOG] solve : 3 ms
nonecudaGKOCG:  Solving for p, Initial residual = 0.00873318, Final residual = 6.72104e-05, No Iterations 23
linear solve p 4
time step continuity errors : sum local = 4.05837e-08, global = 2.89662e-20, cumulative = -5.47554e-20
[OGL LOG] init_host_sparsity_pattern : 0 ms
[OGL LOG] matrix not stored update host matrix
[OGL LOG] update_host_mtx : 0 ms
[OGL LOG] matrix is not yet sorted, sorting host matrix
[OGL LOG] sort_host_mtx_sparsity_pattern : 0 ms
[OGL LOG] sort_host_mtx : 0 ms
[OGL LOG] init_preconditioner : 0 ms
[OGL LOG] solve : 1 ms
nonecudaGKOCG:  Solving for p, Initial residual = 0.000427198, Final residual = 9.25397e-05, No Iterations 5
linear solve p 1
time step continuity errors : sum local = 6.13322e-08, global = -3.45431e-21, cumulative = -5.82097e-20
ExecutionTime = 0.85 s  ClockTime = 1 s

Time = 0.01

Courant Number mean: 0.0037637 max: 0.00908823
nonePBiCGStab:  Solving for Ux, Initial residual = 0.0290452, Final residual = 4.20974e-07, No Iterations 2
nonePBiCGStab:  Solving for Uy, Initial residual = 0.0371272, Final residual = 1.6434e-07, No Iterations 2
nonePBiCGStab:  Solving for Uz, Initial residual = 0.0683994, Final residual = 5.52677e-07, No Iterations 2
linear solve U 0
[OGL LOG] init_host_sparsity_pattern : 0 ms
[OGL LOG] matrix not stored update host matrix
[OGL LOG] update_host_mtx : 0 ms
[OGL LOG] matrix is not yet sorted, sorting host matrix
[OGL LOG] sort_host_mtx_sparsity_pattern : 0 ms
[OGL LOG] sort_host_mtx : 0 ms
[OGL LOG] init_preconditioner : 0 ms
[OGL LOG] solve : 2 ms
nonecudaGKOCG:  Solving for p, Initial residual = 0.0073533, Final residual = 6.6922e-05, No Iterations 12
linear solve p 2
time step continuity errors : sum local = 6.18394e-08, global = -1.39008e-20, cumulative = -7.21104e-20
[OGL LOG] init_host_sparsity_pattern : 0 ms
[OGL LOG] matrix not stored update host matrix
[OGL LOG] update_host_mtx : 0 ms
[OGL LOG] matrix is not yet sorted, sorting host matrix
[OGL LOG] sort_host_mtx_sparsity_pattern : 0 ms
[OGL LOG] sort_host_mtx : 0 ms
[OGL LOG] init_preconditioner : 0 ms
[OGL LOG] solve : 1 ms
nonecudaGKOCG:  Solving for p, Initial residual = 0.000384592, Final residual = 8.29967e-05, No Iterations 5
linear solve p 1
time step continuity errors : sum local = 7.02364e-08, global = -2.59594e-20, cumulative = -9.80698e-20
ExecutionTime = 0.85 s  ClockTime = 1 s

End

