/*---------------------------------------------------------------------------*\
  =========                 |
  \\      /  F ield         | OpenFOAM: The Open Source CFD Toolbox
   \\    /   O peration     | Website:  https://openfoam.org
    \\  /    A nd           | Version:  8
     \\/     M anipulation  |
\*---------------------------------------------------------------------------*/
Build  : 8-40a5a48f630f
Exec   : icoFoam
Date   : Jul 27 2021
Time   : 21:53:33
Host   : "uc2n481.localdomain"
PID    : 108769
I/O    : uncollated
Case   : /pfs/data5/home/kit/scc/nq7776/code/OBR/lidDrivenCavity3D/Variation_mesh/75/Variation_matrix_solver/BiCGStab_NoPrecond_CUDA/base
nProcs : 1
sigFpe : Enabling floating point exception trapping (FOAM_SIGFPE).
fileModificationChecking : Monitoring run-time modified files using timeStampMaster (fileModificationSkew 10)
allowSystemOperations : Allowing user-supplied system call operations

// * * * * * * * * * * * * * * * * * * * * * * * * * * * * * * * * * * * * * //
Create time

Create mesh for time = 0

Reading transportProperties

Reading field p

Reading field U

Reading/calculating face flux field phi


Starting time loop

Time = 0.001

Courant Number mean: 0 max: 0
nonePBiCGStab:  Solving for Ux, Initial residual = 1, Final residual = 0.0634334, No Iterations 5
nonePBiCGStab:  Solving for Uy, Initial residual = 0, Final residual = 0, No Iterations 0
nonePBiCGStab:  Solving for Uz, Initial residual = 0, Final residual = 0, No Iterations 0
linear solve U 114
[OGL LOG] init_host_sparsity_pattern : 122 ms
[OGL LOG] matrix not stored update host matrix
[OGL LOG] update_host_mtx : 63 ms
[OGL LOG] matrix is not yet sorted, compute sorting idxs
[OGL LOG] compute_sort : 3676 ms
[OGL LOG] matrix is not yet sorted, sorting host matrix
[OGL LOG] sort_host_mtx_sparsity_pattern : 85 ms
[OGL LOG] sort_host_mtx : 48 ms
[OGL LOG] init_preconditioner : 0 ms
[OGL LOG] solve : 575 ms
nonecudaGKOBiCGStab:  Solving for p, Initial residual = 1, Final residual = 6.61059e-05, No Iterations 461
linear solve p 5367
time step continuity errors : sum local = 5.94987e-08, global = -1.06379e-20, cumulative = -1.06379e-20
[OGL LOG] init_host_sparsity_pattern : 114 ms
[OGL LOG] matrix not stored update host matrix
[OGL LOG] update_host_mtx : 64 ms
[OGL LOG] matrix is not yet sorted, sorting host matrix
[OGL LOG] sort_host_mtx_sparsity_pattern : 92 ms
[OGL LOG] sort_host_mtx : 43 ms
[OGL LOG] init_preconditioner : 0 ms
[OGL LOG] solve : 592 ms
nonecudaGKOBiCGStab:  Solving for p, Initial residual = 0.688073, Final residual = 6.90682e-05, No Iterations 474
linear solve p 935
time step continuity errors : sum local = 0.000353298, global = 2.18229e-19, cumulative = 2.07591e-19
ExecutionTime = 8.2 s  ClockTime = 8 s

Time = 0.002

Courant Number mean: 0.0362524 max: 0.566668
nonePBiCGStab:  Solving for Ux, Initial residual = 0.146564, Final residual = 0.0273602, No Iterations 5
nonePBiCGStab:  Solving for Uy, Initial residual = 0.391325, Final residual = 0.0679496, No Iterations 5
nonePBiCGStab:  Solving for Uz, Initial residual = 0.714943, Final residual = 0.171903, No Iterations 5
linear solve U 224
[OGL LOG] init_host_sparsity_pattern : 112 ms
[OGL LOG] matrix not stored update host matrix
[OGL LOG] update_host_mtx : 57 ms
[OGL LOG] matrix is not yet sorted, sorting host matrix
[OGL LOG] sort_host_mtx_sparsity_pattern : 79 ms
[OGL LOG] sort_host_mtx : 45 ms
[OGL LOG] init_preconditioner : 0 ms
[OGL LOG] solve : 526 ms
nonecudaGKOBiCGStab:  Solving for p, Initial residual = 0.909788, Final residual = 8.99987e-05, No Iterations 421
linear solve p 845
time step continuity errors : sum local = 0.0012455, global = 2.54036e-18, cumulative = 2.74796e-18
[OGL LOG] init_host_sparsity_pattern : 113 ms
[OGL LOG] matrix not stored update host matrix
[OGL LOG] update_host_mtx : 55 ms
[OGL LOG] matrix is not yet sorted, sorting host matrix
[OGL LOG] sort_host_mtx_sparsity_pattern : 79 ms
[OGL LOG] sort_host_mtx : 43 ms
[OGL LOG] init_preconditioner : 0 ms
[OGL LOG] solve : 236 ms
nonecudaGKOBiCGStab:  Solving for p, Initial residual = 0.716107, Final residual = 9.98406e-05, No Iterations 187
linear solve p 552
time step continuity errors : sum local = 4.42376e-07, global = -3.93606e-21, cumulative = 2.74402e-18
ExecutionTime = 10.07 s  ClockTime = 10 s

Time = 0.003

Courant Number mean: 0.0565307 max: 0.672649
nonePBiCGStab:  Solving for Ux, Initial residual = 0.056332, Final residual = 0.00874367, No Iterations 5
nonePBiCGStab:  Solving for Uy, Initial residual = 0.15807, Final residual = 0.0338095, No Iterations 5
nonePBiCGStab:  Solving for Uz, Initial residual = 0.82809, Final residual = 0.178781, No Iterations 5
linear solve U 232
[OGL LOG] init_host_sparsity_pattern : 112 ms
[OGL LOG] matrix not stored update host matrix
[OGL LOG] update_host_mtx : 55 ms
[OGL LOG] matrix is not yet sorted, sorting host matrix
[OGL LOG] sort_host_mtx_sparsity_pattern : 79 ms
[OGL LOG] sort_host_mtx : 43 ms
[OGL LOG] init_preconditioner : 0 ms
[OGL LOG] solve : 529 ms
nonecudaGKOBiCGStab:  Solving for p, Initial residual = 0.963507, Final residual = 7.42136e-05, No Iterations 423
linear solve p 845
time step continuity errors : sum local = 0.00150264, global = -1.66163e-18, cumulative = 1.08239e-18
[OGL LOG] init_host_sparsity_pattern : 115 ms
[OGL LOG] matrix not stored update host matrix
[OGL LOG] update_host_mtx : 58 ms
[OGL LOG] matrix is not yet sorted, sorting host matrix
[OGL LOG] sort_host_mtx_sparsity_pattern : 86 ms
[OGL LOG] sort_host_mtx : 47 ms
[OGL LOG] init_preconditioner : 0 ms
[OGL LOG] solve : 504 ms
nonecudaGKOBiCGStab:  Solving for p, Initial residual = 0.787054, Final residual = 9.99636e-05, No Iterations 403
linear solve p 838
time step continuity errors : sum local = 0.000355288, global = 8.81039e-19, cumulative = 1.96343e-18
ExecutionTime = 12.23 s  ClockTime = 12 s

Time = 0.004

Courant Number mean: 0.0689326 max: 0.731096
nonePBiCGStab:  Solving for Ux, Initial residual = 0.0425421, Final residual = 0.00687592, No Iterations 5
nonePBiCGStab:  Solving for Uy, Initial residual = 0.131704, Final residual = 0.0305683, No Iterations 5
nonePBiCGStab:  Solving for Uz, Initial residual = 0.870733, Final residual = 0.156269, No Iterations 5
linear solve U 226
[OGL LOG] init_host_sparsity_pattern : 113 ms
[OGL LOG] matrix not stored update host matrix
[OGL LOG] update_host_mtx : 55 ms
[OGL LOG] matrix is not yet sorted, sorting host matrix
[OGL LOG] sort_host_mtx_sparsity_pattern : 79 ms
[OGL LOG] sort_host_mtx : 43 ms
[OGL LOG] init_preconditioner : 0 ms
[OGL LOG] solve : 513 ms
nonecudaGKOBiCGStab:  Solving for p, Initial residual = 0.968557, Final residual = 8.3484e-05, No Iterations 407
linear solve p 830
time step continuity errors : sum local = 0.0115024, global = 3.58607e-18, cumulative = 5.5495e-18
[OGL LOG] init_host_sparsity_pattern : 112 ms
[OGL LOG] matrix not stored update host matrix
[OGL LOG] update_host_mtx : 54 ms
[OGL LOG] matrix is not yet sorted, sorting host matrix
[OGL LOG] sort_host_mtx_sparsity_pattern : 82 ms
[OGL LOG] sort_host_mtx : 44 ms
[OGL LOG] init_preconditioner : 0 ms
[OGL LOG] solve : 213 ms
nonecudaGKOBiCGStab:  Solving for p, Initial residual = 0.731088, Final residual = 9.96358e-05, No Iterations 169
linear solve p 531
time step continuity errors : sum local = 4.67184e-06, global = 8.58628e-20, cumulative = 5.63537e-18
ExecutionTime = 14.08 s  ClockTime = 14 s

Time = 0.005

Courant Number mean: 0.0789581 max: 0.791966
nonePBiCGStab:  Solving for Ux, Initial residual = 0.0347895, Final residual = 0.00779808, No Iterations 5
nonePBiCGStab:  Solving for Uy, Initial residual = 0.151074, Final residual = 0.0488247, No Iterations 5
nonePBiCGStab:  Solving for Uz, Initial residual = 0.855281, Final residual = 0.188697, No Iterations 5
linear solve U 226
[OGL LOG] init_host_sparsity_pattern : 112 ms
[OGL LOG] matrix not stored update host matrix
[OGL LOG] update_host_mtx : 54 ms
[OGL LOG] matrix is not yet sorted, sorting host matrix
[OGL LOG] sort_host_mtx_sparsity_pattern : 79 ms
[OGL LOG] sort_host_mtx : 43 ms
[OGL LOG] init_preconditioner : 0 ms
[OGL LOG] solve : 512 ms
nonecudaGKOBiCGStab:  Solving for p, Initial residual = 0.989215, Final residual = 9.57778e-05, No Iterations 398
linear solve p 827
time step continuity errors : sum local = 0.00896326, global = 2.6679e-17, cumulative = 3.23144e-17
[OGL LOG] init_host_sparsity_pattern : 113 ms
[OGL LOG] matrix not stored update host matrix
[OGL LOG] update_host_mtx : 54 ms
[OGL LOG] matrix is not yet sorted, sorting host matrix
[OGL LOG] sort_host_mtx_sparsity_pattern : 82 ms
[OGL LOG] sort_host_mtx : 43 ms
[OGL LOG] init_preconditioner : 0 ms
[OGL LOG] solve : 506 ms
nonecudaGKOBiCGStab:  Solving for p, Initial residual = 0.817307, Final residual = 9.98765e-05, No Iterations 396
linear solve p 824
time step continuity errors : sum local = 0.00167005, global = 2.54888e-18, cumulative = 3.48632e-17
ExecutionTime = 16.2 s  ClockTime = 16 s

Time = 0.006

Courant Number mean: 0.101723 max: 1.22219
nonePBiCGStab:  Solving for Ux, Initial residual = 0.103417, Final residual = 0.0256778, No Iterations 5
nonePBiCGStab:  Solving for Uy, Initial residual = 0.356109, Final residual = 0.0950893, No Iterations 5
nonePBiCGStab:  Solving for Uz, Initial residual = 0.867623, Final residual = 0.1467, No Iterations 5
linear solve U 225
[OGL LOG] init_host_sparsity_pattern : 113 ms
[OGL LOG] matrix not stored update host matrix
[OGL LOG] update_host_mtx : 55 ms
[OGL LOG] matrix is not yet sorted, sorting host matrix
[OGL LOG] sort_host_mtx_sparsity_pattern : 83 ms
[OGL LOG] sort_host_mtx : 43 ms
[OGL LOG] init_preconditioner : 0 ms
[OGL LOG] solve : 573 ms
nonecudaGKOBiCGStab:  Solving for p, Initial residual = 0.984907, Final residual = 9.50047e-05, No Iterations 449
linear solve p 896
time step continuity errors : sum local = 1.43233e-05, global = -1.34345e-19, cumulative = 3.47289e-17
[OGL LOG] init_host_sparsity_pattern : 112 ms
[OGL LOG] matrix not stored update host matrix
[OGL LOG] update_host_mtx : 55 ms
[OGL LOG] matrix is not yet sorted, sorting host matrix
[OGL LOG] sort_host_mtx_sparsity_pattern : 80 ms
[OGL LOG] sort_host_mtx : 44 ms
[OGL LOG] init_preconditioner : 0 ms
[OGL LOG] solve : 596 ms
nonecudaGKOBiCGStab:  Solving for p, Initial residual = 0.849335, Final residual = 8.04628e-05, No Iterations 467
linear solve p 913
time step continuity errors : sum local = 0.0605885, global = 2.81319e-17, cumulative = 6.28608e-17
ExecutionTime = 18.48 s  ClockTime = 18 s

Time = 0.007

Courant Number mean: 0.134096 max: 3.37904
nonePBiCGStab:  Solving for Ux, Initial residual = 0.142374, Final residual = 0.0367688, No Iterations 5
nonePBiCGStab:  Solving for Uy, Initial residual = 0.430078, Final residual = 0.142287, No Iterations 5
nonePBiCGStab:  Solving for Uz, Initial residual = 0.723277, Final residual = 0.166801, No Iterations 5
linear solve U 224
[OGL LOG] init_host_sparsity_pattern : 115 ms
[OGL LOG] matrix not stored update host matrix
[OGL LOG] update_host_mtx : 59 ms
[OGL LOG] matrix is not yet sorted, sorting host matrix
[OGL LOG] sort_host_mtx_sparsity_pattern : 84 ms
[OGL LOG] sort_host_mtx : 43 ms
[OGL LOG] init_preconditioner : 0 ms
[OGL LOG] solve : 519 ms
nonecudaGKOBiCGStab:  Solving for p, Initial residual = 0.993103, Final residual = 9.78976e-05, No Iterations 405
linear solve p 845
time step continuity errors : sum local = 0.0290394, global = -2.65661e-17, cumulative = 3.62946e-17
[OGL LOG] init_host_sparsity_pattern : 112 ms
[OGL LOG] matrix not stored update host matrix
[OGL LOG] update_host_mtx : 54 ms
[OGL LOG] matrix is not yet sorted, sorting host matrix
[OGL LOG] sort_host_mtx_sparsity_pattern : 79 ms
[OGL LOG] sort_host_mtx : 43 ms
[OGL LOG] init_preconditioner : 0 ms
[OGL LOG] solve : 469 ms
nonecudaGKOBiCGStab:  Solving for p, Initial residual = 0.792204, Final residual = 9.99906e-05, No Iterations 367
linear solve p 783
time step continuity errors : sum local = 7.46457e-05, global = 2.05563e-19, cumulative = 3.65002e-17
ExecutionTime = 20.58 s  ClockTime = 20 s

Time = 0.008

Courant Number mean: 0.220903 max: 7.86643
nonePBiCGStab:  Solving for Ux, Initial residual = 0.394214, Final residual = 0.0946215, No Iterations 5
nonePBiCGStab:  Solving for Uy, Initial residual = 0.733947, Final residual = 0.183985, No Iterations 5
nonePBiCGStab:  Solving for Uz, Initial residual = 0.808321, Final residual = 0.123508, No Iterations 5
linear solve U 226
[OGL LOG] init_host_sparsity_pattern : 112 ms
[OGL LOG] matrix not stored update host matrix
[OGL LOG] update_host_mtx : 55 ms
[OGL LOG] matrix is not yet sorted, sorting host matrix
[OGL LOG] sort_host_mtx_sparsity_pattern : 82 ms
[OGL LOG] sort_host_mtx : 43 ms
[OGL LOG] init_preconditioner : 0 ms
[OGL LOG] solve : 558 ms
nonecudaGKOBiCGStab:  Solving for p, Initial residual = 0.985752, Final residual = 2.60593e-05, No Iterations 434
linear solve p 876
time step continuity errors : sum local = 0.327574, global = -2.29597e-16, cumulative = -1.93097e-16
[OGL LOG] init_host_sparsity_pattern : 112 ms
[OGL LOG] matrix not stored update host matrix
[OGL LOG] update_host_mtx : 55 ms
[OGL LOG] matrix is not yet sorted, sorting host matrix
[OGL LOG] sort_host_mtx_sparsity_pattern : 79 ms
[OGL LOG] sort_host_mtx : 43 ms
[OGL LOG] init_preconditioner : 0 ms
[OGL LOG] solve : 485 ms
nonecudaGKOBiCGStab:  Solving for p, Initial residual = 0.732868, Final residual = 9.81172e-05, No Iterations 377
linear solve p 800
time step continuity errors : sum local = 0.0454734, global = 1.12712e-16, cumulative = -8.03846e-17
ExecutionTime = 22.74 s  ClockTime = 23 s

Time = 0.009

Courant Number mean: 0.181059 max: 4.18914
nonePBiCGStab:  Solving for Ux, Initial residual = 0.321587, Final residual = 0.0826578, No Iterations 5
nonePBiCGStab:  Solving for Uy, Initial residual = 0.618465, Final residual = 0.20635, No Iterations 5
nonePBiCGStab:  Solving for Uz, Initial residual = 0.894563, Final residual = 0.200824, No Iterations 5
linear solve U 226
[OGL LOG] init_host_sparsity_pattern : 112 ms
[OGL LOG] matrix not stored update host matrix
[OGL LOG] update_host_mtx : 55 ms
[OGL LOG] matrix is not yet sorted, sorting host matrix
[OGL LOG] sort_host_mtx_sparsity_pattern : 80 ms
[OGL LOG] sort_host_mtx : 43 ms
[OGL LOG] init_preconditioner : 0 ms
[OGL LOG] solve : 491 ms
nonecudaGKOBiCGStab:  Solving for p, Initial residual = 0.991269, Final residual = 9.74115e-05, No Iterations 383
linear solve p 807
time step continuity errors : sum local = 0.218592, global = -6.79689e-16, cumulative = -7.60074e-16
[OGL LOG] init_host_sparsity_pattern : 112 ms
[OGL LOG] matrix not stored update host matrix
[OGL LOG] update_host_mtx : 54 ms
[OGL LOG] matrix is not yet sorted, sorting host matrix
[OGL LOG] sort_host_mtx_sparsity_pattern : 79 ms
[OGL LOG] sort_host_mtx : 43 ms
[OGL LOG] init_preconditioner : 0 ms
[OGL LOG] solve : 187 ms
nonecudaGKOBiCGStab:  Solving for p, Initial residual = 0.792365, Final residual = 9.81914e-05, No Iterations 144
linear solve p 502
time step continuity errors : sum local = 0.000308861, global = 7.78609e-20, cumulative = -7.59996e-16
ExecutionTime = 24.52 s  ClockTime = 24 s

Time = 0.01

Courant Number mean: 0.917431 max: 25.6483
nonePBiCGStab:  Solving for Ux, Initial residual = 0.725536, Final residual = 0.172861, No Iterations 5
nonePBiCGStab:  Solving for Uy, Initial residual = 0.857411, Final residual = 0.22246, No Iterations 5
nonePBiCGStab:  Solving for Uz, Initial residual = 0.830401, Final residual = 0.156407, No Iterations 5
linear solve U 230
[OGL LOG] init_host_sparsity_pattern : 112 ms
[OGL LOG] matrix not stored update host matrix
[OGL LOG] update_host_mtx : 55 ms
[OGL LOG] matrix is not yet sorted, sorting host matrix
[OGL LOG] sort_host_mtx_sparsity_pattern : 79 ms
[OGL LOG] sort_host_mtx : 43 ms
[OGL LOG] init_preconditioner : 0 ms
[OGL LOG] solve : 542 ms
nonecudaGKOBiCGStab:  Solving for p, Initial residual = 0.980706, Final residual = 9.49746e-05, No Iterations 423
linear solve p 858
time step continuity errors : sum local = 0.000263281, global = -6.78401e-19, cumulative = -7.60674e-16
[OGL LOG] init_host_sparsity_pattern : 112 ms
[OGL LOG] matrix not stored update host matrix
[OGL LOG] update_host_mtx : 55 ms
[OGL LOG] matrix is not yet sorted, sorting host matrix
[OGL LOG] sort_host_mtx_sparsity_pattern : 79 ms
[OGL LOG] sort_host_mtx : 43 ms
[OGL LOG] init_preconditioner : 0 ms
[OGL LOG] solve : 515 ms
nonecudaGKOBiCGStab:  Solving for p, Initial residual = 0.849762, Final residual = 9.24599e-05, No Iterations 403
linear solve p 831
time step continuity errors : sum local = 0.394149, global = 5.08853e-17, cumulative = -7.09789e-16
ExecutionTime = 26.68 s  ClockTime = 27 s

End

