/*---------------------------------------------------------------------------*\
  =========                 |
  \\      /  F ield         | OpenFOAM: The Open Source CFD Toolbox
   \\    /   O peration     | Website:  https://openfoam.org
    \\  /    A nd           | Version:  8
     \\/     M anipulation  |
\*---------------------------------------------------------------------------*/
Build  : 8-40a5a48f630f
Exec   : icoFoam
Date   : Jul 27 2021
Time   : 22:06:29
Host   : "uc2n481.localdomain"
PID    : 121118
I/O    : uncollated
Case   : /pfs/data5/home/kit/scc/nq7776/code/OBR/lidDrivenCavity3D/Variation_mesh/65/Variation_matrix_solver/IR_NoPrecond_CUDA/base
nProcs : 1
sigFpe : Enabling floating point exception trapping (FOAM_SIGFPE).
fileModificationChecking : Monitoring run-time modified files using timeStampMaster (fileModificationSkew 10)
allowSystemOperations : Allowing user-supplied system call operations

// * * * * * * * * * * * * * * * * * * * * * * * * * * * * * * * * * * * * * //
Create time

Create mesh for time = 0

Reading transportProperties

Reading field p

Reading field U

Reading/calculating face flux field phi


Starting time loop

Time = 0.001

Courant Number mean: 0 max: 0
nonePBiCGStab:  Solving for Ux, Initial residual = 1, Final residual = 0.053017, No Iterations 5
nonePBiCGStab:  Solving for Uy, Initial residual = 0, Final residual = 0, No Iterations 0
nonePBiCGStab:  Solving for Uz, Initial residual = 0, Final residual = 0, No Iterations 0
linear solve U 74
[OGL LOG] init_host_sparsity_pattern : 75 ms
[OGL LOG] matrix not stored update host matrix
[OGL LOG] update_host_mtx : 41 ms
[OGL LOG] matrix is not yet sorted, compute sorting idxs
[OGL LOG] compute_sort : 2424 ms
[OGL LOG] matrix is not yet sorted, sorting host matrix
[OGL LOG] sort_host_mtx_sparsity_pattern : 55 ms
[OGL LOG] sort_host_mtx : 28 ms
[OGL LOG] init_preconditioner : 0 ms
[OGL LOG] solve : 123 ms
nonecudaGKOIR:  Solving for p, Initial residual = 1, Final residual = 1.30094e-05, No Iterations 3
linear solve p 3550
time step continuity errors : sum local = 6.29943e-09, global = -2.68764e-21, cumulative = -2.68764e-21
[OGL LOG] init_host_sparsity_pattern : 74 ms
[OGL LOG] matrix not stored update host matrix
[OGL LOG] update_host_mtx : 40 ms
[OGL LOG] matrix is not yet sorted, sorting host matrix
[OGL LOG] sort_host_mtx_sparsity_pattern : 57 ms
[OGL LOG] sort_host_mtx : 28 ms
[OGL LOG] init_preconditioner : 0 ms
[OGL LOG] solve : 125 ms
nonecudaGKOIR:  Solving for p, Initial residual = 0.674219, Final residual = 6.56868e-06, No Iterations 3
linear solve p 344
time step continuity errors : sum local = 4.5159e-09, global = 4.9602e-21, cumulative = 2.27257e-21
ExecutionTime = 5.16 s  ClockTime = 5 s

Time = 0.002

Courant Number mean: 0.0326827 max: 0.468252
nonePBiCGStab:  Solving for Ux, Initial residual = 0.151756, Final residual = 0.0210783, No Iterations 5
nonePBiCGStab:  Solving for Uy, Initial residual = 0.36489, Final residual = 0.0451026, No Iterations 5
nonePBiCGStab:  Solving for Uz, Initial residual = 0.979962, Final residual = 0.154126, No Iterations 5
linear solve U 147
[OGL LOG] init_host_sparsity_pattern : 75 ms
[OGL LOG] matrix not stored update host matrix
[OGL LOG] update_host_mtx : 39 ms
[OGL LOG] matrix is not yet sorted, sorting host matrix
[OGL LOG] sort_host_mtx_sparsity_pattern : 56 ms
[OGL LOG] sort_host_mtx : 28 ms
[OGL LOG] init_preconditioner : 0 ms
[OGL LOG] solve : 125 ms
nonecudaGKOIR:  Solving for p, Initial residual = 0.656707, Final residual = 3.17605e-06, No Iterations 3
linear solve p 340
time step continuity errors : sum local = 2.72659e-09, global = -1.32159e-20, cumulative = -1.09433e-20
[OGL LOG] init_host_sparsity_pattern : 73 ms
[OGL LOG] matrix not stored update host matrix
[OGL LOG] update_host_mtx : 35 ms
[OGL LOG] matrix is not yet sorted, sorting host matrix
[OGL LOG] sort_host_mtx_sparsity_pattern : 51 ms
[OGL LOG] sort_host_mtx : 28 ms
[OGL LOG] init_preconditioner : 0 ms
[OGL LOG] solve : 124 ms
nonecudaGKOIR:  Solving for p, Initial residual = 0.574981, Final residual = 2.48969e-06, No Iterations 3
linear solve p 329
time step continuity errors : sum local = 2.19146e-09, global = 1.7925e-22, cumulative = -1.07641e-20
ExecutionTime = 6.15 s  ClockTime = 6 s

Time = 0.003

Courant Number mean: 0.0502554 max: 0.556612
nonePBiCGStab:  Solving for Ux, Initial residual = 0.0551702, Final residual = 0.0059258, No Iterations 5
nonePBiCGStab:  Solving for Uy, Initial residual = 0.124789, Final residual = 0.0163168, No Iterations 5
nonePBiCGStab:  Solving for Uz, Initial residual = 0.34234, Final residual = 0.0518142, No Iterations 5
linear solve U 147
[OGL LOG] init_host_sparsity_pattern : 73 ms
[OGL LOG] matrix not stored update host matrix
[OGL LOG] update_host_mtx : 35 ms
[OGL LOG] matrix is not yet sorted, sorting host matrix
[OGL LOG] sort_host_mtx_sparsity_pattern : 51 ms
[OGL LOG] sort_host_mtx : 28 ms
[OGL LOG] init_preconditioner : 0 ms
[OGL LOG] solve : 118 ms
nonecudaGKOIR:  Solving for p, Initial residual = 0.556831, Final residual = 2.11643e-06, No Iterations 3
linear solve p 324
time step continuity errors : sum local = 1.21926e-09, global = 1.3632e-20, cumulative = 2.86788e-21
[OGL LOG] init_host_sparsity_pattern : 73 ms
[OGL LOG] matrix not stored update host matrix
[OGL LOG] update_host_mtx : 35 ms
[OGL LOG] matrix is not yet sorted, sorting host matrix
[OGL LOG] sort_host_mtx_sparsity_pattern : 51 ms
[OGL LOG] sort_host_mtx : 28 ms
[OGL LOG] init_preconditioner : 0 ms
[OGL LOG] solve : 121 ms
nonecudaGKOIR:  Solving for p, Initial residual = 0.49136, Final residual = 1.85521e-06, No Iterations 3
linear solve p 326
time step continuity errors : sum local = 1.03779e-09, global = 1.79609e-20, cumulative = 2.08288e-20
ExecutionTime = 7.11 s  ClockTime = 7 s

Time = 0.004

Courant Number mean: 0.0602926 max: 0.575006
nonePBiCGStab:  Solving for Ux, Initial residual = 0.0331616, Final residual = 0.00304842, No Iterations 5
nonePBiCGStab:  Solving for Uy, Initial residual = 0.0805117, Final residual = 0.00691214, No Iterations 5
nonePBiCGStab:  Solving for Uz, Initial residual = 0.203686, Final residual = 0.0242625, No Iterations 5
linear solve U 145
[OGL LOG] init_host_sparsity_pattern : 73 ms
[OGL LOG] matrix not stored update host matrix
[OGL LOG] update_host_mtx : 35 ms
[OGL LOG] matrix is not yet sorted, sorting host matrix
[OGL LOG] sort_host_mtx_sparsity_pattern : 53 ms
[OGL LOG] sort_host_mtx : 28 ms
[OGL LOG] init_preconditioner : 0 ms
[OGL LOG] solve : 127 ms
nonecudaGKOIR:  Solving for p, Initial residual = 0.352216, Final residual = 1.17713e-06, No Iterations 3
linear solve p 337
time step continuity errors : sum local = 6.3893e-10, global = 5.56541e-21, cumulative = 2.63942e-20
[OGL LOG] init_host_sparsity_pattern : 73 ms
[OGL LOG] matrix not stored update host matrix
[OGL LOG] update_host_mtx : 35 ms
[OGL LOG] matrix is not yet sorted, sorting host matrix
[OGL LOG] sort_host_mtx_sparsity_pattern : 51 ms
[OGL LOG] sort_host_mtx : 28 ms
[OGL LOG] init_preconditioner : 0 ms
[OGL LOG] solve : 57 ms
nonecudaGKOIR:  Solving for p, Initial residual = 0.291656, Final residual = 8.64426e-05, No Iterations 2
linear solve p 262
time step continuity errors : sum local = 5.4203e-08, global = -1.92795e-20, cumulative = 7.11471e-21
ExecutionTime = 8.03 s  ClockTime = 8 s

Time = 0.005

Courant Number mean: 0.0682798 max: 0.585618
nonePBiCGStab:  Solving for Ux, Initial residual = 0.0235469, Final residual = 0.00193572, No Iterations 5
nonePBiCGStab:  Solving for Uy, Initial residual = 0.0529864, Final residual = 0.00378556, No Iterations 5
nonePBiCGStab:  Solving for Uz, Initial residual = 0.106205, Final residual = 0.0122827, No Iterations 5
linear solve U 145
[OGL LOG] init_host_sparsity_pattern : 73 ms
[OGL LOG] matrix not stored update host matrix
[OGL LOG] update_host_mtx : 35 ms
[OGL LOG] matrix is not yet sorted, sorting host matrix
[OGL LOG] sort_host_mtx_sparsity_pattern : 51 ms
[OGL LOG] sort_host_mtx : 28 ms
[OGL LOG] init_preconditioner : 0 ms
[OGL LOG] solve : 100 ms
nonecudaGKOIR:  Solving for p, Initial residual = 0.271243, Final residual = 8.95238e-05, No Iterations 2
linear solve p 306
time step continuity errors : sum local = 4.20991e-08, global = 2.48706e-20, cumulative = 3.19853e-20
[OGL LOG] init_host_sparsity_pattern : 73 ms
[OGL LOG] matrix not stored update host matrix
[OGL LOG] update_host_mtx : 35 ms
[OGL LOG] matrix is not yet sorted, sorting host matrix
[OGL LOG] sort_host_mtx_sparsity_pattern : 51 ms
[OGL LOG] sort_host_mtx : 28 ms
[OGL LOG] init_preconditioner : 0 ms
[OGL LOG] solve : 61 ms
nonecudaGKOIR:  Solving for p, Initial residual = 0.230427, Final residual = 6.72816e-05, No Iterations 2
linear solve p 269
time step continuity errors : sum local = 3.78881e-08, global = 2.78993e-21, cumulative = 3.47753e-20
ExecutionTime = 8.92 s  ClockTime = 9 s

Time = 0.006

Courant Number mean: 0.0745601 max: 0.592188
nonePBiCGStab:  Solving for Ux, Initial residual = 0.0176958, Final residual = 0.00111182, No Iterations 5
nonePBiCGStab:  Solving for Uy, Initial residual = 0.0395931, Final residual = 0.00184658, No Iterations 5
nonePBiCGStab:  Solving for Uz, Initial residual = 0.0863378, Final residual = 0.00918555, No Iterations 5
linear solve U 147
[OGL LOG] init_host_sparsity_pattern : 75 ms
[OGL LOG] matrix not stored update host matrix
[OGL LOG] update_host_mtx : 36 ms
[OGL LOG] matrix is not yet sorted, sorting host matrix
[OGL LOG] sort_host_mtx_sparsity_pattern : 51 ms
[OGL LOG] sort_host_mtx : 28 ms
[OGL LOG] init_preconditioner : 0 ms
[OGL LOG] solve : 95 ms
nonecudaGKOIR:  Solving for p, Initial residual = 0.176095, Final residual = 5.23868e-05, No Iterations 2
linear solve p 304
time step continuity errors : sum local = 2.44666e-08, global = -1.3996e-21, cumulative = 3.33757e-20
[OGL LOG] init_host_sparsity_pattern : 73 ms
[OGL LOG] matrix not stored update host matrix
[OGL LOG] update_host_mtx : 35 ms
[OGL LOG] matrix is not yet sorted, sorting host matrix
[OGL LOG] sort_host_mtx_sparsity_pattern : 51 ms
[OGL LOG] sort_host_mtx : 28 ms
[OGL LOG] init_preconditioner : 0 ms
[OGL LOG] solve : 96 ms
nonecudaGKOIR:  Solving for p, Initial residual = 0.146086, Final residual = 4.29292e-05, No Iterations 2
linear solve p 302
time step continuity errors : sum local = 2.01243e-08, global = -2.67834e-20, cumulative = 6.59224e-21
ExecutionTime = 9.83 s  ClockTime = 10 s

Time = 0.007

Courant Number mean: 0.079773 max: 0.596673
nonePBiCGStab:  Solving for Ux, Initial residual = 0.0139543, Final residual = 0.000744735, No Iterations 5
nonePBiCGStab:  Solving for Uy, Initial residual = 0.0312432, Final residual = 0.00141549, No Iterations 5
nonePBiCGStab:  Solving for Uz, Initial residual = 0.0648527, Final residual = 0.00453034, No Iterations 5
linear solve U 145
[OGL LOG] init_host_sparsity_pattern : 73 ms
[OGL LOG] matrix not stored update host matrix
[OGL LOG] update_host_mtx : 39 ms
[OGL LOG] matrix is not yet sorted, sorting host matrix
[OGL LOG] sort_host_mtx_sparsity_pattern : 59 ms
[OGL LOG] sort_host_mtx : 30 ms
[OGL LOG] init_preconditioner : 0 ms
[OGL LOG] solve : 95 ms
nonecudaGKOIR:  Solving for p, Initial residual = 0.127884, Final residual = 3.33468e-05, No Iterations 2
linear solve p 317
time step continuity errors : sum local = 1.47873e-08, global = 1.06636e-20, cumulative = 1.72558e-20
[OGL LOG] init_host_sparsity_pattern : 73 ms
[OGL LOG] matrix not stored update host matrix
[OGL LOG] update_host_mtx : 35 ms
[OGL LOG] matrix is not yet sorted, sorting host matrix
[OGL LOG] sort_host_mtx_sparsity_pattern : 52 ms
[OGL LOG] sort_host_mtx : 28 ms
[OGL LOG] init_preconditioner : 0 ms
[OGL LOG] solve : 96 ms
nonecudaGKOIR:  Solving for p, Initial residual = 0.107223, Final residual = 2.75037e-05, No Iterations 2
linear solve p 303
time step continuity errors : sum local = 1.21845e-08, global = 2.16286e-20, cumulative = 3.88844e-20
ExecutionTime = 10.77 s  ClockTime = 11 s

Time = 0.008

Courant Number mean: 0.0841437 max: 0.600056
nonePBiCGStab:  Solving for Ux, Initial residual = 0.0113958, Final residual = 0.000499777, No Iterations 5
nonePBiCGStab:  Solving for Uy, Initial residual = 0.0252559, Final residual = 0.000815005, No Iterations 5
nonePBiCGStab:  Solving for Uz, Initial residual = 0.0529352, Final residual = 0.00391243, No Iterations 5
linear solve U 145
[OGL LOG] init_host_sparsity_pattern : 74 ms
[OGL LOG] matrix not stored update host matrix
[OGL LOG] update_host_mtx : 35 ms
[OGL LOG] matrix is not yet sorted, sorting host matrix
[OGL LOG] sort_host_mtx_sparsity_pattern : 51 ms
[OGL LOG] sort_host_mtx : 28 ms
[OGL LOG] init_preconditioner : 0 ms
[OGL LOG] solve : 92 ms
nonecudaGKOIR:  Solving for p, Initial residual = 0.0861267, Final residual = 2.1935e-05, No Iterations 2
linear solve p 299
time step continuity errors : sum local = 9.61554e-09, global = 1.10039e-21, cumulative = 3.99848e-20
[OGL LOG] init_host_sparsity_pattern : 73 ms
[OGL LOG] matrix not stored update host matrix
[OGL LOG] update_host_mtx : 35 ms
[OGL LOG] matrix is not yet sorted, sorting host matrix
[OGL LOG] sort_host_mtx_sparsity_pattern : 51 ms
[OGL LOG] sort_host_mtx : 29 ms
[OGL LOG] init_preconditioner : 0 ms
[OGL LOG] solve : 94 ms
nonecudaGKOIR:  Solving for p, Initial residual = 0.0719015, Final residual = 1.76033e-05, No Iterations 2
linear solve p 302
time step continuity errors : sum local = 7.72826e-09, global = 2.28249e-20, cumulative = 6.28096e-20
ExecutionTime = 11.68 s  ClockTime = 12 s

Time = 0.009

Courant Number mean: 0.0878973 max: 0.602634
nonePBiCGStab:  Solving for Ux, Initial residual = 0.00950363, Final residual = 0.00040576, No Iterations 5
nonePBiCGStab:  Solving for Uy, Initial residual = 0.021252, Final residual = 0.000642694, No Iterations 5
nonePBiCGStab:  Solving for Uz, Initial residual = 0.0444528, Final residual = 0.00233334, No Iterations 5
linear solve U 146
[OGL LOG] init_host_sparsity_pattern : 73 ms
[OGL LOG] matrix not stored update host matrix
[OGL LOG] update_host_mtx : 36 ms
[OGL LOG] matrix is not yet sorted, sorting host matrix
[OGL LOG] sort_host_mtx_sparsity_pattern : 52 ms
[OGL LOG] sort_host_mtx : 28 ms
[OGL LOG] init_preconditioner : 0 ms
[OGL LOG] solve : 60 ms
nonecudaGKOIR:  Solving for p, Initial residual = 0.0617541, Final residual = 1.27812e-05, No Iterations 2
linear solve p 266
time step continuity errors : sum local = 6.46883e-09, global = 7.31394e-21, cumulative = 7.01236e-20
[OGL LOG] init_host_sparsity_pattern : 72 ms
[OGL LOG] matrix not stored update host matrix
[OGL LOG] update_host_mtx : 37 ms
[OGL LOG] matrix is not yet sorted, sorting host matrix
[OGL LOG] sort_host_mtx_sparsity_pattern : 51 ms
[OGL LOG] sort_host_mtx : 28 ms
[OGL LOG] init_preconditioner : 0 ms
[OGL LOG] solve : 59 ms
nonecudaGKOIR:  Solving for p, Initial residual = 0.0520599, Final residual = 1.00978e-05, No Iterations 2
linear solve p 266
time step continuity errors : sum local = 4.68165e-09, global = 1.92722e-20, cumulative = 8.93958e-20
ExecutionTime = 12.53 s  ClockTime = 13 s

Time = 0.01

Courant Number mean: 0.0911609 max: 0.604744
nonePBiCGStab:  Solving for Ux, Initial residual = 0.0080898, Final residual = 0.000295776, No Iterations 5
nonePBiCGStab:  Solving for Uy, Initial residual = 0.0179955, Final residual = 0.00044586, No Iterations 5
nonePBiCGStab:  Solving for Uz, Initial residual = 0.0377342, Final residual = 0.00204809, No Iterations 5
linear solve U 145
[OGL LOG] init_host_sparsity_pattern : 74 ms
[OGL LOG] matrix not stored update host matrix
[OGL LOG] update_host_mtx : 35 ms
[OGL LOG] matrix is not yet sorted, sorting host matrix
[OGL LOG] sort_host_mtx_sparsity_pattern : 51 ms
[OGL LOG] sort_host_mtx : 28 ms
[OGL LOG] init_preconditioner : 0 ms
[OGL LOG] solve : 96 ms
nonecudaGKOIR:  Solving for p, Initial residual = 0.0431045, Final residual = 9.6115e-06, No Iterations 2
linear solve p 302
time step continuity errors : sum local = 4.10845e-09, global = 6.22076e-22, cumulative = 9.00179e-20
[OGL LOG] init_host_sparsity_pattern : 73 ms
[OGL LOG] matrix not stored update host matrix
[OGL LOG] update_host_mtx : 38 ms
[OGL LOG] matrix is not yet sorted, sorting host matrix
[OGL LOG] sort_host_mtx_sparsity_pattern : 51 ms
[OGL LOG] sort_host_mtx : 28 ms
[OGL LOG] init_preconditioner : 0 ms
[OGL LOG] solve : 97 ms
nonecudaGKOIR:  Solving for p, Initial residual = 0.0364627, Final residual = 8.00639e-06, No Iterations 2
linear solve p 307
time step continuity errors : sum local = 3.42589e-09, global = -6.51247e-21, cumulative = 8.35054e-20
ExecutionTime = 13.45 s  ClockTime = 14 s

End

