/*---------------------------------------------------------------------------*\
  =========                 |
  \\      /  F ield         | OpenFOAM: The Open Source CFD Toolbox
   \\    /   O peration     | Website:  https://openfoam.org
    \\  /    A nd           | Version:  8
     \\/     M anipulation  |
\*---------------------------------------------------------------------------*/
Build  : 8-40a5a48f630f
Exec   : icoFoam
Date   : Jul 27 2021
Time   : 21:57:54
Host   : "uc2n481.localdomain"
PID    : 112696
I/O    : uncollated
Case   : /pfs/data5/home/kit/scc/nq7776/code/OBR/lidDrivenCavity3D/Variation_mesh/75/Variation_matrix_solver/BiCGStab_BJ_CUDA/base
nProcs : 1
sigFpe : Enabling floating point exception trapping (FOAM_SIGFPE).
fileModificationChecking : Monitoring run-time modified files using timeStampMaster (fileModificationSkew 10)
allowSystemOperations : Allowing user-supplied system call operations

// * * * * * * * * * * * * * * * * * * * * * * * * * * * * * * * * * * * * * //
Create time

Create mesh for time = 0

Reading transportProperties

Reading field p

Reading field U

Reading/calculating face flux field phi


Starting time loop

Time = 0.001

Courant Number mean: 0 max: 0
nonePBiCGStab:  Solving for Ux, Initial residual = 1, Final residual = 0.0634334, No Iterations 5
nonePBiCGStab:  Solving for Uy, Initial residual = 0, Final residual = 0, No Iterations 0
nonePBiCGStab:  Solving for Uz, Initial residual = 0, Final residual = 0, No Iterations 0
linear solve U 115
[OGL LOG] init_host_sparsity_pattern : 120 ms
[OGL LOG] matrix not stored update host matrix
[OGL LOG] update_host_mtx : 63 ms
[OGL LOG] matrix is not yet sorted, compute sorting idxs
[OGL LOG] compute_sort : 3706 ms
[OGL LOG] matrix is not yet sorted, sorting host matrix
[OGL LOG] sort_host_mtx_sparsity_pattern : 88 ms
[OGL LOG] sort_host_mtx : 48 ms
[OGL LOG] init_preconditioner : 45 ms
[OGL LOG] solve : 516 ms
BJcudaGKOBiCGStab:  Solving for p, Initial residual = 1, Final residual = 5.56613e-05, No Iterations 374
linear solve p 5383
time step continuity errors : sum local = 0.00179488, global = 9.47994e-19, cumulative = 9.47994e-19
[OGL LOG] init_host_sparsity_pattern : 114 ms
[OGL LOG] matrix not stored update host matrix
[OGL LOG] update_host_mtx : 62 ms
[OGL LOG] matrix is not yet sorted, sorting host matrix
[OGL LOG] sort_host_mtx_sparsity_pattern : 91 ms
[OGL LOG] sort_host_mtx : 43 ms
[OGL LOG] init_preconditioner : 0 ms
[OGL LOG] solve : 218 ms
BJcudaGKOBiCGStab:  Solving for p, Initial residual = 0.93635, Final residual = 9.74816e-05, No Iterations 158
linear solve p 559
time step continuity errors : sum local = 4.2918e-07, global = 1.18565e-20, cumulative = 9.59851e-19
ExecutionTime = 7.84 s  ClockTime = 8 s

Time = 0.002

Courant Number mean: 0.0361051 max: 0.564428
nonePBiCGStab:  Solving for Ux, Initial residual = 0.147265, Final residual = 0.0275273, No Iterations 5
nonePBiCGStab:  Solving for Uy, Initial residual = 0.394978, Final residual = 0.0730029, No Iterations 5
nonePBiCGStab:  Solving for Uz, Initial residual = 0.88316, Final residual = 0.198332, No Iterations 5
linear solve U 225
[OGL LOG] init_host_sparsity_pattern : 113 ms
[OGL LOG] matrix not stored update host matrix
[OGL LOG] update_host_mtx : 54 ms
[OGL LOG] matrix is not yet sorted, sorting host matrix
[OGL LOG] sort_host_mtx_sparsity_pattern : 78 ms
[OGL LOG] sort_host_mtx : 43 ms
[OGL LOG] init_preconditioner : 0 ms
[OGL LOG] solve : 426 ms
BJcudaGKOBiCGStab:  Solving for p, Initial residual = 0.970482, Final residual = 8.97377e-05, No Iterations 308
linear solve p 740
time step continuity errors : sum local = 0.004934, global = 5.14928e-19, cumulative = 1.47478e-18
[OGL LOG] init_host_sparsity_pattern : 112 ms
[OGL LOG] matrix not stored update host matrix
[OGL LOG] update_host_mtx : 54 ms
[OGL LOG] matrix is not yet sorted, sorting host matrix
[OGL LOG] sort_host_mtx_sparsity_pattern : 78 ms
[OGL LOG] sort_host_mtx : 43 ms
[OGL LOG] init_preconditioner : 0 ms
[OGL LOG] solve : 226 ms
BJcudaGKOBiCGStab:  Solving for p, Initial residual = 0.757401, Final residual = 9.83189e-05, No Iterations 163
linear solve p 540
time step continuity errors : sum local = 2.14361e-06, global = -7.99972e-21, cumulative = 1.46678e-18
ExecutionTime = 9.58 s  ClockTime = 10 s

Time = 0.003

Courant Number mean: 0.0587147 max: 0.730442
nonePBiCGStab:  Solving for Ux, Initial residual = 0.0605098, Final residual = 0.0097037, No Iterations 5
nonePBiCGStab:  Solving for Uy, Initial residual = 0.204455, Final residual = 0.0492602, No Iterations 5
nonePBiCGStab:  Solving for Uz, Initial residual = 0.846034, Final residual = 0.173462, No Iterations 5
linear solve U 225
[OGL LOG] init_host_sparsity_pattern : 113 ms
[OGL LOG] matrix not stored update host matrix
[OGL LOG] update_host_mtx : 54 ms
[OGL LOG] matrix is not yet sorted, sorting host matrix
[OGL LOG] sort_host_mtx_sparsity_pattern : 82 ms
[OGL LOG] sort_host_mtx : 44 ms
[OGL LOG] init_preconditioner : 0 ms
[OGL LOG] solve : 461 ms
BJcudaGKOBiCGStab:  Solving for p, Initial residual = 0.985854, Final residual = 9.97662e-05, No Iterations 336
linear solve p 785
time step continuity errors : sum local = 0.000577694, global = 1.54759e-18, cumulative = 3.01437e-18
[OGL LOG] init_host_sparsity_pattern : 112 ms
[OGL LOG] matrix not stored update host matrix
[OGL LOG] update_host_mtx : 55 ms
[OGL LOG] matrix is not yet sorted, sorting host matrix
[OGL LOG] sort_host_mtx_sparsity_pattern : 80 ms
[OGL LOG] sort_host_mtx : 43 ms
[OGL LOG] init_preconditioner : 0 ms
[OGL LOG] solve : 439 ms
BJcudaGKOBiCGStab:  Solving for p, Initial residual = 0.841769, Final residual = 7.92484e-05, No Iterations 318
linear solve p 757
time step continuity errors : sum local = 0.0200063, global = -2.22283e-17, cumulative = -1.92139e-17
ExecutionTime = 11.6 s  ClockTime = 12 s

Time = 0.004

Courant Number mean: 0.084218 max: 1.19558
nonePBiCGStab:  Solving for Ux, Initial residual = 0.0733925, Final residual = 0.0160768, No Iterations 5
nonePBiCGStab:  Solving for Uy, Initial residual = 0.270342, Final residual = 0.0835039, No Iterations 5
nonePBiCGStab:  Solving for Uz, Initial residual = 0.722849, Final residual = 0.155167, No Iterations 5
linear solve U 223
[OGL LOG] init_host_sparsity_pattern : 114 ms
[OGL LOG] matrix not stored update host matrix
[OGL LOG] update_host_mtx : 59 ms
[OGL LOG] matrix is not yet sorted, sorting host matrix
[OGL LOG] sort_host_mtx_sparsity_pattern : 82 ms
[OGL LOG] sort_host_mtx : 43 ms
[OGL LOG] init_preconditioner : 0 ms
[OGL LOG] solve : 421 ms
BJcudaGKOBiCGStab:  Solving for p, Initial residual = 0.993106, Final residual = 8.00669e-05, No Iterations 308
linear solve p 746
time step continuity errors : sum local = 0.0615943, global = -9.39687e-17, cumulative = -1.13183e-16
[OGL LOG] init_host_sparsity_pattern : 112 ms
[OGL LOG] matrix not stored update host matrix
[OGL LOG] update_host_mtx : 54 ms
[OGL LOG] matrix is not yet sorted, sorting host matrix
[OGL LOG] sort_host_mtx_sparsity_pattern : 79 ms
[OGL LOG] sort_host_mtx : 43 ms
[OGL LOG] init_preconditioner : 0 ms
[OGL LOG] solve : 155 ms
BJcudaGKOBiCGStab:  Solving for p, Initial residual = 0.75642, Final residual = 8.94373e-05, No Iterations 111
linear solve p 468
time step continuity errors : sum local = 6.95485e-05, global = 1.99789e-20, cumulative = -1.13163e-16
ExecutionTime = 13.28 s  ClockTime = 13 s

Time = 0.005

Courant Number mean: 0.117166 max: 1.76047
nonePBiCGStab:  Solving for Ux, Initial residual = 0.147, Final residual = 0.036513, No Iterations 5
nonePBiCGStab:  Solving for Uy, Initial residual = 0.463157, Final residual = 0.139565, No Iterations 5
nonePBiCGStab:  Solving for Uz, Initial residual = 0.835201, Final residual = 0.17293, No Iterations 5
linear solve U 226
[OGL LOG] init_host_sparsity_pattern : 113 ms
[OGL LOG] matrix not stored update host matrix
[OGL LOG] update_host_mtx : 55 ms
[OGL LOG] matrix is not yet sorted, sorting host matrix
[OGL LOG] sort_host_mtx_sparsity_pattern : 80 ms
[OGL LOG] sort_host_mtx : 45 ms
[OGL LOG] init_preconditioner : 0 ms
[OGL LOG] solve : 404 ms
BJcudaGKOBiCGStab:  Solving for p, Initial residual = 0.989726, Final residual = 3.03026e-05, No Iterations 295
linear solve p 724
time step continuity errors : sum local = 1.90243, global = 2.25471e-15, cumulative = 2.14155e-15
[OGL LOG] init_host_sparsity_pattern : 112 ms
[OGL LOG] matrix not stored update host matrix
[OGL LOG] update_host_mtx : 55 ms
[OGL LOG] matrix is not yet sorted, sorting host matrix
[OGL LOG] sort_host_mtx_sparsity_pattern : 78 ms
[OGL LOG] sort_host_mtx : 43 ms
[OGL LOG] init_preconditioner : 0 ms
[OGL LOG] solve : 152 ms
BJcudaGKOBiCGStab:  Solving for p, Initial residual = 0.889263, Final residual = 6.20562e-05, No Iterations 109
linear solve p 465
time step continuity errors : sum local = 0.000251715, global = 1.88942e-18, cumulative = 2.14344e-15
ExecutionTime = 14.96 s  ClockTime = 15 s

Time = 0.006

Courant Number mean: 0.256249 max: 14.8484
nonePBiCGStab:  Solving for Ux, Initial residual = 0.421233, Final residual = 0.111584, No Iterations 5
nonePBiCGStab:  Solving for Uy, Initial residual = 0.661438, Final residual = 0.200387, No Iterations 5
nonePBiCGStab:  Solving for Uz, Initial residual = 0.865523, Final residual = 0.194818, No Iterations 5
linear solve U 226
[OGL LOG] init_host_sparsity_pattern : 112 ms
[OGL LOG] matrix not stored update host matrix
[OGL LOG] update_host_mtx : 54 ms
[OGL LOG] matrix is not yet sorted, sorting host matrix
[OGL LOG] sort_host_mtx_sparsity_pattern : 78 ms
[OGL LOG] sort_host_mtx : 43 ms
[OGL LOG] init_preconditioner : 0 ms
[OGL LOG] solve : 419 ms
BJcudaGKOBiCGStab:  Solving for p, Initial residual = 0.998574, Final residual = 9.22782e-05, No Iterations 305
linear solve p 732
time step continuity errors : sum local = 2.08734, global = -1.65508e-15, cumulative = 4.88356e-16
[OGL LOG] init_host_sparsity_pattern : 114 ms
[OGL LOG] matrix not stored update host matrix
[OGL LOG] update_host_mtx : 54 ms
[OGL LOG] matrix is not yet sorted, sorting host matrix
[OGL LOG] sort_host_mtx_sparsity_pattern : 78 ms
[OGL LOG] sort_host_mtx : 43 ms
[OGL LOG] init_preconditioner : 0 ms
[OGL LOG] solve : 175 ms
BJcudaGKOBiCGStab:  Solving for p, Initial residual = 0.814375, Final residual = 9.87671e-05, No Iterations 126
linear solve p 491
time step continuity errors : sum local = 0.00124777, global = -5.99259e-18, cumulative = 4.82363e-16
ExecutionTime = 16.64 s  ClockTime = 17 s

Time = 0.007

Courant Number mean: 4.59474 max: 87.5133
nonePBiCGStab:  Solving for Ux, Initial residual = 0.895452, Final residual = 0.722704, No Iterations 5
nonePBiCGStab:  Solving for Uy, Initial residual = 0.887343, Final residual = 0.732299, No Iterations 5
nonePBiCGStab:  Solving for Uz, Initial residual = 0.821813, Final residual = 0.728439, No Iterations 5
linear solve U 229
[OGL LOG] init_host_sparsity_pattern : 113 ms
[OGL LOG] matrix not stored update host matrix
[OGL LOG] update_host_mtx : 55 ms
[OGL LOG] matrix is not yet sorted, sorting host matrix
[OGL LOG] sort_host_mtx_sparsity_pattern : 78 ms
[OGL LOG] sort_host_mtx : 43 ms
[OGL LOG] init_preconditioner : 0 ms
[OGL LOG] solve : 446 ms
BJcudaGKOBiCGStab:  Solving for p, Initial residual = 0.970474, Final residual = 9.96252e-05, No Iterations 326
linear solve p 761
time step continuity errors : sum local = 0.217058, global = 4.11316e-16, cumulative = 8.93679e-16
[OGL LOG] init_host_sparsity_pattern : 113 ms
[OGL LOG] matrix not stored update host matrix
[OGL LOG] update_host_mtx : 54 ms
[OGL LOG] matrix is not yet sorted, sorting host matrix
[OGL LOG] sort_host_mtx_sparsity_pattern : 78 ms
[OGL LOG] sort_host_mtx : 44 ms
[OGL LOG] init_preconditioner : 0 ms
[OGL LOG] solve : 471 ms
BJcudaGKOBiCGStab:  Solving for p, Initial residual = 0.824385, Final residual = 9.31436e-05, No Iterations 335
linear solve p 787
time step continuity errors : sum local = 0.219198, global = -3.12262e-16, cumulative = 5.81418e-16
ExecutionTime = 18.67 s  ClockTime = 19 s

Time = 0.008

Courant Number mean: 5.26544 max: 262.031
nonePBiCGStab:  Solving for Ux, Initial residual = 0.782622, Final residual = 0.659872, No Iterations 5
nonePBiCGStab:  Solving for Uy, Initial residual = 0.79501, Final residual = 0.670932, No Iterations 5
nonePBiCGStab:  Solving for Uz, Initial residual = 0.887332, Final residual = 0.756158, No Iterations 5
linear solve U 225
[OGL LOG] init_host_sparsity_pattern : 114 ms
[OGL LOG] matrix not stored update host matrix
[OGL LOG] update_host_mtx : 59 ms
[OGL LOG] matrix is not yet sorted, sorting host matrix
[OGL LOG] sort_host_mtx_sparsity_pattern : 82 ms
[OGL LOG] sort_host_mtx : 43 ms
[OGL LOG] init_preconditioner : 0 ms
[OGL LOG] solve : 176 ms
BJcudaGKOBiCGStab:  Solving for p, Initial residual = 0.888607, Final residual = 8.83253e-05, No Iterations 124
linear solve p 500
time step continuity errors : sum local = 0.000461075, global = 5.1881e-18, cumulative = 5.86606e-16
[OGL LOG] init_host_sparsity_pattern : 112 ms
[OGL LOG] matrix not stored update host matrix
[OGL LOG] update_host_mtx : 54 ms
[OGL LOG] matrix is not yet sorted, sorting host matrix
[OGL LOG] sort_host_mtx_sparsity_pattern : 79 ms
[OGL LOG] sort_host_mtx : 43 ms
[OGL LOG] init_preconditioner : 0 ms
[OGL LOG] solve : 169 ms
BJcudaGKOBiCGStab:  Solving for p, Initial residual = 0.686442, Final residual = 7.64277e-05, No Iterations 118
linear solve p 484
time step continuity errors : sum local = 0.00333146, global = -5.78845e-18, cumulative = 5.80817e-16
ExecutionTime = 20.13 s  ClockTime = 20 s

Time = 0.009

Courant Number mean: 5.28196 max: 7278.6
nonePBiCGStab:  Solving for Ux, Initial residual = 0.934523, Final residual = 0.384589, No Iterations 5
nonePBiCGStab:  Solving for Uy, Initial residual = 0.942882, Final residual = 0.349504, No Iterations 5
nonePBiCGStab:  Solving for Uz, Initial residual = 0.970412, Final residual = 0.19552, No Iterations 5
linear solve U 225
[OGL LOG] init_host_sparsity_pattern : 113 ms
[OGL LOG] matrix not stored update host matrix
[OGL LOG] update_host_mtx : 58 ms
[OGL LOG] matrix is not yet sorted, sorting host matrix
[OGL LOG] sort_host_mtx_sparsity_pattern : 81 ms
[OGL LOG] sort_host_mtx : 43 ms
[OGL LOG] init_preconditioner : 0 ms
[OGL LOG] solve : 148 ms
BJcudaGKOBiCGStab:  Solving for p, Initial residual = 0.834761, Final residual = 9.95176e-05, No Iterations 102
linear solve p 470
time step continuity errors : sum local = 0.000699106, global = -1.4362e-17, cumulative = 5.66455e-16
[OGL LOG] init_host_sparsity_pattern : 113 ms
[OGL LOG] matrix not stored update host matrix
[OGL LOG] update_host_mtx : 54 ms
[OGL LOG] matrix is not yet sorted, sorting host matrix
[OGL LOG] sort_host_mtx_sparsity_pattern : 79 ms
[OGL LOG] sort_host_mtx : 43 ms
[OGL LOG] init_preconditioner : 0 ms
[OGL LOG] solve : 142 ms
BJcudaGKOBiCGStab:  Solving for p, Initial residual = 0.96789, Final residual = 5.32352e-05, No Iterations 98
linear solve p 457
time step continuity errors : sum local = 0.12828, global = -3.24286e-16, cumulative = 2.42169e-16
ExecutionTime = 21.54 s  ClockTime = 22 s

Time = 0.01

Courant Number mean: 152.952 max: 1.85323e+06
nonePBiCGStab:  Solving for Ux, Initial residual = 0.99993, Final residual = 1919.64, No Iterations 5
nonePBiCGStab:  Solving for Uy, Initial residual = 0.999933, Final residual = 135382, No Iterations 5
nonePBiCGStab:  Solving for Uz, Initial residual = 0.99998, Final residual = 596.582, No Iterations 5
linear solve U 224
[OGL LOG] init_host_sparsity_pattern : 114 ms
[OGL LOG] matrix not stored update host matrix
[OGL LOG] update_host_mtx : 54 ms
[OGL LOG] matrix is not yet sorted, sorting host matrix
[OGL LOG] sort_host_mtx_sparsity_pattern : 78 ms
[OGL LOG] sort_host_mtx : 43 ms
[OGL LOG] init_preconditioner : 0 ms
[OGL LOG] solve : 97 ms
BJcudaGKOBiCGStab:  Solving for p, Initial residual = 1, Final residual = 9.94575e-05, No Iterations 66
linear solve p 412
time step continuity errors : sum local = 4.36196e+06, global = -1.54613e-08, cumulative = -1.54613e-08
[OGL LOG] init_host_sparsity_pattern : 112 ms
[OGL LOG] matrix not stored update host matrix
[OGL LOG] update_host_mtx : 54 ms
[OGL LOG] matrix is not yet sorted, sorting host matrix
[OGL LOG] sort_host_mtx_sparsity_pattern : 78 ms
[OGL LOG] sort_host_mtx : 43 ms
[OGL LOG] init_preconditioner : 0 ms
[OGL LOG] solve : 102 ms
BJcudaGKOBiCGStab:  Solving for p, Initial residual = 0.999978, Final residual = 9.81491e-05, No Iterations 68
linear solve p 416
time step continuity errors : sum local = 1.40385e+11, global = -0.00449826, cumulative = -0.00449827
ExecutionTime = 22.83 s  ClockTime = 23 s

End

