/*---------------------------------------------------------------------------*\
  =========                 |
  \\      /  F ield         | OpenFOAM: The Open Source CFD Toolbox
   \\    /   O peration     | Website:  https://openfoam.org
    \\  /    A nd           | Version:  8
     \\/     M anipulation  |
\*---------------------------------------------------------------------------*/
Build  : 8-40a5a48f630f
Exec   : icoFoam
Date   : Jul 27 2021
Time   : 22:13:40
Host   : "uc2n481.localdomain"
PID    : 127721
I/O    : uncollated
Case   : /pfs/data5/home/kit/scc/nq7776/code/OBR/lidDrivenCavity3D/Variation_mesh/95/Variation_matrix_solver/CG_NoPrecond_CUDA/base
nProcs : 1
sigFpe : Enabling floating point exception trapping (FOAM_SIGFPE).
fileModificationChecking : Monitoring run-time modified files using timeStampMaster (fileModificationSkew 10)
allowSystemOperations : Allowing user-supplied system call operations

// * * * * * * * * * * * * * * * * * * * * * * * * * * * * * * * * * * * * * //
Create time

Create mesh for time = 0

Reading transportProperties

Reading field p

Reading field U

Reading/calculating face flux field phi


Starting time loop

Time = 0.001

Courant Number mean: 0 max: 0
nonePBiCGStab:  Solving for Ux, Initial residual = 1, Final residual = 0.078913, No Iterations 5
nonePBiCGStab:  Solving for Uy, Initial residual = 0, Final residual = 0, No Iterations 0
nonePBiCGStab:  Solving for Uz, Initial residual = 0, Final residual = 0, No Iterations 0
linear solve U 237
[OGL LOG] init_host_sparsity_pattern : 248 ms
[OGL LOG] matrix not stored update host matrix
[OGL LOG] update_host_mtx : 128 ms
[OGL LOG] matrix is not yet sorted, compute sorting idxs
[OGL LOG] compute_sort : 7840 ms
[OGL LOG] matrix is not yet sorted, sorting host matrix
[OGL LOG] sort_host_mtx_sparsity_pattern : 176 ms
[OGL LOG] sort_host_mtx : 102 ms
[OGL LOG] init_preconditioner : 0 ms
[OGL LOG] solve : 818 ms
nonecudaGKOCG:  Solving for p, Initial residual = 1, Final residual = 9.63946e-05, No Iterations 754
linear solve p 10161
time step continuity errors : sum local = 3.77829e-08, global = 3.0243e-21, cumulative = 3.0243e-21
[OGL LOG] init_host_sparsity_pattern : 248 ms
[OGL LOG] matrix not stored update host matrix
[OGL LOG] update_host_mtx : 129 ms
[OGL LOG] matrix is not yet sorted, sorting host matrix
[OGL LOG] sort_host_mtx_sparsity_pattern : 179 ms
[OGL LOG] sort_host_mtx : 90 ms
[OGL LOG] init_preconditioner : 0 ms
[OGL LOG] solve : 806 ms
nonecudaGKOCG:  Solving for p, Initial residual = 0.704606, Final residual = 9.8146e-05, No Iterations 742
linear solve p 1512
time step continuity errors : sum local = 5.33967e-08, global = -6.48747e-21, cumulative = -3.46317e-21
ExecutionTime = 15.62 s  ClockTime = 16 s

Time = 0.002

Courant Number mean: 0.0412052 max: 0.745797
nonePBiCGStab:  Solving for Ux, Initial residual = 0.139163, Final residual = 0.0377852, No Iterations 5
nonePBiCGStab:  Solving for Uy, Initial residual = 0.440104, Final residual = 0.117163, No Iterations 5
nonePBiCGStab:  Solving for Uz, Initial residual = 0.986846, Final residual = 0.301642, No Iterations 5
linear solve U 511
[OGL LOG] init_host_sparsity_pattern : 239 ms
[OGL LOG] matrix not stored update host matrix
[OGL LOG] update_host_mtx : 128 ms
[OGL LOG] matrix is not yet sorted, sorting host matrix
[OGL LOG] sort_host_mtx_sparsity_pattern : 180 ms
[OGL LOG] sort_host_mtx : 91 ms
[OGL LOG] init_preconditioner : 0 ms
[OGL LOG] solve : 488 ms
nonecudaGKOCG:  Solving for p, Initial residual = 0.777957, Final residual = 9.88321e-05, No Iterations 448
linear solve p 1182
time step continuity errors : sum local = 1.05131e-07, global = 4.31568e-21, cumulative = 8.52512e-22
[OGL LOG] init_host_sparsity_pattern : 242 ms
[OGL LOG] matrix not stored update host matrix
[OGL LOG] update_host_mtx : 129 ms
[OGL LOG] matrix is not yet sorted, sorting host matrix
[OGL LOG] sort_host_mtx_sparsity_pattern : 180 ms
[OGL LOG] sort_host_mtx : 91 ms
[OGL LOG] init_preconditioner : 0 ms
[OGL LOG] solve : 484 ms
nonecudaGKOCG:  Solving for p, Initial residual = 0.701334, Final residual = 9.39829e-05, No Iterations 443
linear solve p 1181
time step continuity errors : sum local = 9.40513e-08, global = -6.68522e-21, cumulative = -5.8327e-21
ExecutionTime = 19.02 s  ClockTime = 19 s

Time = 0.003

Courant Number mean: 0.0654742 max: 0.85009
nonePBiCGStab:  Solving for Ux, Initial residual = 0.0603441, Final residual = 0.0137586, No Iterations 5
nonePBiCGStab:  Solving for Uy, Initial residual = 0.195594, Final residual = 0.0536791, No Iterations 5
nonePBiCGStab:  Solving for Uz, Initial residual = 0.690626, Final residual = 0.194522, No Iterations 5
linear solve U 492
[OGL LOG] init_host_sparsity_pattern : 242 ms
[OGL LOG] matrix not stored update host matrix
[OGL LOG] update_host_mtx : 129 ms
[OGL LOG] matrix is not yet sorted, sorting host matrix
[OGL LOG] sort_host_mtx_sparsity_pattern : 179 ms
[OGL LOG] sort_host_mtx : 91 ms
[OGL LOG] init_preconditioner : 0 ms
[OGL LOG] solve : 797 ms
nonecudaGKOCG:  Solving for p, Initial residual = 0.778391, Final residual = 9.86397e-05, No Iterations 731
linear solve p 1495
time step continuity errors : sum local = 6.96245e-08, global = -6.38857e-21, cumulative = -1.22213e-20
[OGL LOG] init_host_sparsity_pattern : 240 ms
[OGL LOG] matrix not stored update host matrix
[OGL LOG] update_host_mtx : 128 ms
[OGL LOG] matrix is not yet sorted, sorting host matrix
[OGL LOG] sort_host_mtx_sparsity_pattern : 184 ms
[OGL LOG] sort_host_mtx : 91 ms
[OGL LOG] init_preconditioner : 0 ms
[OGL LOG] solve : 792 ms
nonecudaGKOCG:  Solving for p, Initial residual = 0.707023, Final residual = 9.54686e-05, No Iterations 730
linear solve p 1492
time step continuity errors : sum local = 6.56681e-08, global = -2.83019e-21, cumulative = -1.50515e-20
ExecutionTime = 23.05 s  ClockTime = 23 s

Time = 0.004

Courant Number mean: 0.0789373 max: 0.864942
nonePBiCGStab:  Solving for Ux, Initial residual = 0.03764, Final residual = 0.00929836, No Iterations 5
nonePBiCGStab:  Solving for Uy, Initial residual = 0.138329, Final residual = 0.0427885, No Iterations 5
nonePBiCGStab:  Solving for Uz, Initial residual = 0.459937, Final residual = 0.116874, No Iterations 5
linear solve U 499
[OGL LOG] init_host_sparsity_pattern : 240 ms
[OGL LOG] matrix not stored update host matrix
[OGL LOG] update_host_mtx : 128 ms
[OGL LOG] matrix is not yet sorted, sorting host matrix
[OGL LOG] sort_host_mtx_sparsity_pattern : 178 ms
[OGL LOG] sort_host_mtx : 93 ms
[OGL LOG] init_preconditioner : 0 ms
[OGL LOG] solve : 381 ms
nonecudaGKOCG:  Solving for p, Initial residual = 0.688447, Final residual = 9.87658e-05, No Iterations 351
linear solve p 1080
time step continuity errors : sum local = 7.6538e-08, global = -6.6147e-21, cumulative = -2.16662e-20
[OGL LOG] init_host_sparsity_pattern : 240 ms
[OGL LOG] matrix not stored update host matrix
[OGL LOG] update_host_mtx : 129 ms
[OGL LOG] matrix is not yet sorted, sorting host matrix
[OGL LOG] sort_host_mtx_sparsity_pattern : 179 ms
[OGL LOG] sort_host_mtx : 91 ms
[OGL LOG] init_preconditioner : 0 ms
[OGL LOG] solve : 382 ms
nonecudaGKOCG:  Solving for p, Initial residual = 0.592653, Final residual = 9.77767e-05, No Iterations 349
linear solve p 1076
time step continuity errors : sum local = 7.37031e-08, global = -1.64593e-21, cumulative = -2.33121e-20
ExecutionTime = 26.24 s  ClockTime = 26 s

Time = 0.005

Courant Number mean: 0.0895856 max: 0.877408
nonePBiCGStab:  Solving for Ux, Initial residual = 0.0286417, Final residual = 0.0074678, No Iterations 5
nonePBiCGStab:  Solving for Uy, Initial residual = 0.0903063, Final residual = 0.0307364, No Iterations 5
nonePBiCGStab:  Solving for Uz, Initial residual = 0.271896, Final residual = 0.0689128, No Iterations 5
linear solve U 495
[OGL LOG] init_host_sparsity_pattern : 240 ms
[OGL LOG] matrix not stored update host matrix
[OGL LOG] update_host_mtx : 129 ms
[OGL LOG] matrix is not yet sorted, sorting host matrix
[OGL LOG] sort_host_mtx_sparsity_pattern : 183 ms
[OGL LOG] sort_host_mtx : 92 ms
[OGL LOG] init_preconditioner : 0 ms
[OGL LOG] solve : 379 ms
nonecudaGKOCG:  Solving for p, Initial residual = 0.723936, Final residual = 9.52907e-05, No Iterations 346
linear solve p 1079
time step continuity errors : sum local = 6.49855e-08, global = 2.44445e-20, cumulative = 1.13238e-21
[OGL LOG] init_host_sparsity_pattern : 240 ms
[OGL LOG] matrix not stored update host matrix
[OGL LOG] update_host_mtx : 129 ms
[OGL LOG] matrix is not yet sorted, sorting host matrix
[OGL LOG] sort_host_mtx_sparsity_pattern : 180 ms
[OGL LOG] sort_host_mtx : 91 ms
[OGL LOG] init_preconditioner : 0 ms
[OGL LOG] solve : 376 ms
nonecudaGKOCG:  Solving for p, Initial residual = 0.640192, Final residual = 9.66678e-05, No Iterations 344
linear solve p 1071
time step continuity errors : sum local = 6.2954e-08, global = 4.02028e-22, cumulative = 1.53441e-21
ExecutionTime = 29.39 s  ClockTime = 30 s

Time = 0.006

Courant Number mean: 0.0978353 max: 0.884253
nonePBiCGStab:  Solving for Ux, Initial residual = 0.022296, Final residual = 0.00592536, No Iterations 5
nonePBiCGStab:  Solving for Uy, Initial residual = 0.0723763, Final residual = 0.0240805, No Iterations 5
nonePBiCGStab:  Solving for Uz, Initial residual = 0.212579, Final residual = 0.0606794, No Iterations 5
linear solve U 505
[OGL LOG] init_host_sparsity_pattern : 240 ms
[OGL LOG] matrix not stored update host matrix
[OGL LOG] update_host_mtx : 130 ms
[OGL LOG] matrix is not yet sorted, sorting host matrix
[OGL LOG] sort_host_mtx_sparsity_pattern : 181 ms
[OGL LOG] sort_host_mtx : 90 ms
[OGL LOG] init_preconditioner : 0 ms
[OGL LOG] solve : 371 ms
nonecudaGKOCG:  Solving for p, Initial residual = 0.651063, Final residual = 9.97581e-05, No Iterations 341
linear solve p 1067
time step continuity errors : sum local = 7.12195e-08, global = -4.90268e-21, cumulative = -3.36828e-21
[OGL LOG] init_host_sparsity_pattern : 244 ms
[OGL LOG] matrix not stored update host matrix
[OGL LOG] update_host_mtx : 129 ms
[OGL LOG] matrix is not yet sorted, sorting host matrix
[OGL LOG] sort_host_mtx_sparsity_pattern : 181 ms
[OGL LOG] sort_host_mtx : 99 ms
[OGL LOG] init_preconditioner : 0 ms
[OGL LOG] solve : 362 ms
nonecudaGKOCG:  Solving for p, Initial residual = 0.558532, Final residual = 9.86495e-05, No Iterations 331
linear solve p 1071
time step continuity errors : sum local = 6.95247e-08, global = -4.13165e-21, cumulative = -7.49993e-21
ExecutionTime = 32.57 s  ClockTime = 33 s

Time = 0.007

Courant Number mean: 0.104798 max: 0.889602
nonePBiCGStab:  Solving for Ux, Initial residual = 0.0189468, Final residual = 0.00480462, No Iterations 5
nonePBiCGStab:  Solving for Uy, Initial residual = 0.0561813, Final residual = 0.0194372, No Iterations 5
nonePBiCGStab:  Solving for Uz, Initial residual = 0.159637, Final residual = 0.0447715, No Iterations 5
linear solve U 491
[OGL LOG] init_host_sparsity_pattern : 240 ms
[OGL LOG] matrix not stored update host matrix
[OGL LOG] update_host_mtx : 128 ms
[OGL LOG] matrix is not yet sorted, sorting host matrix
[OGL LOG] sort_host_mtx_sparsity_pattern : 180 ms
[OGL LOG] sort_host_mtx : 91 ms
[OGL LOG] init_preconditioner : 0 ms
[OGL LOG] solve : 363 ms
nonecudaGKOCG:  Solving for p, Initial residual = 0.687881, Final residual = 9.79528e-05, No Iterations 330
linear solve p 1057
time step continuity errors : sum local = 6.43525e-08, global = -1.31717e-20, cumulative = -2.06717e-20
[OGL LOG] init_host_sparsity_pattern : 241 ms
[OGL LOG] matrix not stored update host matrix
[OGL LOG] update_host_mtx : 130 ms
[OGL LOG] matrix is not yet sorted, sorting host matrix
[OGL LOG] sort_host_mtx_sparsity_pattern : 180 ms
[OGL LOG] sort_host_mtx : 90 ms
[OGL LOG] init_preconditioner : 0 ms
[OGL LOG] solve : 363 ms
nonecudaGKOCG:  Solving for p, Initial residual = 0.596932, Final residual = 9.99101e-05, No Iterations 328
linear solve p 1058
time step continuity errors : sum local = 6.34664e-08, global = -6.40799e-21, cumulative = -2.70797e-20
ExecutionTime = 35.69 s  ClockTime = 36 s

Time = 0.008

Courant Number mean: 0.110772 max: 0.893421
nonePBiCGStab:  Solving for Ux, Initial residual = 0.0158774, Final residual = 0.00431004, No Iterations 5
nonePBiCGStab:  Solving for Uy, Initial residual = 0.0483867, Final residual = 0.0143958, No Iterations 5
nonePBiCGStab:  Solving for Uz, Initial residual = 0.136275, Final residual = 0.0417548, No Iterations 5
linear solve U 509
[OGL LOG] init_host_sparsity_pattern : 240 ms
[OGL LOG] matrix not stored update host matrix
[OGL LOG] update_host_mtx : 129 ms
[OGL LOG] matrix is not yet sorted, sorting host matrix
[OGL LOG] sort_host_mtx_sparsity_pattern : 180 ms
[OGL LOG] sort_host_mtx : 92 ms
[OGL LOG] init_preconditioner : 0 ms
[OGL LOG] solve : 368 ms
nonecudaGKOCG:  Solving for p, Initial residual = 0.627625, Final residual = 9.47007e-05, No Iterations 332
linear solve p 1065
time step continuity errors : sum local = 6.30685e-08, global = -4.02528e-21, cumulative = -3.11049e-20
[OGL LOG] init_host_sparsity_pattern : 242 ms
[OGL LOG] matrix not stored update host matrix
[OGL LOG] update_host_mtx : 130 ms
[OGL LOG] matrix is not yet sorted, sorting host matrix
[OGL LOG] sort_host_mtx_sparsity_pattern : 180 ms
[OGL LOG] sort_host_mtx : 113 ms
[OGL LOG] init_preconditioner : 0 ms
[OGL LOG] solve : 366 ms
nonecudaGKOCG:  Solving for p, Initial residual = 0.536293, Final residual = 9.72466e-05, No Iterations 330
linear solve p 1085
time step continuity errors : sum local = 6.58379e-08, global = -2.43479e-21, cumulative = -3.35397e-20
ExecutionTime = 38.88 s  ClockTime = 39 s

Time = 0.009

Courant Number mean: 0.116048 max: 0.896651
nonePBiCGStab:  Solving for Ux, Initial residual = 0.0143156, Final residual = 0.00340161, No Iterations 5
nonePBiCGStab:  Solving for Uy, Initial residual = 0.0404788, Final residual = 0.0127258, No Iterations 5
nonePBiCGStab:  Solving for Uz, Initial residual = 0.11258, Final residual = 0.0338256, No Iterations 5
linear solve U 495
[OGL LOG] init_host_sparsity_pattern : 241 ms
[OGL LOG] matrix not stored update host matrix
[OGL LOG] update_host_mtx : 130 ms
[OGL LOG] matrix is not yet sorted, sorting host matrix
[OGL LOG] sort_host_mtx_sparsity_pattern : 180 ms
[OGL LOG] sort_host_mtx : 90 ms
[OGL LOG] init_preconditioner : 0 ms
[OGL LOG] solve : 380 ms
nonecudaGKOCG:  Solving for p, Initial residual = 0.665898, Final residual = 9.97972e-05, No Iterations 341
linear solve p 1077
time step continuity errors : sum local = 6.93671e-08, global = 1.93569e-20, cumulative = -1.41828e-20
[OGL LOG] init_host_sparsity_pattern : 241 ms
[OGL LOG] matrix not stored update host matrix
[OGL LOG] update_host_mtx : 128 ms
[OGL LOG] matrix is not yet sorted, sorting host matrix
[OGL LOG] sort_host_mtx_sparsity_pattern : 180 ms
[OGL LOG] sort_host_mtx : 91 ms
[OGL LOG] init_preconditioner : 0 ms
[OGL LOG] solve : 367 ms
nonecudaGKOCG:  Solving for p, Initial residual = 0.573321, Final residual = 9.54699e-05, No Iterations 330
linear solve p 1063
time step continuity errors : sum local = 6.27214e-08, global = -2.00161e-21, cumulative = -1.61844e-20
ExecutionTime = 42.02 s  ClockTime = 42 s

Time = 0.01

Courant Number mean: 0.12081 max: 0.899112
nonePBiCGStab:  Solving for Ux, Initial residual = 0.0124618, Final residual = 0.00287267, No Iterations 5
nonePBiCGStab:  Solving for Uy, Initial residual = 0.0364127, Final residual = 0.00974486, No Iterations 5
nonePBiCGStab:  Solving for Uz, Initial residual = 0.103736, Final residual = 0.0328503, No Iterations 5
linear solve U 489
[OGL LOG] init_host_sparsity_pattern : 241 ms
[OGL LOG] matrix not stored update host matrix
[OGL LOG] update_host_mtx : 133 ms
[OGL LOG] matrix is not yet sorted, sorting host matrix
[OGL LOG] sort_host_mtx_sparsity_pattern : 179 ms
[OGL LOG] sort_host_mtx : 92 ms
[OGL LOG] init_preconditioner : 0 ms
[OGL LOG] solve : 368 ms
nonecudaGKOCG:  Solving for p, Initial residual = 0.612982, Final residual = 9.53423e-05, No Iterations 331
linear solve p 1072
time step continuity errors : sum local = 6.79532e-08, global = 1.08532e-20, cumulative = -5.33119e-21
[OGL LOG] init_host_sparsity_pattern : 240 ms
[OGL LOG] matrix not stored update host matrix
[OGL LOG] update_host_mtx : 129 ms
[OGL LOG] matrix is not yet sorted, sorting host matrix
[OGL LOG] sort_host_mtx_sparsity_pattern : 180 ms
[OGL LOG] sort_host_mtx : 91 ms
[OGL LOG] init_preconditioner : 0 ms
[OGL LOG] solve : 365 ms
nonecudaGKOCG:  Solving for p, Initial residual = 0.524234, Final residual = 9.77169e-05, No Iterations 328
linear solve p 1060
time step continuity errors : sum local = 6.47961e-08, global = 8.64735e-23, cumulative = -5.24471e-21
ExecutionTime = 45.16 s  ClockTime = 45 s

End

