/*---------------------------------------------------------------------------*\
  =========                 |
  \\      /  F ield         | OpenFOAM: The Open Source CFD Toolbox
   \\    /   O peration     | Website:  https://openfoam.org
    \\  /    A nd           | Version:  8
     \\/     M anipulation  |
\*---------------------------------------------------------------------------*/
Build  : 8-40a5a48f630f
Exec   : icoFoam
Date   : Jul 27 2021
Time   : 21:59:08
Host   : "uc2n481.localdomain"
PID    : 113853
I/O    : uncollated
Case   : /pfs/data5/home/kit/scc/nq7776/code/OBR/lidDrivenCavity3D/Variation_mesh/40/Variation_matrix_solver/CG_BJ_CUDA/base
nProcs : 1
sigFpe : Enabling floating point exception trapping (FOAM_SIGFPE).
fileModificationChecking : Monitoring run-time modified files using timeStampMaster (fileModificationSkew 10)
allowSystemOperations : Allowing user-supplied system call operations

// * * * * * * * * * * * * * * * * * * * * * * * * * * * * * * * * * * * * * //
Create time

Create mesh for time = 0

Reading transportProperties

Reading field p

Reading field U

Reading/calculating face flux field phi


Starting time loop

Time = 0.001

Courant Number mean: 0 max: 0
nonePBiCGStab:  Solving for Ux, Initial residual = 1, Final residual = 0.0197517, No Iterations 5
nonePBiCGStab:  Solving for Uy, Initial residual = 0, Final residual = 0, No Iterations 0
nonePBiCGStab:  Solving for Uz, Initial residual = 0, Final residual = 0, No Iterations 0
linear solve U 15
[OGL LOG] init_host_sparsity_pattern : 17 ms
[OGL LOG] matrix not stored update host matrix
[OGL LOG] update_host_mtx : 8 ms
[OGL LOG] matrix is not yet sorted, compute sorting idxs
[OGL LOG] compute_sort : 486 ms
[OGL LOG] matrix is not yet sorted, sorting host matrix
[OGL LOG] sort_host_mtx_sparsity_pattern : 12 ms
[OGL LOG] sort_host_mtx : 6 ms
[OGL LOG] init_preconditioner : 7 ms
 CG create  precond 
[OGL LOG] solve : 39 ms
BJcudaGKOCG:  Solving for p, Initial residual = 1, Final residual = 9.82739e-05, No Iterations 255
linear solve p 1339
time step continuity errors : sum local = 5.28544e-08, global = -2.2531e-20, cumulative = -2.2531e-20
[OGL LOG] init_host_sparsity_pattern : 19 ms
[OGL LOG] matrix not stored update host matrix
[OGL LOG] update_host_mtx : 8 ms
[OGL LOG] matrix is not yet sorted, sorting host matrix
[OGL LOG] sort_host_mtx_sparsity_pattern : 13 ms
[OGL LOG] sort_host_mtx : 6 ms
[OGL LOG] init_preconditioner : 0 ms
 CG create  precond 
[OGL LOG] solve : 36 ms
BJcudaGKOCG:  Solving for p, Initial residual = 0.598233, Final residual = 8.56358e-05, No Iterations 245
linear solve p 89
time step continuity errors : sum local = 6.9175e-08, global = 6.0621e-21, cumulative = -1.64689e-20
ExecutionTime = 1.7 s  ClockTime = 2 s

Time = 0.002

Courant Number mean: 0.0210244 max: 0.237018
nonePBiCGStab:  Solving for Ux, Initial residual = 0.177642, Final residual = 0.00670775, No Iterations 5
nonePBiCGStab:  Solving for Uy, Initial residual = 0.294212, Final residual = 0.00767222, No Iterations 5
nonePBiCGStab:  Solving for Uz, Initial residual = 0.957271, Final residual = 0.0372584, No Iterations 5
linear solve U 27
[OGL LOG] init_host_sparsity_pattern : 16 ms
[OGL LOG] matrix not stored update host matrix
[OGL LOG] update_host_mtx : 8 ms
[OGL LOG] matrix is not yet sorted, sorting host matrix
[OGL LOG] sort_host_mtx_sparsity_pattern : 12 ms
[OGL LOG] sort_host_mtx : 6 ms
[OGL LOG] init_preconditioner : 0 ms
 CG create  precond 
[OGL LOG] solve : 36 ms
BJcudaGKOCG:  Solving for p, Initial residual = 0.457561, Final residual = 8.59133e-05, No Iterations 243
linear solve p 84
time step continuity errors : sum local = 6.83454e-08, global = -1.00723e-20, cumulative = -2.65412e-20
[OGL LOG] init_host_sparsity_pattern : 17 ms
[OGL LOG] matrix not stored update host matrix
[OGL LOG] update_host_mtx : 8 ms
[OGL LOG] matrix is not yet sorted, sorting host matrix
[OGL LOG] sort_host_mtx_sparsity_pattern : 11 ms
[OGL LOG] sort_host_mtx : 6 ms
[OGL LOG] init_preconditioner : 0 ms
 CG create  precond 
[OGL LOG] solve : 36 ms
BJcudaGKOCG:  Solving for p, Initial residual = 0.360886, Final residual = 9.60445e-05, No Iterations 240
linear solve p 83
time step continuity errors : sum local = 7.95292e-08, global = 2.01077e-20, cumulative = -6.43349e-21
ExecutionTime = 1.94 s  ClockTime = 2 s

Time = 0.003

Courant Number mean: 0.0321026 max: 0.305902
nonePBiCGStab:  Solving for Ux, Initial residual = 0.0657763, Final residual = 0.00124122, No Iterations 5
nonePBiCGStab:  Solving for Uy, Initial residual = 0.107439, Final residual = 0.00172171, No Iterations 5
nonePBiCGStab:  Solving for Uz, Initial residual = 0.159353, Final residual = 0.00583215, No Iterations 5
linear solve U 27
[OGL LOG] init_host_sparsity_pattern : 16 ms
[OGL LOG] matrix not stored update host matrix
[OGL LOG] update_host_mtx : 8 ms
[OGL LOG] matrix is not yet sorted, sorting host matrix
[OGL LOG] sort_host_mtx_sparsity_pattern : 11 ms
[OGL LOG] sort_host_mtx : 6 ms
[OGL LOG] init_preconditioner : 0 ms
 CG create  precond 
[OGL LOG] solve : 34 ms
BJcudaGKOCG:  Solving for p, Initial residual = 0.162748, Final residual = 9.52843e-05, No Iterations 230
linear solve p 85
time step continuity errors : sum local = 6.10211e-08, global = 8.06902e-22, cumulative = -5.62659e-21
[OGL LOG] init_host_sparsity_pattern : 17 ms
[OGL LOG] matrix not stored update host matrix
[OGL LOG] update_host_mtx : 8 ms
[OGL LOG] matrix is not yet sorted, sorting host matrix
[OGL LOG] sort_host_mtx_sparsity_pattern : 12 ms
[OGL LOG] sort_host_mtx : 6 ms
[OGL LOG] init_preconditioner : 0 ms
 CG create  precond 
[OGL LOG] solve : 34 ms
BJcudaGKOCG:  Solving for p, Initial residual = 0.127428, Final residual = 7.98728e-05, No Iterations 229
linear solve p 82
time step continuity errors : sum local = 5.09627e-08, global = -1.20476e-20, cumulative = -1.76742e-20
ExecutionTime = 2.16 s  ClockTime = 2 s

Time = 0.004

Courant Number mean: 0.0386764 max: 0.327554
nonePBiCGStab:  Solving for Ux, Initial residual = 0.0387327, Final residual = 0.000519083, No Iterations 5
nonePBiCGStab:  Solving for Uy, Initial residual = 0.067068, Final residual = 0.000634185, No Iterations 5
nonePBiCGStab:  Solving for Uz, Initial residual = 0.1131, Final residual = 0.00269046, No Iterations 5
linear solve U 27
[OGL LOG] init_host_sparsity_pattern : 17 ms
[OGL LOG] matrix not stored update host matrix
[OGL LOG] update_host_mtx : 8 ms
[OGL LOG] matrix is not yet sorted, sorting host matrix
[OGL LOG] sort_host_mtx_sparsity_pattern : 11 ms
[OGL LOG] sort_host_mtx : 6 ms
[OGL LOG] init_preconditioner : 0 ms
 CG create  precond 
[OGL LOG] solve : 33 ms
BJcudaGKOCG:  Solving for p, Initial residual = 0.0844323, Final residual = 9.27957e-05, No Iterations 224
linear solve p 81
time step continuity errors : sum local = 5.75934e-08, global = -5.64751e-22, cumulative = -1.8239e-20
[OGL LOG] init_host_sparsity_pattern : 16 ms
[OGL LOG] matrix not stored update host matrix
[OGL LOG] update_host_mtx : 8 ms
[OGL LOG] matrix is not yet sorted, sorting host matrix
[OGL LOG] sort_host_mtx_sparsity_pattern : 11 ms
[OGL LOG] sort_host_mtx : 6 ms
[OGL LOG] init_preconditioner : 0 ms
 CG create  precond 
[OGL LOG] solve : 33 ms
BJcudaGKOCG:  Solving for p, Initial residual = 0.0650782, Final residual = 9.12456e-05, No Iterations 222
linear solve p 80
time step continuity errors : sum local = 5.73708e-08, global = -1.34771e-20, cumulative = -3.17161e-20
ExecutionTime = 2.39 s  ClockTime = 2 s

Time = 0.005

Courant Number mean: 0.0434825 max: 0.337868
nonePBiCGStab:  Solving for Ux, Initial residual = 0.0269761, Final residual = 0.000295789, No Iterations 5
nonePBiCGStab:  Solving for Uy, Initial residual = 0.0465243, Final residual = 0.000392116, No Iterations 5
nonePBiCGStab:  Solving for Uz, Initial residual = 0.0803597, Final residual = 0.00157663, No Iterations 5
linear solve U 27
[OGL LOG] init_host_sparsity_pattern : 17 ms
[OGL LOG] matrix not stored update host matrix
[OGL LOG] update_host_mtx : 8 ms
[OGL LOG] matrix is not yet sorted, sorting host matrix
[OGL LOG] sort_host_mtx_sparsity_pattern : 12 ms
[OGL LOG] sort_host_mtx : 6 ms
[OGL LOG] init_preconditioner : 0 ms
 CG create  precond 
[OGL LOG] solve : 33 ms
BJcudaGKOCG:  Solving for p, Initial residual = 0.0436123, Final residual = 9.66424e-05, No Iterations 219
linear solve p 82
time step continuity errors : sum local = 5.99091e-08, global = 1.36528e-20, cumulative = -1.80632e-20
[OGL LOG] init_host_sparsity_pattern : 16 ms
[OGL LOG] matrix not stored update host matrix
[OGL LOG] update_host_mtx : 8 ms
[OGL LOG] matrix is not yet sorted, sorting host matrix
[OGL LOG] sort_host_mtx_sparsity_pattern : 11 ms
[OGL LOG] sort_host_mtx : 6 ms
[OGL LOG] init_preconditioner : 0 ms
 CG create  precond 
[OGL LOG] solve : 32 ms
BJcudaGKOCG:  Solving for p, Initial residual = 0.0349756, Final residual = 9.38432e-05, No Iterations 217
linear solve p 80
time step continuity errors : sum local = 5.84057e-08, global = 3.72593e-21, cumulative = -1.43373e-20
ExecutionTime = 2.61 s  ClockTime = 3 s

Time = 0.006

Courant Number mean: 0.0472031 max: 0.344032
nonePBiCGStab:  Solving for Ux, Initial residual = 0.0204443, Final residual = 0.000225052, No Iterations 5
nonePBiCGStab:  Solving for Uy, Initial residual = 0.0355725, Final residual = 0.000192913, No Iterations 5
nonePBiCGStab:  Solving for Uz, Initial residual = 0.0629146, Final residual = 0.000825689, No Iterations 5
linear solve U 27
[OGL LOG] init_host_sparsity_pattern : 16 ms
[OGL LOG] matrix not stored update host matrix
[OGL LOG] update_host_mtx : 8 ms
[OGL LOG] matrix is not yet sorted, sorting host matrix
[OGL LOG] sort_host_mtx_sparsity_pattern : 11 ms
[OGL LOG] sort_host_mtx : 6 ms
[OGL LOG] init_preconditioner : 0 ms
 CG create  precond 
[OGL LOG] solve : 16 ms
BJcudaGKOCG:  Solving for p, Initial residual = 0.0293174, Final residual = 9.79002e-05, No Iterations 106
linear solve p 64
time step continuity errors : sum local = 7.45802e-08, global = -5.54029e-21, cumulative = -1.98776e-20
[OGL LOG] init_host_sparsity_pattern : 16 ms
[OGL LOG] matrix not stored update host matrix
[OGL LOG] update_host_mtx : 8 ms
[OGL LOG] matrix is not yet sorted, sorting host matrix
[OGL LOG] sort_host_mtx_sparsity_pattern : 11 ms
[OGL LOG] sort_host_mtx : 6 ms
[OGL LOG] init_preconditioner : 0 ms
 CG create  precond 
[OGL LOG] solve : 15 ms
BJcudaGKOCG:  Solving for p, Initial residual = 0.0239165, Final residual = 9.79449e-05, No Iterations 101
linear solve p 63
time step continuity errors : sum local = 6.60909e-08, global = 2.97496e-20, cumulative = 9.87196e-21
ExecutionTime = 2.79 s  ClockTime = 3 s

Time = 0.007

Courant Number mean: 0.0502373 max: 0.34826
nonePBiCGStab:  Solving for Ux, Initial residual = 0.0162548, Final residual = 0.000135501, No Iterations 5
nonePBiCGStab:  Solving for Uy, Initial residual = 0.0284603, Final residual = 0.000157784, No Iterations 5
nonePBiCGStab:  Solving for Uz, Initial residual = 0.0518105, Final residual = 0.00078376, No Iterations 5
linear solve U 27
[OGL LOG] init_host_sparsity_pattern : 16 ms
[OGL LOG] matrix not stored update host matrix
[OGL LOG] update_host_mtx : 8 ms
[OGL LOG] matrix is not yet sorted, sorting host matrix
[OGL LOG] sort_host_mtx_sparsity_pattern : 11 ms
[OGL LOG] sort_host_mtx : 6 ms
[OGL LOG] init_preconditioner : 0 ms
 CG create  precond 
[OGL LOG] solve : 18 ms
BJcudaGKOCG:  Solving for p, Initial residual = 0.0228201, Final residual = 9.5888e-05, No Iterations 102
linear solve p 65
time step continuity errors : sum local = 6.95277e-08, global = 1.00422e-20, cumulative = 1.99141e-20
[OGL LOG] init_host_sparsity_pattern : 16 ms
[OGL LOG] matrix not stored update host matrix
[OGL LOG] update_host_mtx : 8 ms
[OGL LOG] matrix is not yet sorted, sorting host matrix
[OGL LOG] sort_host_mtx_sparsity_pattern : 12 ms
[OGL LOG] sort_host_mtx : 6 ms
[OGL LOG] init_preconditioner : 0 ms
 CG create  precond 
[OGL LOG] solve : 15 ms
BJcudaGKOCG:  Solving for p, Initial residual = 0.0190232, Final residual = 9.97862e-05, No Iterations 97
linear solve p 62
time step continuity errors : sum local = 6.78959e-08, global = 5.77333e-21, cumulative = 2.56875e-20
ExecutionTime = 2.99 s  ClockTime = 3 s

Time = 0.008

Courant Number mean: 0.0528073 max: 0.351375
nonePBiCGStab:  Solving for Ux, Initial residual = 0.0133491, Final residual = 9.02562e-05, No Iterations 5
nonePBiCGStab:  Solving for Uy, Initial residual = 0.0235145, Final residual = 0.000100325, No Iterations 5
nonePBiCGStab:  Solving for Uz, Initial residual = 0.0437319, Final residual = 0.000468401, No Iterations 5
linear solve U 27
[OGL LOG] init_host_sparsity_pattern : 17 ms
[OGL LOG] matrix not stored update host matrix
[OGL LOG] update_host_mtx : 8 ms
[OGL LOG] matrix is not yet sorted, sorting host matrix
[OGL LOG] sort_host_mtx_sparsity_pattern : 11 ms
[OGL LOG] sort_host_mtx : 6 ms
[OGL LOG] init_preconditioner : 0 ms
 CG create  precond 
[OGL LOG] solve : 15 ms
BJcudaGKOCG:  Solving for p, Initial residual = 0.0180661, Final residual = 9.98313e-05, No Iterations 100
linear solve p 63
time step continuity errors : sum local = 7.43463e-08, global = 5.5708e-21, cumulative = 3.12583e-20
[OGL LOG] init_host_sparsity_pattern : 16 ms
[OGL LOG] matrix not stored update host matrix
[OGL LOG] update_host_mtx : 8 ms
[OGL LOG] matrix is not yet sorted, sorting host matrix
[OGL LOG] sort_host_mtx_sparsity_pattern : 11 ms
[OGL LOG] sort_host_mtx : 6 ms
[OGL LOG] init_preconditioner : 0 ms
 CG create  precond 
[OGL LOG] solve : 14 ms
BJcudaGKOCG:  Solving for p, Initial residual = 0.0152184, Final residual = 9.55672e-05, No Iterations 95
linear solve p 62
time step continuity errors : sum local = 6.709e-08, global = 1.50082e-20, cumulative = 4.62665e-20
ExecutionTime = 3.18 s  ClockTime = 3 s

Time = 0.009

Courant Number mean: 0.0549945 max: 0.353787
nonePBiCGStab:  Solving for Ux, Initial residual = 0.0112082, Final residual = 6.76953e-05, No Iterations 5
nonePBiCGStab:  Solving for Uy, Initial residual = 0.0198647, Final residual = 8.25044e-05, No Iterations 5
nonePBiCGStab:  Solving for Uz, Initial residual = 0.0375701, Final residual = 0.000424543, No Iterations 5
linear solve U 27
[OGL LOG] init_host_sparsity_pattern : 17 ms
[OGL LOG] matrix not stored update host matrix
[OGL LOG] update_host_mtx : 8 ms
[OGL LOG] matrix is not yet sorted, sorting host matrix
[OGL LOG] sort_host_mtx_sparsity_pattern : 11 ms
[OGL LOG] sort_host_mtx : 6 ms
[OGL LOG] init_preconditioner : 0 ms
 CG create  precond 
[OGL LOG] solve : 14 ms
BJcudaGKOCG:  Solving for p, Initial residual = 0.0151741, Final residual = 9.91618e-05, No Iterations 96
linear solve p 62
time step continuity errors : sum local = 7.33596e-08, global = -2.60763e-20, cumulative = 2.01902e-20
[OGL LOG] init_host_sparsity_pattern : 17 ms
[OGL LOG] matrix not stored update host matrix
[OGL LOG] update_host_mtx : 8 ms
[OGL LOG] matrix is not yet sorted, sorting host matrix
[OGL LOG] sort_host_mtx_sparsity_pattern : 11 ms
[OGL LOG] sort_host_mtx : 6 ms
[OGL LOG] init_preconditioner : 0 ms
 CG create  precond 
[OGL LOG] solve : 14 ms
BJcudaGKOCG:  Solving for p, Initial residual = 0.0128417, Final residual = 9.48653e-05, No Iterations 93
linear solve p 62
time step continuity errors : sum local = 6.74972e-08, global = 1.15832e-20, cumulative = 3.17734e-20
ExecutionTime = 3.36 s  ClockTime = 3 s

Time = 0.01

Courant Number mean: 0.0568767 max: 0.355714
nonePBiCGStab:  Solving for Ux, Initial residual = 0.0095649, Final residual = 4.57766e-05, No Iterations 5
nonePBiCGStab:  Solving for Uy, Initial residual = 0.0170663, Final residual = 5.9484e-05, No Iterations 5
nonePBiCGStab:  Solving for Uz, Initial residual = 0.0327021, Final residual = 0.000271657, No Iterations 5
linear solve U 27
[OGL LOG] init_host_sparsity_pattern : 17 ms
[OGL LOG] matrix not stored update host matrix
[OGL LOG] update_host_mtx : 8 ms
[OGL LOG] matrix is not yet sorted, sorting host matrix
[OGL LOG] sort_host_mtx_sparsity_pattern : 11 ms
[OGL LOG] sort_host_mtx : 6 ms
[OGL LOG] init_preconditioner : 0 ms
 CG create  precond 
[OGL LOG] solve : 14 ms
BJcudaGKOCG:  Solving for p, Initial residual = 0.0129134, Final residual = 9.65089e-05, No Iterations 94
linear solve p 62
time step continuity errors : sum local = 7.25618e-08, global = 7.32045e-21, cumulative = 3.90938e-20
[OGL LOG] init_host_sparsity_pattern : 16 ms
[OGL LOG] matrix not stored update host matrix
[OGL LOG] update_host_mtx : 8 ms
[OGL LOG] matrix is not yet sorted, sorting host matrix
[OGL LOG] sort_host_mtx_sparsity_pattern : 12 ms
[OGL LOG] sort_host_mtx : 6 ms
[OGL LOG] init_preconditioner : 0 ms
 CG create  precond 
[OGL LOG] solve : 14 ms
BJcudaGKOCG:  Solving for p, Initial residual = 0.0109671, Final residual = 9.89862e-05, No Iterations 92
linear solve p 62
time step continuity errors : sum local = 7.11437e-08, global = -2.64465e-20, cumulative = 1.26473e-20
ExecutionTime = 3.55 s  ClockTime = 4 s

End

