/*---------------------------------------------------------------------------*\
  =========                 |
  \\      /  F ield         | OpenFOAM: The Open Source CFD Toolbox
   \\    /   O peration     | Website:  https://openfoam.org
    \\  /    A nd           | Version:  8
     \\/     M anipulation  |
\*---------------------------------------------------------------------------*/
Build  : 8-40a5a48f630f
Exec   : icoFoam
Date   : Jul 28 2021
Time   : 01:41:40
Host   : "uc2n476.localdomain"
PID    : 1914563
I/O    : uncollated
Case   : /pfs/data5/home/kit/scc/nq7776/code/OBR/lidDrivenCavity3D/Variation_mesh/15/Variation_matrix_solver/CG_NoPrecond_Serial/base
nProcs : 1
sigFpe : Enabling floating point exception trapping (FOAM_SIGFPE).
fileModificationChecking : Monitoring run-time modified files using timeStampMaster (fileModificationSkew 10)
allowSystemOperations : Allowing user-supplied system call operations

// * * * * * * * * * * * * * * * * * * * * * * * * * * * * * * * * * * * * * //
Create time

Create mesh for time = 0

Reading transportProperties

Reading field p

Reading field U

Reading/calculating face flux field phi


Starting time loop

Time = 0.001

Courant Number mean: 0 max: 0
nonePBiCGStab:  Solving for Ux, Initial residual = 1, Final residual = 7.02612e-05, No Iterations 5
nonePBiCGStab:  Solving for Uy, Initial residual = 0, Final residual = 0, No Iterations 0
nonePBiCGStab:  Solving for Uz, Initial residual = 0, Final residual = 0, No Iterations 0
linear solve U 0
nonePCG:  Solving for p, Initial residual = 1, Final residual = 7.85787e-05, No Iterations 111
linear solve p 3
time step continuity errors : sum local = 3.29838e-08, global = 1.54497e-21, cumulative = 1.54497e-21
nonePCG:  Solving for p, Initial residual = 0.316788, Final residual = 9.20608e-05, No Iterations 105
linear solve p 3
time step continuity errors : sum local = 6.76732e-08, global = -1.19827e-20, cumulative = -1.04377e-20
ExecutionTime = 0.06 s  ClockTime = 0 s

Time = 0.002

Courant Number mean: 0.00559436 max: 0.0357002
nonePBiCGStab:  Solving for Ux, Initial residual = 0.242392, Final residual = 1.25093e-05, No Iterations 5
nonePBiCGStab:  Solving for Uy, Initial residual = 0.296212, Final residual = 8.5215e-06, No Iterations 5
nonePBiCGStab:  Solving for Uz, Initial residual = 0.685395, Final residual = 3.69566e-05, No Iterations 5
linear solve U 1
nonePCG:  Solving for p, Initial residual = 0.156981, Final residual = 8.62419e-05, No Iterations 102
linear solve p 3
time step continuity errors : sum local = 6.18779e-08, global = -2.14232e-20, cumulative = -3.18609e-20
nonePCG:  Solving for p, Initial residual = 0.0605666, Final residual = 7.82873e-05, No Iterations 97
linear solve p 2
time step continuity errors : sum local = 6.10576e-08, global = -5.75014e-21, cumulative = -3.7611e-20
ExecutionTime = 0.07 s  ClockTime = 0 s

Time = 0.003

Courant Number mean: 0.00940316 max: 0.0587296
nonePBiCGStab:  Solving for Ux, Initial residual = 0.117973, Final residual = 4.35382e-06, No Iterations 5
nonePBiCGStab:  Solving for Uy, Initial residual = 0.148718, Final residual = 3.24272e-06, No Iterations 5
nonePBiCGStab:  Solving for Uz, Initial residual = 0.318987, Final residual = 9.70184e-06, No Iterations 5
linear solve U 1
nonePCG:  Solving for p, Initial residual = 0.0758659, Final residual = 7.71685e-05, No Iterations 99
linear solve p 2
time step continuity errors : sum local = 6.19293e-08, global = -2.19689e-21, cumulative = -3.98079e-20
nonePCG:  Solving for p, Initial residual = 0.0340513, Final residual = 9.20824e-05, No Iterations 95
linear solve p 2
time step continuity errors : sum local = 7.71974e-08, global = -1.97179e-20, cumulative = -5.95258e-20
ExecutionTime = 0.08 s  ClockTime = 0 s

Time = 0.004

Courant Number mean: 0.0121905 max: 0.0737268
nonePBiCGStab:  Solving for Ux, Initial residual = 0.0723349, Final residual = 2.50589e-06, No Iterations 5
nonePBiCGStab:  Solving for Uy, Initial residual = 0.091659, Final residual = 1.32832e-06, No Iterations 5
nonePBiCGStab:  Solving for Uz, Initial residual = 0.182385, Final residual = 4.76272e-06, No Iterations 5
linear solve U 1
nonePCG:  Solving for p, Initial residual = 0.049185, Final residual = 7.33791e-05, No Iterations 98
linear solve p 2
time step continuity errors : sum local = 6.25976e-08, global = -3.50859e-21, cumulative = -6.30344e-20
nonePCG:  Solving for p, Initial residual = 0.0220796, Final residual = 9.67677e-05, No Iterations 94
linear solve p 2
time step continuity errors : sum local = 8.46792e-08, global = -6.83758e-21, cumulative = -6.9872e-20
ExecutionTime = 0.09 s  ClockTime = 0 s

Time = 0.005

Courant Number mean: 0.014306 max: 0.083805
nonePBiCGStab:  Solving for Ux, Initial residual = 0.048564, Final residual = 1.20681e-06, No Iterations 5
nonePBiCGStab:  Solving for Uy, Initial residual = 0.0627382, Final residual = 5.39949e-07, No Iterations 5
nonePBiCGStab:  Solving for Uz, Initial residual = 0.129721, Final residual = 3.01162e-06, No Iterations 5
linear solve U 1
nonePCG:  Solving for p, Initial residual = 0.035925, Final residual = 8.80736e-05, No Iterations 97
linear solve p 2
time step continuity errors : sum local = 7.80954e-08, global = 5.23678e-21, cumulative = -6.46352e-20
nonePCG:  Solving for p, Initial residual = 0.0152348, Final residual = 9.83452e-05, No Iterations 93
linear solve p 2
time step continuity errors : sum local = 8.87607e-08, global = -7.46582e-21, cumulative = -7.21011e-20
ExecutionTime = 0.1 s  ClockTime = 0 s

Time = 0.006

Courant Number mean: 0.0159483 max: 0.0908032
nonePBiCGStab:  Solving for Ux, Initial residual = 0.0353493, Final residual = 9.43891e-07, No Iterations 5
nonePBiCGStab:  Solving for Uy, Initial residual = 0.0460981, Final residual = 5.18321e-07, No Iterations 5
nonePBiCGStab:  Solving for Uz, Initial residual = 0.0994268, Final residual = 1.68946e-06, No Iterations 5
linear solve U 1
nonePCG:  Solving for p, Initial residual = 0.0288193, Final residual = 7.81508e-05, No Iterations 97
linear solve p 2
time step continuity errors : sum local = 7.15873e-08, global = -5.48783e-21, cumulative = -7.75889e-20
nonePCG:  Solving for p, Initial residual = 0.0110065, Final residual = 9.51197e-05, No Iterations 92
linear solve p 2
time step continuity errors : sum local = 8.85081e-08, global = -1.89709e-21, cumulative = -7.9486e-20
ExecutionTime = 0.1 s  ClockTime = 0 s

Time = 0.007

Courant Number mean: 0.0172718 max: 0.0958251
nonePBiCGStab:  Solving for Ux, Initial residual = 0.0271631, Final residual = 4.70437e-07, No Iterations 5
nonePBiCGStab:  Solving for Uy, Initial residual = 0.0356269, Final residual = 9.44428e-07, No Iterations 4
nonePBiCGStab:  Solving for Uz, Initial residual = 0.0794176, Final residual = 1.27742e-06, No Iterations 5
linear solve U 1
nonePCG:  Solving for p, Initial residual = 0.0217453, Final residual = 9.51281e-05, No Iterations 96
linear solve p 2
time step continuity errors : sum local = 8.93089e-08, global = 1.25102e-20, cumulative = -6.69758e-20
nonePCG:  Solving for p, Initial residual = 0.00859943, Final residual = 9.87158e-05, No Iterations 40
linear solve p 1
time step continuity errors : sum local = 1.1934e-07, global = -6.49926e-21, cumulative = -7.34751e-20
ExecutionTime = 0.11 s  ClockTime = 0 s

Time = 0.008

Courant Number mean: 0.0183553 max: 0.0995502
nonePBiCGStab:  Solving for Ux, Initial residual = 0.0216524, Final residual = 2.97266e-07, No Iterations 5
nonePBiCGStab:  Solving for Uy, Initial residual = 0.0286207, Final residual = 6.97861e-07, No Iterations 4
nonePBiCGStab:  Solving for Uz, Initial residual = 0.064944, Final residual = 1.10021e-06, No Iterations 5
linear solve U 1
nonePCG:  Solving for p, Initial residual = 0.0163415, Final residual = 8.31004e-05, No Iterations 44
linear solve p 1
time step continuity errors : sum local = 8.13699e-08, global = -1.80038e-20, cumulative = -9.14789e-20
nonePCG:  Solving for p, Initial residual = 0.00665249, Final residual = 9.7598e-05, No Iterations 38
linear solve p 1
time step continuity errors : sum local = 1.08717e-07, global = -2.95593e-21, cumulative = -9.44348e-20
ExecutionTime = 0.12 s  ClockTime = 0 s

Time = 0.009

Courant Number mean: 0.0192552 max: 0.102395
nonePBiCGStab:  Solving for Ux, Initial residual = 0.0176813, Final residual = 6.8545e-07, No Iterations 4
nonePBiCGStab:  Solving for Uy, Initial residual = 0.0236227, Final residual = 5.51117e-07, No Iterations 4
nonePBiCGStab:  Solving for Uz, Initial residual = 0.0544352, Final residual = 7.41419e-07, No Iterations 5
linear solve U 1
nonePCG:  Solving for p, Initial residual = 0.0132666, Final residual = 7.82738e-05, No Iterations 43
linear solve p 1
time step continuity errors : sum local = 9.23003e-08, global = -1.77177e-20, cumulative = -1.12152e-19
nonePCG:  Solving for p, Initial residual = 0.00540099, Final residual = 9.84787e-05, No Iterations 36
linear solve p 1
time step continuity errors : sum local = 1.00198e-07, global = 3.38317e-22, cumulative = -1.11814e-19
ExecutionTime = 0.12 s  ClockTime = 0 s

Time = 0.01

Courant Number mean: 0.0200142 max: 0.104627
nonePBiCGStab:  Solving for Ux, Initial residual = 0.01473, Final residual = 4.83675e-07, No Iterations 4
nonePBiCGStab:  Solving for Uy, Initial residual = 0.0199285, Final residual = 8.70148e-07, No Iterations 4
nonePBiCGStab:  Solving for Uz, Initial residual = 0.0463303, Final residual = 5.74391e-07, No Iterations 5
linear solve U 1
nonePCG:  Solving for p, Initial residual = 0.0111404, Final residual = 8.13059e-05, No Iterations 43
linear solve p 1
time step continuity errors : sum local = 1.11185e-07, global = 2.23556e-20, cumulative = -8.94586e-20
nonePCG:  Solving for p, Initial residual = 0.00449562, Final residual = 9.10239e-05, No Iterations 36
linear solve p 1
time step continuity errors : sum local = 1.10678e-07, global = -4.42782e-20, cumulative = -1.33737e-19
ExecutionTime = 0.13 s  ClockTime = 0 s

End

