/*---------------------------------------------------------------------------*\
  =========                 |
  \\      /  F ield         | OpenFOAM: The Open Source CFD Toolbox
   \\    /   O peration     | Website:  https://openfoam.org
    \\  /    A nd           | Version:  8
     \\/     M anipulation  |
\*---------------------------------------------------------------------------*/
Build  : 8-40a5a48f630f
Exec   : icoFoam
Date   : Jul 28 2021
Time   : 01:57:23
Host   : "uc2n550.localdomain"
PID    : 1019461
I/O    : uncollated
Case   : /pfs/data5/home/kit/scc/nq7776/code/OBR/lidDrivenCavity3D/Variation_mesh/40/Variation_matrix_solver/BiCGStab_BJ_OMP/base
nProcs : 1
sigFpe : Enabling floating point exception trapping (FOAM_SIGFPE).
fileModificationChecking : Monitoring run-time modified files using timeStampMaster (fileModificationSkew 10)
allowSystemOperations : Allowing user-supplied system call operations

// * * * * * * * * * * * * * * * * * * * * * * * * * * * * * * * * * * * * * //
Create time

Create mesh for time = 0

Reading transportProperties

Reading field p

Reading field U

Reading/calculating face flux field phi


Starting time loop

Time = 0.001

Courant Number mean: 0 max: 0
nonePBiCGStab:  Solving for Ux, Initial residual = 1, Final residual = 0.0197517, No Iterations 5
nonePBiCGStab:  Solving for Uy, Initial residual = 0, Final residual = 0, No Iterations 0
nonePBiCGStab:  Solving for Uz, Initial residual = 0, Final residual = 0, No Iterations 0
linear solve U 14
[OGL LOG] init_host_sparsity_pattern : 18 ms
[OGL LOG] matrix not stored update host matrix
[OGL LOG] update_host_mtx : 9 ms
[OGL LOG] matrix is not yet sorted, compute sorting idxs
[OGL LOG] compute_sort : 481 ms
[OGL LOG] matrix is not yet sorted, sorting host matrix
[OGL LOG] sort_host_mtx_sparsity_pattern : 12 ms
[OGL LOG] sort_host_mtx : 7 ms
[OGL LOG] init_preconditioner : 5 ms
[OGL LOG] solve : 692 ms
BJompGKOBiCGStab:  Solving for p, Initial residual = 1, Final residual = 8.62669e-05, No Iterations 202
linear solve p 1241
time step continuity errors : sum local = 3.48439e-07, global = -2.36218e-20, cumulative = -2.36218e-20
[OGL LOG] init_host_sparsity_pattern : 18 ms
[OGL LOG] matrix not stored update host matrix
[OGL LOG] update_host_mtx : 9 ms
[OGL LOG] matrix is not yet sorted, sorting host matrix
[OGL LOG] sort_host_mtx_sparsity_pattern : 12 ms
[OGL LOG] sort_host_mtx : 6 ms
[OGL LOG] init_preconditioner : 0 ms
[OGL LOG] solve : 694 ms
BJompGKOBiCGStab:  Solving for p, Initial residual = 0.598907, Final residual = 7.79611e-05, No Iterations 203
linear solve p 750
time step continuity errors : sum local = 1.25597e-05, global = 8.26043e-22, cumulative = -2.27958e-20
ExecutionTime = 6.48 s  ClockTime = 2 s

Time = 0.002

Courant Number mean: 0.0210341 max: 0.237022
nonePBiCGStab:  Solving for Ux, Initial residual = 0.177459, Final residual = 0.00679144, No Iterations 5
nonePBiCGStab:  Solving for Uy, Initial residual = 0.294498, Final residual = 0.00848209, No Iterations 5
nonePBiCGStab:  Solving for Uz, Initial residual = 0.836038, Final residual = 0.040731, No Iterations 5
linear solve U 27
[OGL LOG] init_host_sparsity_pattern : 17 ms
[OGL LOG] matrix not stored update host matrix
[OGL LOG] update_host_mtx : 9 ms
[OGL LOG] matrix is not yet sorted, sorting host matrix
[OGL LOG] sort_host_mtx_sparsity_pattern : 13 ms
[OGL LOG] sort_host_mtx : 7 ms
[OGL LOG] init_preconditioner : 0 ms
[OGL LOG] solve : 687 ms
BJompGKOBiCGStab:  Solving for p, Initial residual = 0.465336, Final residual = 8.47889e-05, No Iterations 204
linear solve p 743
time step continuity errors : sum local = 6.56184e-07, global = -1.57785e-20, cumulative = -3.85742e-20
[OGL LOG] init_host_sparsity_pattern : 17 ms
[OGL LOG] matrix not stored update host matrix
[OGL LOG] update_host_mtx : 9 ms
[OGL LOG] matrix is not yet sorted, sorting host matrix
[OGL LOG] sort_host_mtx_sparsity_pattern : 12 ms
[OGL LOG] sort_host_mtx : 6 ms
[OGL LOG] init_preconditioner : 0 ms
[OGL LOG] solve : 724 ms
BJompGKOBiCGStab:  Solving for p, Initial residual = 0.363523, Final residual = 9.71485e-05, No Iterations 215
linear solve p 778
time step continuity errors : sum local = 1.09218e-06, global = 7.14459e-21, cumulative = -3.14296e-20
ExecutionTime = 12.32 s  ClockTime = 4 s

Time = 0.003

Courant Number mean: 0.0320989 max: 0.30588
nonePBiCGStab:  Solving for Ux, Initial residual = 0.0659831, Final residual = 0.00158106, No Iterations 5
nonePBiCGStab:  Solving for Uy, Initial residual = 0.107629, Final residual = 0.00197493, No Iterations 5
nonePBiCGStab:  Solving for Uz, Initial residual = 0.190587, Final residual = 0.0108714, No Iterations 5
linear solve U 27
[OGL LOG] init_host_sparsity_pattern : 17 ms
[OGL LOG] matrix not stored update host matrix
[OGL LOG] update_host_mtx : 9 ms
[OGL LOG] matrix is not yet sorted, sorting host matrix
[OGL LOG] sort_host_mtx_sparsity_pattern : 12 ms
[OGL LOG] sort_host_mtx : 6 ms
[OGL LOG] init_preconditioner : 0 ms
[OGL LOG] solve : 594 ms
BJompGKOBiCGStab:  Solving for p, Initial residual = 0.166938, Final residual = 9.99285e-05, No Iterations 177
linear solve p 649
time step continuity errors : sum local = 7.73502e-08, global = 1.00941e-20, cumulative = -2.13355e-20
[OGL LOG] init_host_sparsity_pattern : 18 ms
[OGL LOG] matrix not stored update host matrix
[OGL LOG] update_host_mtx : 9 ms
[OGL LOG] matrix is not yet sorted, sorting host matrix
[OGL LOG] sort_host_mtx_sparsity_pattern : 13 ms
[OGL LOG] sort_host_mtx : 6 ms
[OGL LOG] init_preconditioner : 0 ms
[OGL LOG] solve : 587 ms
BJompGKOBiCGStab:  Solving for p, Initial residual = 0.129925, Final residual = 8.87636e-05, No Iterations 174
linear solve p 644
time step continuity errors : sum local = 2.8659e-07, global = 1.90392e-20, cumulative = -2.29632e-21
ExecutionTime = 17.25 s  ClockTime = 5 s

Time = 0.004

Courant Number mean: 0.038662 max: 0.327536
nonePBiCGStab:  Solving for Ux, Initial residual = 0.0387351, Final residual = 0.000694614, No Iterations 5
nonePBiCGStab:  Solving for Uy, Initial residual = 0.0673677, Final residual = 0.000681498, No Iterations 5
nonePBiCGStab:  Solving for Uz, Initial residual = 0.128895, Final residual = 0.00420982, No Iterations 5
linear solve U 27
[OGL LOG] init_host_sparsity_pattern : 17 ms
[OGL LOG] matrix not stored update host matrix
[OGL LOG] update_host_mtx : 9 ms
[OGL LOG] matrix is not yet sorted, sorting host matrix
[OGL LOG] sort_host_mtx_sparsity_pattern : 12 ms
[OGL LOG] sort_host_mtx : 6 ms
[OGL LOG] init_preconditioner : 0 ms
[OGL LOG] solve : 592 ms
BJompGKOBiCGStab:  Solving for p, Initial residual = 0.0866088, Final residual = 9.98717e-05, No Iterations 175
linear solve p 647
time step continuity errors : sum local = 1.94996e-07, global = -1.00959e-20, cumulative = -1.23922e-20
[OGL LOG] init_host_sparsity_pattern : 18 ms
[OGL LOG] matrix not stored update host matrix
[OGL LOG] update_host_mtx : 9 ms
[OGL LOG] matrix is not yet sorted, sorting host matrix
[OGL LOG] sort_host_mtx_sparsity_pattern : 12 ms
[OGL LOG] sort_host_mtx : 6 ms
[OGL LOG] init_preconditioner : 0 ms
[OGL LOG] solve : 596 ms
BJompGKOBiCGStab:  Solving for p, Initial residual = 0.0664536, Final residual = 8.68558e-05, No Iterations 177
linear solve p 652
time step continuity errors : sum local = 9.44019e-08, global = -9.68983e-21, cumulative = -2.20821e-20
ExecutionTime = 22.2 s  ClockTime = 6 s

Time = 0.005

Courant Number mean: 0.0434671 max: 0.337852
nonePBiCGStab:  Solving for Ux, Initial residual = 0.0269462, Final residual = 0.000355097, No Iterations 5
nonePBiCGStab:  Solving for Uy, Initial residual = 0.0467571, Final residual = 0.000524494, No Iterations 5
nonePBiCGStab:  Solving for Uz, Initial residual = 0.0912764, Final residual = 0.00231594, No Iterations 5
linear solve U 27
[OGL LOG] init_host_sparsity_pattern : 17 ms
[OGL LOG] matrix not stored update host matrix
[OGL LOG] update_host_mtx : 9 ms
[OGL LOG] matrix is not yet sorted, sorting host matrix
[OGL LOG] sort_host_mtx_sparsity_pattern : 13 ms
[OGL LOG] sort_host_mtx : 6 ms
[OGL LOG] init_preconditioner : 0 ms
[OGL LOG] solve : 565 ms
BJompGKOBiCGStab:  Solving for p, Initial residual = 0.0445133, Final residual = 9.77207e-05, No Iterations 167
linear solve p 620
time step continuity errors : sum local = 4.2e-07, global = 2.17352e-20, cumulative = -3.46886e-22
[OGL LOG] init_host_sparsity_pattern : 17 ms
[OGL LOG] matrix not stored update host matrix
[OGL LOG] update_host_mtx : 9 ms
[OGL LOG] matrix is not yet sorted, sorting host matrix
[OGL LOG] sort_host_mtx_sparsity_pattern : 12 ms
[OGL LOG] sort_host_mtx : 6 ms
[OGL LOG] init_preconditioner : 0 ms
[OGL LOG] solve : 561 ms
BJompGKOBiCGStab:  Solving for p, Initial residual = 0.0361748, Final residual = 2.8231e-05, No Iterations 166
linear solve p 616
time step continuity errors : sum local = 3.83217e-06, global = -1.38497e-20, cumulative = -1.41966e-20
ExecutionTime = 26.9 s  ClockTime = 8 s

Time = 0.006

Courant Number mean: 0.0471888 max: 0.344014
nonePBiCGStab:  Solving for Ux, Initial residual = 0.020408, Final residual = 0.000346545, No Iterations 5
nonePBiCGStab:  Solving for Uy, Initial residual = 0.0362492, Final residual = 0.000522646, No Iterations 5
nonePBiCGStab:  Solving for Uz, Initial residual = 0.0902617, Final residual = 0.00383707, No Iterations 5
linear solve U 28
[OGL LOG] init_host_sparsity_pattern : 17 ms
[OGL LOG] matrix not stored update host matrix
[OGL LOG] update_host_mtx : 9 ms
[OGL LOG] matrix is not yet sorted, sorting host matrix
[OGL LOG] sort_host_mtx_sparsity_pattern : 12 ms
[OGL LOG] sort_host_mtx : 6 ms
[OGL LOG] init_preconditioner : 0 ms
[OGL LOG] solve : 551 ms
BJompGKOBiCGStab:  Solving for p, Initial residual = 0.037517, Final residual = 9.86617e-05, No Iterations 163
linear solve p 606
time step continuity errors : sum local = 1.02141e-07, global = 2.0109e-21, cumulative = -1.21857e-20
[OGL LOG] init_host_sparsity_pattern : 18 ms
[OGL LOG] matrix not stored update host matrix
[OGL LOG] update_host_mtx : 9 ms
[OGL LOG] matrix is not yet sorted, sorting host matrix
[OGL LOG] sort_host_mtx_sparsity_pattern : 13 ms
[OGL LOG] sort_host_mtx : 6 ms
[OGL LOG] init_preconditioner : 0 ms
[OGL LOG] solve : 486 ms
BJompGKOBiCGStab:  Solving for p, Initial residual = 0.0272669, Final residual = 9.44378e-05, No Iterations 140
linear solve p 543
time step continuity errors : sum local = 3.44207e-07, global = 2.11335e-20, cumulative = 8.94778e-21
ExecutionTime = 31.25 s  ClockTime = 9 s

Time = 0.007

Courant Number mean: 0.0502192 max: 0.348239
nonePBiCGStab:  Solving for Ux, Initial residual = 0.0164334, Final residual = 0.000237967, No Iterations 5
nonePBiCGStab:  Solving for Uy, Initial residual = 0.0285244, Final residual = 0.000402271, No Iterations 5
nonePBiCGStab:  Solving for Uz, Initial residual = 0.0643568, Final residual = 0.00224101, No Iterations 5
linear solve U 27
[OGL LOG] init_host_sparsity_pattern : 17 ms
[OGL LOG] matrix not stored update host matrix
[OGL LOG] update_host_mtx : 9 ms
[OGL LOG] matrix is not yet sorted, sorting host matrix
[OGL LOG] sort_host_mtx_sparsity_pattern : 12 ms
[OGL LOG] sort_host_mtx : 6 ms
[OGL LOG] init_preconditioner : 0 ms
[OGL LOG] solve : 587 ms
BJompGKOBiCGStab:  Solving for p, Initial residual = 0.0251368, Final residual = 9.98308e-05, No Iterations 174
linear solve p 642
time step continuity errors : sum local = 8.06898e-08, global = 1.48977e-21, cumulative = 1.04375e-20
[OGL LOG] init_host_sparsity_pattern : 18 ms
[OGL LOG] matrix not stored update host matrix
[OGL LOG] update_host_mtx : 9 ms
[OGL LOG] matrix is not yet sorted, sorting host matrix
[OGL LOG] sort_host_mtx_sparsity_pattern : 12 ms
[OGL LOG] sort_host_mtx : 6 ms
[OGL LOG] init_preconditioner : 0 ms
[OGL LOG] solve : 463 ms
BJompGKOBiCGStab:  Solving for p, Initial residual = 0.020539, Final residual = 8.0041e-05, No Iterations 137
linear solve p 518
time step continuity errors : sum local = 9.85277e-08, global = 1.92192e-20, cumulative = 2.96568e-20
ExecutionTime = 35.65 s  ClockTime = 10 s

Time = 0.008

Courant Number mean: 0.0527847 max: 0.351351
nonePBiCGStab:  Solving for Ux, Initial residual = 0.0133632, Final residual = 0.000112422, No Iterations 5
nonePBiCGStab:  Solving for Uy, Initial residual = 0.0237379, Final residual = 0.000163479, No Iterations 5
nonePBiCGStab:  Solving for Uz, Initial residual = 0.0507792, Final residual = 0.00130746, No Iterations 5
linear solve U 27
[OGL LOG] init_host_sparsity_pattern : 17 ms
[OGL LOG] matrix not stored update host matrix
[OGL LOG] update_host_mtx : 9 ms
[OGL LOG] matrix is not yet sorted, sorting host matrix
[OGL LOG] sort_host_mtx_sparsity_pattern : 12 ms
[OGL LOG] sort_host_mtx : 6 ms
[OGL LOG] init_preconditioner : 0 ms
[OGL LOG] solve : 456 ms
BJompGKOBiCGStab:  Solving for p, Initial residual = 0.0194206, Final residual = 9.35338e-05, No Iterations 135
linear solve p 510
time step continuity errors : sum local = 4.5701e-07, global = 1.43862e-21, cumulative = 3.10954e-20
[OGL LOG] init_host_sparsity_pattern : 18 ms
[OGL LOG] matrix not stored update host matrix
[OGL LOG] update_host_mtx : 9 ms
[OGL LOG] matrix is not yet sorted, sorting host matrix
[OGL LOG] sort_host_mtx_sparsity_pattern : 12 ms
[OGL LOG] sort_host_mtx : 6 ms
[OGL LOG] init_preconditioner : 0 ms
[OGL LOG] solve : 224 ms
BJompGKOBiCGStab:  Solving for p, Initial residual = 0.0165919, Final residual = 8.91481e-05, No Iterations 66
linear solve p 279
time step continuity errors : sum local = 9.59436e-08, global = -1.74992e-20, cumulative = 1.35962e-20
ExecutionTime = 38.57 s  ClockTime = 11 s

Time = 0.009

Courant Number mean: 0.0549718 max: 0.353769
nonePBiCGStab:  Solving for Ux, Initial residual = 0.0112448, Final residual = 8.52739e-05, No Iterations 5
nonePBiCGStab:  Solving for Uy, Initial residual = 0.0199332, Final residual = 0.000141159, No Iterations 5
nonePBiCGStab:  Solving for Uz, Initial residual = 0.0421382, Final residual = 0.000954251, No Iterations 5
linear solve U 27
[OGL LOG] init_host_sparsity_pattern : 17 ms
[OGL LOG] matrix not stored update host matrix
[OGL LOG] update_host_mtx : 9 ms
[OGL LOG] matrix is not yet sorted, sorting host matrix
[OGL LOG] sort_host_mtx_sparsity_pattern : 12 ms
[OGL LOG] sort_host_mtx : 6 ms
[OGL LOG] init_preconditioner : 0 ms
[OGL LOG] solve : 201 ms
BJompGKOBiCGStab:  Solving for p, Initial residual = 0.0161197, Final residual = 9.87381e-05, No Iterations 59
linear solve p 255
time step continuity errors : sum local = 1.10497e-07, global = 3.10839e-22, cumulative = 1.3907e-20
[OGL LOG] init_host_sparsity_pattern : 17 ms
[OGL LOG] matrix not stored update host matrix
[OGL LOG] update_host_mtx : 9 ms
[OGL LOG] matrix is not yet sorted, sorting host matrix
[OGL LOG] sort_host_mtx_sparsity_pattern : 12 ms
[OGL LOG] sort_host_mtx : 6 ms
[OGL LOG] init_preconditioner : 0 ms
[OGL LOG] solve : 217 ms
BJompGKOBiCGStab:  Solving for p, Initial residual = 0.0134735, Final residual = 8.9612e-05, No Iterations 64
linear solve p 273
time step continuity errors : sum local = 7.21352e-08, global = 3.69222e-20, cumulative = 5.08292e-20
ExecutionTime = 40.45 s  ClockTime = 11 s

Time = 0.01

Courant Number mean: 0.0568548 max: 0.355695
nonePBiCGStab:  Solving for Ux, Initial residual = 0.00951936, Final residual = 5.54153e-05, No Iterations 5
nonePBiCGStab:  Solving for Uy, Initial residual = 0.0172247, Final residual = 8.6636e-05, No Iterations 5
nonePBiCGStab:  Solving for Uz, Initial residual = 0.0341103, Final residual = 0.000446567, No Iterations 5
linear solve U 28
[OGL LOG] init_host_sparsity_pattern : 17 ms
[OGL LOG] matrix not stored update host matrix
[OGL LOG] update_host_mtx : 9 ms
[OGL LOG] matrix is not yet sorted, sorting host matrix
[OGL LOG] sort_host_mtx_sparsity_pattern : 12 ms
[OGL LOG] sort_host_mtx : 6 ms
[OGL LOG] init_preconditioner : 0 ms
[OGL LOG] solve : 210 ms
BJompGKOBiCGStab:  Solving for p, Initial residual = 0.0135227, Final residual = 9.80432e-05, No Iterations 62
linear solve p 265
time step continuity errors : sum local = 1.2418e-07, global = 1.24127e-20, cumulative = 6.3242e-20
[OGL LOG] init_host_sparsity_pattern : 18 ms
[OGL LOG] matrix not stored update host matrix
[OGL LOG] update_host_mtx : 9 ms
[OGL LOG] matrix is not yet sorted, sorting host matrix
[OGL LOG] sort_host_mtx_sparsity_pattern : 12 ms
[OGL LOG] sort_host_mtx : 6 ms
[OGL LOG] init_preconditioner : 0 ms
[OGL LOG] solve : 203 ms
BJompGKOBiCGStab:  Solving for p, Initial residual = 0.0115184, Final residual = 7.21092e-05, No Iterations 60
linear solve p 258
time step continuity errors : sum local = 1.21728e-07, global = 2.80828e-20, cumulative = 9.13248e-20
ExecutionTime = 42.31 s  ClockTime = 12 s

End

