/*---------------------------------------------------------------------------*\
  =========                 |
  \\      /  F ield         | OpenFOAM: The Open Source CFD Toolbox
   \\    /   O peration     | Website:  https://openfoam.org
    \\  /    A nd           | Version:  8
     \\/     M anipulation  |
\*---------------------------------------------------------------------------*/
Build  : 8-40a5a48f630f
Exec   : icoFoam
Date   : Jul 27 2021
Time   : 23:17:00
Host   : "uc2n481.localdomain"
PID    : 185131
I/O    : uncollated
Case   : /pfs/data5/home/kit/scc/nq7776/code/OBR/lidDrivenCavity3D/Variation_mesh/35/Variation_matrix_solver/IR_NoPrecond_CUDA/base
nProcs : 1
sigFpe : Enabling floating point exception trapping (FOAM_SIGFPE).
fileModificationChecking : Monitoring run-time modified files using timeStampMaster (fileModificationSkew 10)
allowSystemOperations : Allowing user-supplied system call operations

// * * * * * * * * * * * * * * * * * * * * * * * * * * * * * * * * * * * * * //
Create time

Create mesh for time = 0

Reading transportProperties

Reading field p

Reading field U

Reading/calculating face flux field phi


Starting time loop

Time = 0.001

Courant Number mean: 0 max: 0
nonePBiCGStab:  Solving for Ux, Initial residual = 1, Final residual = 0.0130944, No Iterations 5
nonePBiCGStab:  Solving for Uy, Initial residual = 0, Final residual = 0, No Iterations 0
nonePBiCGStab:  Solving for Uz, Initial residual = 0, Final residual = 0, No Iterations 0
linear solve U 9
[OGL LOG] init_host_sparsity_pattern : 11 ms
[OGL LOG] matrix not stored update host matrix
[OGL LOG] update_host_mtx : 5 ms
[OGL LOG] matrix is not yet sorted, compute sorting idxs
[OGL LOG] compute_sort : 328 ms
[OGL LOG] matrix is not yet sorted, sorting host matrix
[OGL LOG] sort_host_mtx_sparsity_pattern : 8 ms
[OGL LOG] sort_host_mtx : 4 ms
[OGL LOG] init_preconditioner : 0 ms
[OGL LOG] solve : 43 ms
nonecudaGKOIR:  Solving for p, Initial residual = 1, Final residual = 7.70834e-06, No Iterations 3
linear solve p 1180
time step continuity errors : sum local = 4.16329e-09, global = -5.95123e-21, cumulative = -5.95123e-21
[OGL LOG] init_host_sparsity_pattern : 11 ms
[OGL LOG] matrix not stored update host matrix
[OGL LOG] update_host_mtx : 6 ms
[OGL LOG] matrix is not yet sorted, sorting host matrix
[OGL LOG] sort_host_mtx_sparsity_pattern : 8 ms
[OGL LOG] sort_host_mtx : 4 ms
[OGL LOG] init_preconditioner : 0 ms
[OGL LOG] solve : 43 ms
nonecudaGKOIR:  Solving for p, Initial residual = 0.569136, Final residual = 2.93498e-06, No Iterations 3
linear solve p 77
time step continuity errors : sum local = 2.42332e-09, global = -3.13577e-21, cumulative = -9.08701e-21
ExecutionTime = 1.46 s  ClockTime = 2 s

Time = 0.002

Courant Number mean: 0.018142 max: 0.192022
nonePBiCGStab:  Solving for Ux, Initial residual = 0.185467, Final residual = 0.00420507, No Iterations 5
nonePBiCGStab:  Solving for Uy, Initial residual = 0.282993, Final residual = 0.00418784, No Iterations 5
nonePBiCGStab:  Solving for Uz, Initial residual = 0.945087, Final residual = 0.0214324, No Iterations 5
linear solve U 16
[OGL LOG] init_host_sparsity_pattern : 11 ms
[OGL LOG] matrix not stored update host matrix
[OGL LOG] update_host_mtx : 5 ms
[OGL LOG] matrix is not yet sorted, sorting host matrix
[OGL LOG] sort_host_mtx_sparsity_pattern : 8 ms
[OGL LOG] sort_host_mtx : 4 ms
[OGL LOG] init_preconditioner : 0 ms
[OGL LOG] solve : 43 ms
nonecudaGKOIR:  Solving for p, Initial residual = 0.407306, Final residual = 1.36253e-06, No Iterations 3
linear solve p 76
time step continuity errors : sum local = 1.0785e-09, global = 4.929e-21, cumulative = -4.15801e-21
[OGL LOG] init_host_sparsity_pattern : 11 ms
[OGL LOG] matrix not stored update host matrix
[OGL LOG] update_host_mtx : 5 ms
[OGL LOG] matrix is not yet sorted, sorting host matrix
[OGL LOG] sort_host_mtx_sparsity_pattern : 7 ms
[OGL LOG] sort_host_mtx : 4 ms
[OGL LOG] init_preconditioner : 0 ms
[OGL LOG] solve : 33 ms
nonecudaGKOIR:  Solving for p, Initial residual = 0.308066, Final residual = 9.86072e-05, No Iterations 2
linear solve p 65
time step continuity errors : sum local = 8.15566e-08, global = 1.75357e-20, cumulative = 1.33777e-20
ExecutionTime = 1.64 s  ClockTime = 2 s

Time = 0.003

Courant Number mean: 0.0278233 max: 0.255005
nonePBiCGStab:  Solving for Ux, Initial residual = 0.0715843, Final residual = 0.00117049, No Iterations 5
nonePBiCGStab:  Solving for Uy, Initial residual = 0.111042, Final residual = 0.000944388, No Iterations 5
nonePBiCGStab:  Solving for Uz, Initial residual = 0.175327, Final residual = 0.00367888, No Iterations 5
linear solve U 16
[OGL LOG] init_host_sparsity_pattern : 11 ms
[OGL LOG] matrix not stored update host matrix
[OGL LOG] update_host_mtx : 5 ms
[OGL LOG] matrix is not yet sorted, sorting host matrix
[OGL LOG] sort_host_mtx_sparsity_pattern : 11 ms
[OGL LOG] sort_host_mtx : 4 ms
[OGL LOG] init_preconditioner : 0 ms
[OGL LOG] solve : 33 ms
nonecudaGKOIR:  Solving for p, Initial residual = 0.126381, Final residual = 2.94296e-05, No Iterations 2
linear solve p 70
time step continuity errors : sum local = 2.01193e-08, global = 2.22071e-20, cumulative = 3.55848e-20
[OGL LOG] init_host_sparsity_pattern : 11 ms
[OGL LOG] matrix not stored update host matrix
[OGL LOG] update_host_mtx : 5 ms
[OGL LOG] matrix is not yet sorted, sorting host matrix
[OGL LOG] sort_host_mtx_sparsity_pattern : 7 ms
[OGL LOG] sort_host_mtx : 4 ms
[OGL LOG] init_preconditioner : 0 ms
[OGL LOG] solve : 34 ms
nonecudaGKOIR:  Solving for p, Initial residual = 0.09583, Final residual = 1.95402e-05, No Iterations 2
linear solve p 66
time step continuity errors : sum local = 1.34508e-08, global = 7.2209e-21, cumulative = 4.28057e-20
ExecutionTime = 1.81 s  ClockTime = 2 s

Time = 0.004

Courant Number mean: 0.0337396 max: 0.27711
nonePBiCGStab:  Solving for Ux, Initial residual = 0.0418406, Final residual = 0.000265027, No Iterations 5
nonePBiCGStab:  Solving for Uy, Initial residual = 0.0680138, Final residual = 0.00031595, No Iterations 5
nonePBiCGStab:  Solving for Uz, Initial residual = 0.11002, Final residual = 0.00147931, No Iterations 5
linear solve U 17
[OGL LOG] init_host_sparsity_pattern : 11 ms
[OGL LOG] matrix not stored update host matrix
[OGL LOG] update_host_mtx : 5 ms
[OGL LOG] matrix is not yet sorted, sorting host matrix
[OGL LOG] sort_host_mtx_sparsity_pattern : 7 ms
[OGL LOG] sort_host_mtx : 4 ms
[OGL LOG] init_preconditioner : 0 ms
[OGL LOG] solve : 34 ms
nonecudaGKOIR:  Solving for p, Initial residual = 0.0650585, Final residual = 1.6561e-05, No Iterations 2
linear solve p 66
time step continuity errors : sum local = 1.1117e-08, global = -7.70769e-21, cumulative = 3.5098e-20
[OGL LOG] init_host_sparsity_pattern : 11 ms
[OGL LOG] matrix not stored update host matrix
[OGL LOG] update_host_mtx : 5 ms
[OGL LOG] matrix is not yet sorted, sorting host matrix
[OGL LOG] sort_host_mtx_sparsity_pattern : 7 ms
[OGL LOG] sort_host_mtx : 4 ms
[OGL LOG] init_preconditioner : 0 ms
[OGL LOG] solve : 34 ms
nonecudaGKOIR:  Solving for p, Initial residual = 0.0493355, Final residual = 1.03369e-05, No Iterations 2
linear solve p 66
time step continuity errors : sum local = 7.03986e-09, global = -4.69844e-21, cumulative = 3.03995e-20
ExecutionTime = 1.99 s  ClockTime = 2 s

Time = 0.005

Courant Number mean: 0.0379445 max: 0.28775
nonePBiCGStab:  Solving for Ux, Initial residual = 0.0289006, Final residual = 0.000156659, No Iterations 5
nonePBiCGStab:  Solving for Uy, Initial residual = 0.0471473, Final residual = 0.000196067, No Iterations 5
nonePBiCGStab:  Solving for Uz, Initial residual = 0.0793545, Final residual = 0.000789352, No Iterations 5
linear solve U 16
[OGL LOG] init_host_sparsity_pattern : 11 ms
[OGL LOG] matrix not stored update host matrix
[OGL LOG] update_host_mtx : 5 ms
[OGL LOG] matrix is not yet sorted, sorting host matrix
[OGL LOG] sort_host_mtx_sparsity_pattern : 8 ms
[OGL LOG] sort_host_mtx : 4 ms
[OGL LOG] init_preconditioner : 0 ms
[OGL LOG] solve : 34 ms
nonecudaGKOIR:  Solving for p, Initial residual = 0.0380495, Final residual = 7.98109e-06, No Iterations 2
linear solve p 67
time step continuity errors : sum local = 5.41925e-09, global = -1.88154e-20, cumulative = 1.15841e-20
[OGL LOG] init_host_sparsity_pattern : 11 ms
[OGL LOG] matrix not stored update host matrix
[OGL LOG] update_host_mtx : 5 ms
[OGL LOG] matrix is not yet sorted, sorting host matrix
[OGL LOG] sort_host_mtx_sparsity_pattern : 8 ms
[OGL LOG] sort_host_mtx : 4 ms
[OGL LOG] init_preconditioner : 0 ms
[OGL LOG] solve : 34 ms
nonecudaGKOIR:  Solving for p, Initial residual = 0.0296858, Final residual = 5.20675e-06, No Iterations 2
linear solve p 67
time step continuity errors : sum local = 3.55668e-09, global = 1.39911e-20, cumulative = 2.55752e-20
ExecutionTime = 2.16 s  ClockTime = 2 s

Time = 0.006

Courant Number mean: 0.0412147 max: 0.294042
nonePBiCGStab:  Solving for Ux, Initial residual = 0.0217913, Final residual = 8.38145e-05, No Iterations 5
nonePBiCGStab:  Solving for Uy, Initial residual = 0.0358799, Final residual = 0.000113336, No Iterations 5
nonePBiCGStab:  Solving for Uz, Initial residual = 0.0628287, Final residual = 0.000447908, No Iterations 5
linear solve U 16
[OGL LOG] init_host_sparsity_pattern : 11 ms
[OGL LOG] matrix not stored update host matrix
[OGL LOG] update_host_mtx : 5 ms
[OGL LOG] matrix is not yet sorted, sorting host matrix
[OGL LOG] sort_host_mtx_sparsity_pattern : 8 ms
[OGL LOG] sort_host_mtx : 4 ms
[OGL LOG] init_preconditioner : 0 ms
[OGL LOG] solve : 34 ms
nonecudaGKOIR:  Solving for p, Initial residual = 0.0265172, Final residual = 5.91594e-06, No Iterations 2
linear solve p 67
time step continuity errors : sum local = 4.04766e-09, global = 2.25474e-20, cumulative = 4.81226e-20
[OGL LOG] init_host_sparsity_pattern : 11 ms
[OGL LOG] matrix not stored update host matrix
[OGL LOG] update_host_mtx : 5 ms
[OGL LOG] matrix is not yet sorted, sorting host matrix
[OGL LOG] sort_host_mtx_sparsity_pattern : 7 ms
[OGL LOG] sort_host_mtx : 4 ms
[OGL LOG] init_preconditioner : 0 ms
[OGL LOG] solve : 35 ms
nonecudaGKOIR:  Solving for p, Initial residual = 0.0209879, Final residual = 3.79724e-06, No Iterations 2
linear solve p 67
time step continuity errors : sum local = 2.61088e-09, global = -2.96525e-20, cumulative = 1.847e-20
ExecutionTime = 2.34 s  ClockTime = 3 s

Time = 0.007

Courant Number mean: 0.0439038 max: 0.298309
nonePBiCGStab:  Solving for Ux, Initial residual = 0.017296, Final residual = 5.22943e-05, No Iterations 5
nonePBiCGStab:  Solving for Uy, Initial residual = 0.0286515, Final residual = 7.42427e-05, No Iterations 5
nonePBiCGStab:  Solving for Uz, Initial residual = 0.051849, Final residual = 0.000287917, No Iterations 5
linear solve U 17
[OGL LOG] init_host_sparsity_pattern : 11 ms
[OGL LOG] matrix not stored update host matrix
[OGL LOG] update_host_mtx : 5 ms
[OGL LOG] matrix is not yet sorted, sorting host matrix
[OGL LOG] sort_host_mtx_sparsity_pattern : 7 ms
[OGL LOG] sort_host_mtx : 4 ms
[OGL LOG] init_preconditioner : 0 ms
[OGL LOG] solve : 34 ms
nonecudaGKOIR:  Solving for p, Initial residual = 0.0208749, Final residual = 3.76006e-06, No Iterations 2
linear solve p 67
time step continuity errors : sum local = 2.59035e-09, global = 3.15848e-20, cumulative = 5.00549e-20
[OGL LOG] init_host_sparsity_pattern : 11 ms
[OGL LOG] matrix not stored update host matrix
[OGL LOG] update_host_mtx : 5 ms
[OGL LOG] matrix is not yet sorted, sorting host matrix
[OGL LOG] sort_host_mtx_sparsity_pattern : 8 ms
[OGL LOG] sort_host_mtx : 4 ms
[OGL LOG] init_preconditioner : 0 ms
[OGL LOG] solve : 35 ms
nonecudaGKOIR:  Solving for p, Initial residual = 0.0167158, Final residual = 3.08404e-06, No Iterations 2
linear solve p 68
time step continuity errors : sum local = 2.13126e-09, global = -2.79531e-20, cumulative = 2.21017e-20
ExecutionTime = 2.52 s  ClockTime = 3 s

Time = 0.008

Courant Number mean: 0.0461407 max: 0.301435
nonePBiCGStab:  Solving for Ux, Initial residual = 0.0141611, Final residual = 3.84955e-05, No Iterations 5
nonePBiCGStab:  Solving for Uy, Initial residual = 0.0236447, Final residual = 4.99806e-05, No Iterations 5
nonePBiCGStab:  Solving for Uz, Initial residual = 0.0438477, Final residual = 0.000202303, No Iterations 5
linear solve U 16
[OGL LOG] init_host_sparsity_pattern : 11 ms
[OGL LOG] matrix not stored update host matrix
[OGL LOG] update_host_mtx : 5 ms
[OGL LOG] matrix is not yet sorted, sorting host matrix
[OGL LOG] sort_host_mtx_sparsity_pattern : 10 ms
[OGL LOG] sort_host_mtx : 4 ms
[OGL LOG] init_preconditioner : 0 ms
[OGL LOG] solve : 35 ms
nonecudaGKOIR:  Solving for p, Initial residual = 0.0168092, Final residual = 3.13499e-06, No Iterations 2
linear solve p 70
time step continuity errors : sum local = 2.17027e-09, global = 9.09231e-21, cumulative = 3.11941e-20
[OGL LOG] init_host_sparsity_pattern : 11 ms
[OGL LOG] matrix not stored update host matrix
[OGL LOG] update_host_mtx : 5 ms
[OGL LOG] matrix is not yet sorted, sorting host matrix
[OGL LOG] sort_host_mtx_sparsity_pattern : 8 ms
[OGL LOG] sort_host_mtx : 4 ms
[OGL LOG] init_preconditioner : 0 ms
[OGL LOG] solve : 35 ms
nonecudaGKOIR:  Solving for p, Initial residual = 0.0135342, Final residual = 1.98631e-06, No Iterations 2
linear solve p 68
time step continuity errors : sum local = 1.37885e-09, global = -7.90622e-21, cumulative = 2.32878e-20
ExecutionTime = 2.69 s  ClockTime = 3 s

Time = 0.009

Courant Number mean: 0.0480325 max: 0.303845
nonePBiCGStab:  Solving for Ux, Initial residual = 0.0118806, Final residual = 2.8476e-05, No Iterations 5
nonePBiCGStab:  Solving for Uy, Initial residual = 0.0199614, Final residual = 3.58883e-05, No Iterations 5
nonePBiCGStab:  Solving for Uz, Initial residual = 0.0376994, Final residual = 0.000150195, No Iterations 5
linear solve U 16
[OGL LOG] init_host_sparsity_pattern : 11 ms
[OGL LOG] matrix not stored update host matrix
[OGL LOG] update_host_mtx : 5 ms
[OGL LOG] matrix is not yet sorted, sorting host matrix
[OGL LOG] sort_host_mtx_sparsity_pattern : 7 ms
[OGL LOG] sort_host_mtx : 4 ms
[OGL LOG] init_preconditioner : 0 ms
[OGL LOG] solve : 35 ms
nonecudaGKOIR:  Solving for p, Initial residual = 0.0140589, Final residual = 2.68171e-06, No Iterations 2
linear solve p 67
time step continuity errors : sum local = 1.86422e-09, global = 2.88772e-21, cumulative = 2.61756e-20
[OGL LOG] init_host_sparsity_pattern : 11 ms
[OGL LOG] matrix not stored update host matrix
[OGL LOG] update_host_mtx : 5 ms
[OGL LOG] matrix is not yet sorted, sorting host matrix
[OGL LOG] sort_host_mtx_sparsity_pattern : 7 ms
[OGL LOG] sort_host_mtx : 4 ms
[OGL LOG] init_preconditioner : 0 ms
[OGL LOG] solve : 35 ms
nonecudaGKOIR:  Solving for p, Initial residual = 0.0113741, Final residual = 2.00101e-06, No Iterations 2
linear solve p 68
time step continuity errors : sum local = 1.39398e-09, global = 1.08737e-20, cumulative = 3.70493e-20
ExecutionTime = 2.87 s  ClockTime = 3 s

Time = 0.01

Courant Number mean: 0.0496816 max: 0.305769
nonePBiCGStab:  Solving for Ux, Initial residual = 0.0101268, Final residual = 2.21347e-05, No Iterations 5
nonePBiCGStab:  Solving for Uy, Initial residual = 0.0171406, Final residual = 2.66705e-05, No Iterations 5
nonePBiCGStab:  Solving for Uz, Initial residual = 0.0328314, Final residual = 0.000115895, No Iterations 5
linear solve U 16
[OGL LOG] init_host_sparsity_pattern : 11 ms
[OGL LOG] matrix not stored update host matrix
[OGL LOG] update_host_mtx : 5 ms
[OGL LOG] matrix is not yet sorted, sorting host matrix
[OGL LOG] sort_host_mtx_sparsity_pattern : 8 ms
[OGL LOG] sort_host_mtx : 4 ms
[OGL LOG] init_preconditioner : 0 ms
[OGL LOG] solve : 36 ms
nonecudaGKOIR:  Solving for p, Initial residual = 0.0119435, Final residual = 1.86418e-06, No Iterations 2
linear solve p 69
time step continuity errors : sum local = 1.3004e-09, global = -1.73382e-20, cumulative = 1.97111e-20
[OGL LOG] init_host_sparsity_pattern : 11 ms
[OGL LOG] matrix not stored update host matrix
[OGL LOG] update_host_mtx : 5 ms
[OGL LOG] matrix is not yet sorted, sorting host matrix
[OGL LOG] sort_host_mtx_sparsity_pattern : 8 ms
[OGL LOG] sort_host_mtx : 4 ms
[OGL LOG] init_preconditioner : 0 ms
[OGL LOG] solve : 37 ms
nonecudaGKOIR:  Solving for p, Initial residual = 0.00969601, Final residual = 1.46982e-06, No Iterations 2
linear solve p 70
time step continuity errors : sum local = 1.02714e-09, global = 1.76846e-20, cumulative = 3.73957e-20
ExecutionTime = 3.05 s  ClockTime = 3 s

End

