/*---------------------------------------------------------------------------*\
  =========                 |
  \\      /  F ield         | OpenFOAM: The Open Source CFD Toolbox
   \\    /   O peration     | Website:  https://openfoam.org
    \\  /    A nd           | Version:  8
     \\/     M anipulation  |
\*---------------------------------------------------------------------------*/
Build  : 8-40a5a48f630f
Exec   : icoFoam
Date   : Jul 28 2021
Time   : 03:27:19
Host   : "uc2n462.localdomain"
PID    : 3696612
I/O    : uncollated
Case   : /pfs/data5/home/kit/scc/nq7776/code/OBR/lidDrivenCavity3D/Variation_mesh/70/Variation_matrix_solver/IR_NoPrecond_OMP/base
nProcs : 1
sigFpe : Enabling floating point exception trapping (FOAM_SIGFPE).
fileModificationChecking : Monitoring run-time modified files using timeStampMaster (fileModificationSkew 10)
allowSystemOperations : Allowing user-supplied system call operations

// * * * * * * * * * * * * * * * * * * * * * * * * * * * * * * * * * * * * * //
Create time

Create mesh for time = 0

Reading transportProperties

Reading field p

Reading field U

Reading/calculating face flux field phi


Starting time loop

Time = 0.001

Courant Number mean: 0 max: 0
nonePBiCGStab:  Solving for Ux, Initial residual = 1, Final residual = 0.0584718, No Iterations 5
nonePBiCGStab:  Solving for Uy, Initial residual = 0, Final residual = 0, No Iterations 0
nonePBiCGStab:  Solving for Uz, Initial residual = 0, Final residual = 0, No Iterations 0
linear solve U 88
[OGL LOG] init_host_sparsity_pattern : 98 ms
[OGL LOG] matrix not stored update host matrix
[OGL LOG] update_host_mtx : 51 ms
[OGL LOG] matrix is not yet sorted, compute sorting idxs
[OGL LOG] compute_sort : 2985 ms
[OGL LOG] matrix is not yet sorted, sorting host matrix
[OGL LOG] sort_host_mtx_sparsity_pattern : 72 ms
[OGL LOG] sort_host_mtx : 43 ms
[OGL LOG] init_preconditioner : 0 ms
[OGL LOG] solve : 1828 ms
noneompGKOIR:  Solving for p, Initial residual = 1, Final residual = 1.32336e-05, No Iterations 3
linear solve p 5172
time step continuity errors : sum local = 6.19735e-09, global = -7.35405e-21, cumulative = -7.35405e-21
[OGL LOG] init_host_sparsity_pattern : 99 ms
[OGL LOG] matrix not stored update host matrix
[OGL LOG] update_host_mtx : 53 ms
[OGL LOG] matrix is not yet sorted, sorting host matrix
[OGL LOG] sort_host_mtx_sparsity_pattern : 82 ms
[OGL LOG] sort_host_mtx : 36 ms
[OGL LOG] init_preconditioner : 0 ms
[OGL LOG] solve : 1837 ms
noneompGKOIR:  Solving for p, Initial residual = 0.681676, Final residual = 6.84325e-06, No Iterations 3
linear solve p 2160
time step continuity errors : sum local = 4.52803e-09, global = 8.60113e-21, cumulative = 1.24708e-21
ExecutionTime = 78.37 s  ClockTime = 9 s

Time = 0.002

Courant Number mean: 0.0344583 max: 0.51472
nonePBiCGStab:  Solving for Ux, Initial residual = 0.148861, Final residual = 0.0242745, No Iterations 5
nonePBiCGStab:  Solving for Uy, Initial residual = 0.378252, Final residual = 0.0558308, No Iterations 5
nonePBiCGStab:  Solving for Uz, Initial residual = 0.981704, Final residual = 0.180081, No Iterations 5
linear solve U 202
[OGL LOG] init_host_sparsity_pattern : 91 ms
[OGL LOG] matrix not stored update host matrix
[OGL LOG] update_host_mtx : 47 ms
[OGL LOG] matrix is not yet sorted, sorting host matrix
[OGL LOG] sort_host_mtx_sparsity_pattern : 70 ms
[OGL LOG] sort_host_mtx : 35 ms
[OGL LOG] init_preconditioner : 0 ms
[OGL LOG] solve : 1930 ms
noneompGKOIR:  Solving for p, Initial residual = 0.684974, Final residual = 3.46181e-06, No Iterations 3
linear solve p 2224
time step continuity errors : sum local = 3.02743e-09, global = -9.7329e-21, cumulative = -8.48582e-21
[OGL LOG] init_host_sparsity_pattern : 96 ms
[OGL LOG] matrix not stored update host matrix
[OGL LOG] update_host_mtx : 53 ms
[OGL LOG] matrix is not yet sorted, sorting host matrix
[OGL LOG] sort_host_mtx_sparsity_pattern : 81 ms
[OGL LOG] sort_host_mtx : 36 ms
[OGL LOG] init_preconditioner : 0 ms
[OGL LOG] solve : 1968 ms
noneompGKOIR:  Solving for p, Initial residual = 0.604548, Final residual = 2.703e-06, No Iterations 3
linear solve p 2294
time step continuity errors : sum local = 2.41428e-09, global = 7.14618e-22, cumulative = -7.7712e-21
ExecutionTime = 157.44 s  ClockTime = 14 s

Time = 0.003

Courant Number mean: 0.0532598 max: 0.605937
nonePBiCGStab:  Solving for Ux, Initial residual = 0.0557357, Final residual = 0.0075, No Iterations 5
nonePBiCGStab:  Solving for Uy, Initial residual = 0.135016, Final residual = 0.0233156, No Iterations 5
nonePBiCGStab:  Solving for Uz, Initial residual = 0.427215, Final residual = 0.0744471, No Iterations 5
linear solve U 183
[OGL LOG] init_host_sparsity_pattern : 91 ms
[OGL LOG] matrix not stored update host matrix
[OGL LOG] update_host_mtx : 51 ms
[OGL LOG] matrix is not yet sorted, sorting host matrix
[OGL LOG] sort_host_mtx_sparsity_pattern : 70 ms
[OGL LOG] sort_host_mtx : 34 ms
[OGL LOG] init_preconditioner : 0 ms
[OGL LOG] solve : 2084 ms
noneompGKOIR:  Solving for p, Initial residual = 0.613248, Final residual = 2.38908e-06, No Iterations 3
linear solve p 2409
time step continuity errors : sum local = 1.4258e-09, global = -1.22422e-20, cumulative = -2.00134e-20
[OGL LOG] init_host_sparsity_pattern : 104 ms
[OGL LOG] matrix not stored update host matrix
[OGL LOG] update_host_mtx : 51 ms
[OGL LOG] matrix is not yet sorted, sorting host matrix
[OGL LOG] sort_host_mtx_sparsity_pattern : 76 ms
[OGL LOG] sort_host_mtx : 34 ms
[OGL LOG] init_preconditioner : 0 ms
[OGL LOG] solve : 2099 ms
noneompGKOIR:  Solving for p, Initial residual = 0.546153, Final residual = 2.12292e-06, No Iterations 3
linear solve p 2430
time step continuity errors : sum local = 1.23749e-09, global = 5.27104e-21, cumulative = -1.47424e-20
ExecutionTime = 242.28 s  ClockTime = 19 s

Time = 0.004

Courant Number mean: 0.0638357 max: 0.623647
nonePBiCGStab:  Solving for Ux, Initial residual = 0.033464, Final residual = 0.00389741, No Iterations 5
nonePBiCGStab:  Solving for Uy, Initial residual = 0.0886117, Final residual = 0.0110273, No Iterations 5
nonePBiCGStab:  Solving for Uz, Initial residual = 0.241894, Final residual = 0.0341644, No Iterations 5
linear solve U 173
[OGL LOG] init_host_sparsity_pattern : 90 ms
[OGL LOG] matrix not stored update host matrix
[OGL LOG] update_host_mtx : 47 ms
[OGL LOG] matrix is not yet sorted, sorting host matrix
[OGL LOG] sort_host_mtx_sparsity_pattern : 72 ms
[OGL LOG] sort_host_mtx : 34 ms
[OGL LOG] init_preconditioner : 0 ms
[OGL LOG] solve : 2143 ms
noneompGKOIR:  Solving for p, Initial residual = 0.42741, Final residual = 1.61661e-06, No Iterations 3
linear solve p 2436
time step continuity errors : sum local = 9.08712e-10, global = -5.19061e-21, cumulative = -1.9933e-20
[OGL LOG] init_host_sparsity_pattern : 96 ms
[OGL LOG] matrix not stored update host matrix
[OGL LOG] update_host_mtx : 50 ms
[OGL LOG] matrix is not yet sorted, sorting host matrix
[OGL LOG] sort_host_mtx_sparsity_pattern : 72 ms
[OGL LOG] sort_host_mtx : 34 ms
[OGL LOG] init_preconditioner : 0 ms
[OGL LOG] solve : 1965 ms
noneompGKOIR:  Solving for p, Initial residual = 0.358197, Final residual = 1.2206e-06, No Iterations 3
linear solve p 2268
time step continuity errors : sum local = 6.97398e-10, global = 1.06057e-20, cumulative = -9.32727e-21
ExecutionTime = 325.5 s  ClockTime = 25 s

Time = 0.005

Courant Number mean: 0.0724651 max: 0.634643
nonePBiCGStab:  Solving for Ux, Initial residual = 0.0239754, Final residual = 0.00249235, No Iterations 5
nonePBiCGStab:  Solving for Uy, Initial residual = 0.0571888, Final residual = 0.00624955, No Iterations 5
nonePBiCGStab:  Solving for Uz, Initial residual = 0.123206, Final residual = 0.020878, No Iterations 5
linear solve U 173
[OGL LOG] init_host_sparsity_pattern : 90 ms
[OGL LOG] matrix not stored update host matrix
[OGL LOG] update_host_mtx : 48 ms
[OGL LOG] matrix is not yet sorted, sorting host matrix
[OGL LOG] sort_host_mtx_sparsity_pattern : 69 ms
[OGL LOG] sort_host_mtx : 34 ms
[OGL LOG] init_preconditioner : 0 ms
[OGL LOG] solve : 1777 ms
noneompGKOIR:  Solving for p, Initial residual = 0.374263, Final residual = 1.25721e-06, No Iterations 3
linear solve p 2060
time step continuity errors : sum local = 5.89689e-10, global = -2.34076e-20, cumulative = -3.27349e-20
[OGL LOG] init_host_sparsity_pattern : 94 ms
[OGL LOG] matrix not stored update host matrix
[OGL LOG] update_host_mtx : 51 ms
[OGL LOG] matrix is not yet sorted, sorting host matrix
[OGL LOG] sort_host_mtx_sparsity_pattern : 70 ms
[OGL LOG] sort_host_mtx : 34 ms
[OGL LOG] init_preconditioner : 0 ms
[OGL LOG] solve : 1827 ms
noneompGKOIR:  Solving for p, Initial residual = 0.321191, Final residual = 1.00692e-06, No Iterations 3
linear solve p 2119
time step continuity errors : sum local = 4.66839e-10, global = 3.84383e-21, cumulative = -2.8891e-20
ExecutionTime = 398.67 s  ClockTime = 29 s

Time = 0.006

Courant Number mean: 0.0792297 max: 0.641391
nonePBiCGStab:  Solving for Ux, Initial residual = 0.01791, Final residual = 0.00152621, No Iterations 5
nonePBiCGStab:  Solving for Uy, Initial residual = 0.0427822, Final residual = 0.003247, No Iterations 5
nonePBiCGStab:  Solving for Uz, Initial residual = 0.098522, Final residual = 0.0143582, No Iterations 5
linear solve U 173
[OGL LOG] init_host_sparsity_pattern : 90 ms
[OGL LOG] matrix not stored update host matrix
[OGL LOG] update_host_mtx : 47 ms
[OGL LOG] matrix is not yet sorted, sorting host matrix
[OGL LOG] sort_host_mtx_sparsity_pattern : 69 ms
[OGL LOG] sort_host_mtx : 34 ms
[OGL LOG] init_preconditioner : 0 ms
[OGL LOG] solve : 874 ms
noneompGKOIR:  Solving for p, Initial residual = 0.267569, Final residual = 7.22202e-05, No Iterations 2
linear solve p 1157
time step continuity errors : sum local = 3.71342e-08, global = -2.02621e-21, cumulative = -3.09173e-20
[OGL LOG] init_host_sparsity_pattern : 93 ms
[OGL LOG] matrix not stored update host matrix
[OGL LOG] update_host_mtx : 50 ms
[OGL LOG] matrix is not yet sorted, sorting host matrix
[OGL LOG] sort_host_mtx_sparsity_pattern : 70 ms
[OGL LOG] sort_host_mtx : 34 ms
[OGL LOG] init_preconditioner : 0 ms
[OGL LOG] solve : 969 ms
noneompGKOIR:  Solving for p, Initial residual = 0.224409, Final residual = 6.64341e-05, No Iterations 2
linear solve p 1263
time step continuity errors : sum local = 3.28852e-08, global = -8.8161e-21, cumulative = -3.97334e-20
ExecutionTime = 436.7 s  ClockTime = 32 s

Time = 0.007

Courant Number mean: 0.0849288 max: 0.645999
nonePBiCGStab:  Solving for Ux, Initial residual = 0.0141364, Final residual = 0.000980953, No Iterations 5
nonePBiCGStab:  Solving for Uy, Initial residual = 0.0335355, Final residual = 0.00228389, No Iterations 5
nonePBiCGStab:  Solving for Uz, Initial residual = 0.0716872, Final residual = 0.00762167, No Iterations 5
linear solve U 178
[OGL LOG] init_host_sparsity_pattern : 90 ms
[OGL LOG] matrix not stored update host matrix
[OGL LOG] update_host_mtx : 48 ms
[OGL LOG] matrix is not yet sorted, sorting host matrix
[OGL LOG] sort_host_mtx_sparsity_pattern : 72 ms
[OGL LOG] sort_host_mtx : 34 ms
[OGL LOG] init_preconditioner : 0 ms
[OGL LOG] solve : 889 ms
noneompGKOIR:  Solving for p, Initial residual = 0.220159, Final residual = 6.21274e-05, No Iterations 2
linear solve p 1182
time step continuity errors : sum local = 2.81798e-08, global = -2.09328e-20, cumulative = -6.06662e-20
[OGL LOG] init_host_sparsity_pattern : 94 ms
[OGL LOG] matrix not stored update host matrix
[OGL LOG] update_host_mtx : 51 ms
[OGL LOG] matrix is not yet sorted, sorting host matrix
[OGL LOG] sort_host_mtx_sparsity_pattern : 70 ms
[OGL LOG] sort_host_mtx : 35 ms
[OGL LOG] init_preconditioner : 0 ms
[OGL LOG] solve : 894 ms
noneompGKOIR:  Solving for p, Initial residual = 0.186297, Final residual = 4.65881e-05, No Iterations 2
linear solve p 1193
time step continuity errors : sum local = 2.12488e-08, global = 1.49047e-20, cumulative = -4.57615e-20
ExecutionTime = 473.58 s  ClockTime = 35 s

Time = 0.008

Courant Number mean: 0.0897165 max: 0.649529
nonePBiCGStab:  Solving for Ux, Initial residual = 0.0115082, Final residual = 0.000682006, No Iterations 5
nonePBiCGStab:  Solving for Uy, Initial residual = 0.0268248, Final residual = 0.00131427, No Iterations 5
nonePBiCGStab:  Solving for Uz, Initial residual = 0.0594483, Final residual = 0.00684636, No Iterations 5
linear solve U 210
[OGL LOG] init_host_sparsity_pattern : 91 ms
[OGL LOG] matrix not stored update host matrix
[OGL LOG] update_host_mtx : 49 ms
[OGL LOG] matrix is not yet sorted, sorting host matrix
[OGL LOG] sort_host_mtx_sparsity_pattern : 71 ms
[OGL LOG] sort_host_mtx : 36 ms
[OGL LOG] init_preconditioner : 0 ms
[OGL LOG] solve : 1464 ms
noneompGKOIR:  Solving for p, Initial residual = 0.161251, Final residual = 4.54055e-05, No Iterations 2
linear solve p 1757
time step continuity errors : sum local = 1.98378e-08, global = 1.08413e-22, cumulative = -4.56531e-20
[OGL LOG] init_host_sparsity_pattern : 95 ms
[OGL LOG] matrix not stored update host matrix
[OGL LOG] update_host_mtx : 52 ms
[OGL LOG] matrix is not yet sorted, sorting host matrix
[OGL LOG] sort_host_mtx_sparsity_pattern : 70 ms
[OGL LOG] sort_host_mtx : 35 ms
[OGL LOG] init_preconditioner : 0 ms
[OGL LOG] solve : 1496 ms
noneompGKOIR:  Solving for p, Initial residual = 0.135365, Final residual = 3.7954e-05, No Iterations 2
linear solve p 1796
time step continuity errors : sum local = 1.65915e-08, global = -4.78704e-21, cumulative = -5.04401e-20
ExecutionTime = 534 s  ClockTime = 39 s

Time = 0.009

Courant Number mean: 0.0938429 max: 0.652169
nonePBiCGStab:  Solving for Ux, Initial residual = 0.00954369, Final residual = 0.000528994, No Iterations 5
nonePBiCGStab:  Solving for Uy, Initial residual = 0.0225868, Final residual = 0.000911431, No Iterations 5
nonePBiCGStab:  Solving for Uz, Initial residual = 0.0491214, Final residual = 0.00383247, No Iterations 5
linear solve U 173
[OGL LOG] init_host_sparsity_pattern : 90 ms
[OGL LOG] matrix not stored update host matrix
[OGL LOG] update_host_mtx : 47 ms
[OGL LOG] matrix is not yet sorted, sorting host matrix
[OGL LOG] sort_host_mtx_sparsity_pattern : 70 ms
[OGL LOG] sort_host_mtx : 34 ms
[OGL LOG] init_preconditioner : 0 ms
[OGL LOG] solve : 999 ms
noneompGKOIR:  Solving for p, Initial residual = 0.128683, Final residual = 2.79839e-05, No Iterations 2
linear solve p 1284
time step continuity errors : sum local = 1.23244e-08, global = 3.06909e-21, cumulative = -4.7371e-20
[OGL LOG] init_host_sparsity_pattern : 93 ms
[OGL LOG] matrix not stored update host matrix
[OGL LOG] update_host_mtx : 50 ms
[OGL LOG] matrix is not yet sorted, sorting host matrix
[OGL LOG] sort_host_mtx_sparsity_pattern : 69 ms
[OGL LOG] sort_host_mtx : 34 ms
[OGL LOG] init_preconditioner : 0 ms
[OGL LOG] solve : 1003 ms
noneompGKOIR:  Solving for p, Initial residual = 0.108623, Final residual = 2.41653e-05, No Iterations 2
linear solve p 1294
time step continuity errors : sum local = 1.0388e-08, global = -3.10508e-22, cumulative = -4.76815e-20
ExecutionTime = 575.21 s  ClockTime = 42 s

Time = 0.01

Courant Number mean: 0.0974268 max: 0.654379
nonePBiCGStab:  Solving for Ux, Initial residual = 0.00811538, Final residual = 0.00041166, No Iterations 5
nonePBiCGStab:  Solving for Uy, Initial residual = 0.0188459, Final residual = 0.000631803, No Iterations 5
nonePBiCGStab:  Solving for Uz, Initial residual = 0.041897, Final residual = 0.00365221, No Iterations 5
linear solve U 173
[OGL LOG] init_host_sparsity_pattern : 90 ms
[OGL LOG] matrix not stored update host matrix
[OGL LOG] update_host_mtx : 47 ms
[OGL LOG] matrix is not yet sorted, sorting host matrix
[OGL LOG] sort_host_mtx_sparsity_pattern : 69 ms
[OGL LOG] sort_host_mtx : 34 ms
[OGL LOG] init_preconditioner : 0 ms
[OGL LOG] solve : 1056 ms
noneompGKOIR:  Solving for p, Initial residual = 0.0947595, Final residual = 2.15687e-05, No Iterations 2
linear solve p 1338
time step continuity errors : sum local = 1.02169e-08, global = -4.45684e-21, cumulative = -5.21384e-20
[OGL LOG] init_host_sparsity_pattern : 93 ms
[OGL LOG] matrix not stored update host matrix
[OGL LOG] update_host_mtx : 51 ms
[OGL LOG] matrix is not yet sorted, sorting host matrix
[OGL LOG] sort_host_mtx_sparsity_pattern : 70 ms
[OGL LOG] sort_host_mtx : 35 ms
[OGL LOG] init_preconditioner : 0 ms
[OGL LOG] solve : 996 ms
noneompGKOIR:  Solving for p, Initial residual = 0.0797998, Final residual = 1.70068e-05, No Iterations 2
linear solve p 1289
time step continuity errors : sum local = 7.64704e-09, global = -2.08826e-21, cumulative = -5.42266e-20
ExecutionTime = 617.41 s  ClockTime = 45 s

End

