/*---------------------------------------------------------------------------*\
  =========                 |
  \\      /  F ield         | OpenFOAM: The Open Source CFD Toolbox
   \\    /   O peration     | Website:  https://openfoam.org
    \\  /    A nd           | Version:  8
     \\/     M anipulation  |
\*---------------------------------------------------------------------------*/
Build  : 8-40a5a48f630f
Exec   : icoFoam
Date   : Jul 27 2021
Time   : 23:18:15
Host   : "uc2n481.localdomain"
PID    : 186378
I/O    : uncollated
Case   : /pfs/data5/home/kit/scc/nq7776/code/OBR/lidDrivenCavity3D/Variation_mesh/20/Variation_matrix_solver/BiCGStab_NoPrecond_CUDA/base
nProcs : 1
sigFpe : Enabling floating point exception trapping (FOAM_SIGFPE).
fileModificationChecking : Monitoring run-time modified files using timeStampMaster (fileModificationSkew 10)
allowSystemOperations : Allowing user-supplied system call operations

// * * * * * * * * * * * * * * * * * * * * * * * * * * * * * * * * * * * * * //
Create time

Create mesh for time = 0

Reading transportProperties

Reading field p

Reading field U

Reading/calculating face flux field phi


Starting time loop

Time = 0.001

Courant Number mean: 0 max: 0
nonePBiCGStab:  Solving for Ux, Initial residual = 1, Final residual = 0.000780533, No Iterations 5
nonePBiCGStab:  Solving for Uy, Initial residual = 0, Final residual = 0, No Iterations 0
nonePBiCGStab:  Solving for Uz, Initial residual = 0, Final residual = 0, No Iterations 0
linear solve U 1
[OGL LOG] init_host_sparsity_pattern : 2 ms
[OGL LOG] matrix not stored update host matrix
[OGL LOG] update_host_mtx : 1 ms
[OGL LOG] matrix is not yet sorted, compute sorting idxs
[OGL LOG] compute_sort : 51 ms
[OGL LOG] matrix is not yet sorted, sorting host matrix
[OGL LOG] sort_host_mtx_sparsity_pattern : 1 ms
[OGL LOG] sort_host_mtx : 0 ms
[OGL LOG] init_preconditioner : 0 ms
[OGL LOG] solve : 36 ms
nonecudaGKOBiCGStab:  Solving for p, Initial residual = 1, Final residual = 8.18616e-05, No Iterations 126
linear solve p 859
time step continuity errors : sum local = 7.8099e-08, global = -7.91777e-21, cumulative = -7.91777e-21
[OGL LOG] init_host_sparsity_pattern : 2 ms
[OGL LOG] matrix not stored update host matrix
[OGL LOG] update_host_mtx : 1 ms
[OGL LOG] matrix is not yet sorted, sorting host matrix
[OGL LOG] sort_host_mtx_sparsity_pattern : 1 ms
[OGL LOG] sort_host_mtx : 0 ms
[OGL LOG] init_preconditioner : 0 ms
[OGL LOG] solve : 34 ms
nonecudaGKOBiCGStab:  Solving for p, Initial residual = 0.411795, Final residual = 5.91181e-05, No Iterations 119
linear solve p 40
time step continuity errors : sum local = 9.44933e-08, global = -1.4223e-20, cumulative = -2.21407e-20
ExecutionTime = 0.96 s  ClockTime = 1 s

Time = 0.002

Courant Number mean: 0.00876102 max: 0.0682853
nonePBiCGStab:  Solving for Ux, Initial residual = 0.225367, Final residual = 0.000138383, No Iterations 5
nonePBiCGStab:  Solving for Uy, Initial residual = 0.289654, Final residual = 0.000127009, No Iterations 5
nonePBiCGStab:  Solving for Uz, Initial residual = 0.819608, Final residual = 0.000523068, No Iterations 5
linear solve U 2
[OGL LOG] init_host_sparsity_pattern : 2 ms
[OGL LOG] matrix not stored update host matrix
[OGL LOG] update_host_mtx : 1 ms
[OGL LOG] matrix is not yet sorted, sorting host matrix
[OGL LOG] sort_host_mtx_sparsity_pattern : 1 ms
[OGL LOG] sort_host_mtx : 0 ms
[OGL LOG] init_preconditioner : 0 ms
[OGL LOG] solve : 32 ms
nonecudaGKOBiCGStab:  Solving for p, Initial residual = 0.212788, Final residual = 9.71584e-05, No Iterations 115
linear solve p 38
time step continuity errors : sum local = 1.46852e-07, global = -1.11467e-20, cumulative = -3.32874e-20
[OGL LOG] init_host_sparsity_pattern : 2 ms
[OGL LOG] matrix not stored update host matrix
[OGL LOG] update_host_mtx : 1 ms
[OGL LOG] matrix is not yet sorted, sorting host matrix
[OGL LOG] sort_host_mtx_sparsity_pattern : 1 ms
[OGL LOG] sort_host_mtx : 0 ms
[OGL LOG] init_preconditioner : 0 ms
[OGL LOG] solve : 32 ms
nonecudaGKOBiCGStab:  Solving for p, Initial residual = 0.122961, Final residual = 8.13512e-05, No Iterations 114
linear solve p 38
time step continuity errors : sum local = 1.31558e-07, global = -1.19222e-20, cumulative = -4.52096e-20
ExecutionTime = 1.04 s  ClockTime = 1 s

Time = 0.003

Courant Number mean: 0.0142429 max: 0.104362
nonePBiCGStab:  Solving for Ux, Initial residual = 0.102532, Final residual = 6.43825e-05, No Iterations 5
nonePBiCGStab:  Solving for Uy, Initial residual = 0.135244, Final residual = 4.08205e-05, No Iterations 5
nonePBiCGStab:  Solving for Uz, Initial residual = 0.305353, Final residual = 0.00017372, No Iterations 5
linear solve U 2
[OGL LOG] init_host_sparsity_pattern : 2 ms
[OGL LOG] matrix not stored update host matrix
[OGL LOG] update_host_mtx : 1 ms
[OGL LOG] matrix is not yet sorted, sorting host matrix
[OGL LOG] sort_host_mtx_sparsity_pattern : 1 ms
[OGL LOG] sort_host_mtx : 0 ms
[OGL LOG] init_preconditioner : 0 ms
[OGL LOG] solve : 15 ms
nonecudaGKOBiCGStab:  Solving for p, Initial residual = 0.0917478, Final residual = 9.96188e-05, No Iterations 53
linear solve p 21
time step continuity errors : sum local = 9.4829e-08, global = 5.84072e-21, cumulative = -3.93688e-20
[OGL LOG] init_host_sparsity_pattern : 2 ms
[OGL LOG] matrix not stored update host matrix
[OGL LOG] update_host_mtx : 1 ms
[OGL LOG] matrix is not yet sorted, sorting host matrix
[OGL LOG] sort_host_mtx_sparsity_pattern : 1 ms
[OGL LOG] sort_host_mtx : 0 ms
[OGL LOG] init_preconditioner : 0 ms
[OGL LOG] solve : 13 ms
nonecudaGKOBiCGStab:  Solving for p, Initial residual = 0.0549631, Final residual = 9.6258e-05, No Iterations 46
linear solve p 19
time step continuity errors : sum local = 1.24662e-07, global = -2.57646e-20, cumulative = -6.51334e-20
ExecutionTime = 1.08 s  ClockTime = 1 s

Time = 0.004

Courant Number mean: 0.0178671 max: 0.123851
nonePBiCGStab:  Solving for Ux, Initial residual = 0.0604068, Final residual = 2.52981e-05, No Iterations 5
nonePBiCGStab:  Solving for Uy, Initial residual = 0.0809901, Final residual = 1.51523e-05, No Iterations 5
nonePBiCGStab:  Solving for Uz, Initial residual = 0.15525, Final residual = 5.87046e-05, No Iterations 5
linear solve U 2
[OGL LOG] init_host_sparsity_pattern : 2 ms
[OGL LOG] matrix not stored update host matrix
[OGL LOG] update_host_mtx : 1 ms
[OGL LOG] matrix is not yet sorted, sorting host matrix
[OGL LOG] sort_host_mtx_sparsity_pattern : 1 ms
[OGL LOG] sort_host_mtx : 0 ms
[OGL LOG] init_preconditioner : 0 ms
[OGL LOG] solve : 15 ms
nonecudaGKOBiCGStab:  Solving for p, Initial residual = 0.0544199, Final residual = 9.89442e-05, No Iterations 51
linear solve p 21
time step continuity errors : sum local = 1.26355e-07, global = 3.74651e-21, cumulative = -6.13869e-20
[OGL LOG] init_host_sparsity_pattern : 2 ms
[OGL LOG] matrix not stored update host matrix
[OGL LOG] update_host_mtx : 1 ms
[OGL LOG] matrix is not yet sorted, sorting host matrix
[OGL LOG] sort_host_mtx_sparsity_pattern : 1 ms
[OGL LOG] sort_host_mtx : 0 ms
[OGL LOG] init_preconditioner : 0 ms
[OGL LOG] solve : 12 ms
nonecudaGKOBiCGStab:  Solving for p, Initial residual = 0.0315231, Final residual = 8.01759e-05, No Iterations 44
linear solve p 19
time step continuity errors : sum local = 7.32768e-08, global = -4.06725e-21, cumulative = -6.54542e-20
ExecutionTime = 1.13 s  ClockTime = 1 s

Time = 0.005

Courant Number mean: 0.020462 max: 0.135213
nonePBiCGStab:  Solving for Ux, Initial residual = 0.040388, Final residual = 9.59513e-06, No Iterations 5
nonePBiCGStab:  Solving for Uy, Initial residual = 0.0549886, Final residual = 5.55922e-06, No Iterations 5
nonePBiCGStab:  Solving for Uz, Initial residual = 0.107092, Final residual = 3.36637e-05, No Iterations 5
linear solve U 2
[OGL LOG] init_host_sparsity_pattern : 2 ms
[OGL LOG] matrix not stored update host matrix
[OGL LOG] update_host_mtx : 1 ms
[OGL LOG] matrix is not yet sorted, sorting host matrix
[OGL LOG] sort_host_mtx_sparsity_pattern : 1 ms
[OGL LOG] sort_host_mtx : 0 ms
[OGL LOG] init_preconditioner : 0 ms
[OGL LOG] solve : 13 ms
nonecudaGKOBiCGStab:  Solving for p, Initial residual = 0.0357763, Final residual = 9.95816e-05, No Iterations 44
linear solve p 19
time step continuity errors : sum local = 1.41652e-07, global = -6.8229e-21, cumulative = -7.22771e-20
[OGL LOG] init_host_sparsity_pattern : 2 ms
[OGL LOG] matrix not stored update host matrix
[OGL LOG] update_host_mtx : 1 ms
[OGL LOG] matrix is not yet sorted, sorting host matrix
[OGL LOG] sort_host_mtx_sparsity_pattern : 1 ms
[OGL LOG] sort_host_mtx : 0 ms
[OGL LOG] init_preconditioner : 0 ms
[OGL LOG] solve : 12 ms
nonecudaGKOBiCGStab:  Solving for p, Initial residual = 0.0202678, Final residual = 9.22439e-05, No Iterations 41
linear solve p 18
time step continuity errors : sum local = 1.05601e-07, global = -3.47813e-20, cumulative = -1.07058e-19
ExecutionTime = 1.17 s  ClockTime = 1 s

Time = 0.006

Courant Number mean: 0.0225071 max: 0.142363
nonePBiCGStab:  Solving for Ux, Initial residual = 0.0295588, Final residual = 4.24774e-06, No Iterations 5
nonePBiCGStab:  Solving for Uy, Initial residual = 0.0406326, Final residual = 2.94899e-06, No Iterations 5
nonePBiCGStab:  Solving for Uz, Initial residual = 0.0813935, Final residual = 1.93916e-05, No Iterations 5
linear solve U 2
[OGL LOG] init_host_sparsity_pattern : 2 ms
[OGL LOG] matrix not stored update host matrix
[OGL LOG] update_host_mtx : 1 ms
[OGL LOG] matrix is not yet sorted, sorting host matrix
[OGL LOG] sort_host_mtx_sparsity_pattern : 1 ms
[OGL LOG] sort_host_mtx : 0 ms
[OGL LOG] init_preconditioner : 0 ms
[OGL LOG] solve : 12 ms
nonecudaGKOBiCGStab:  Solving for p, Initial residual = 0.025557, Final residual = 9.33421e-05, No Iterations 44
linear solve p 19
time step continuity errors : sum local = 1.48612e-07, global = 2.9611e-21, cumulative = -1.04097e-19
[OGL LOG] init_host_sparsity_pattern : 2 ms
[OGL LOG] matrix not stored update host matrix
[OGL LOG] update_host_mtx : 1 ms
[OGL LOG] matrix is not yet sorted, sorting host matrix
[OGL LOG] sort_host_mtx_sparsity_pattern : 1 ms
[OGL LOG] sort_host_mtx : 0 ms
[OGL LOG] init_preconditioner : 0 ms
[OGL LOG] solve : 11 ms
nonecudaGKOBiCGStab:  Solving for p, Initial residual = 0.0142613, Final residual = 9.31286e-05, No Iterations 40
linear solve p 17
time step continuity errors : sum local = 1.27575e-07, global = 1.59824e-20, cumulative = -8.81149e-20
ExecutionTime = 1.21 s  ClockTime = 1 s

Time = 0.007

Courant Number mean: 0.0241602 max: 0.147194
nonePBiCGStab:  Solving for Ux, Initial residual = 0.0229887, Final residual = 2.39942e-06, No Iterations 5
nonePBiCGStab:  Solving for Uy, Initial residual = 0.0317622, Final residual = 2.10053e-06, No Iterations 5
nonePBiCGStab:  Solving for Uz, Initial residual = 0.0650039, Final residual = 1.29284e-05, No Iterations 5
linear solve U 2
[OGL LOG] init_host_sparsity_pattern : 2 ms
[OGL LOG] matrix not stored update host matrix
[OGL LOG] update_host_mtx : 1 ms
[OGL LOG] matrix is not yet sorted, sorting host matrix
[OGL LOG] sort_host_mtx_sparsity_pattern : 1 ms
[OGL LOG] sort_host_mtx : 0 ms
[OGL LOG] init_preconditioner : 0 ms
[OGL LOG] solve : 12 ms
nonecudaGKOBiCGStab:  Solving for p, Initial residual = 0.0187564, Final residual = 9.13748e-05, No Iterations 42
linear solve p 18
time step continuity errors : sum local = 1.55974e-07, global = -8.06501e-22, cumulative = -8.89214e-20
[OGL LOG] init_host_sparsity_pattern : 2 ms
[OGL LOG] matrix not stored update host matrix
[OGL LOG] update_host_mtx : 1 ms
[OGL LOG] matrix is not yet sorted, sorting host matrix
[OGL LOG] sort_host_mtx_sparsity_pattern : 1 ms
[OGL LOG] sort_host_mtx : 0 ms
[OGL LOG] init_preconditioner : 0 ms
[OGL LOG] solve : 12 ms
nonecudaGKOBiCGStab:  Solving for p, Initial residual = 0.0105185, Final residual = 9.84347e-05, No Iterations 39
linear solve p 18
time step continuity errors : sum local = 1.47515e-07, global = -8.45792e-21, cumulative = -9.73793e-20
ExecutionTime = 1.26 s  ClockTime = 1 s

Time = 0.008

Courant Number mean: 0.0255313 max: 0.150663
nonePBiCGStab:  Solving for Ux, Initial residual = 0.0184822, Final residual = 1.51067e-06, No Iterations 5
nonePBiCGStab:  Solving for Uy, Initial residual = 0.0258121, Final residual = 1.46599e-06, No Iterations 5
nonePBiCGStab:  Solving for Uz, Initial residual = 0.0536105, Final residual = 8.68833e-06, No Iterations 5
linear solve U 2
[OGL LOG] init_host_sparsity_pattern : 2 ms
[OGL LOG] matrix not stored update host matrix
[OGL LOG] update_host_mtx : 1 ms
[OGL LOG] matrix is not yet sorted, sorting host matrix
[OGL LOG] sort_host_mtx_sparsity_pattern : 1 ms
[OGL LOG] sort_host_mtx : 0 ms
[OGL LOG] init_preconditioner : 0 ms
[OGL LOG] solve : 12 ms
nonecudaGKOBiCGStab:  Solving for p, Initial residual = 0.0148386, Final residual = 8.64522e-05, No Iterations 42
linear solve p 18
time step continuity errors : sum local = 1.58599e-07, global = -2.62742e-20, cumulative = -1.23653e-19
[OGL LOG] init_host_sparsity_pattern : 2 ms
[OGL LOG] matrix not stored update host matrix
[OGL LOG] update_host_mtx : 1 ms
[OGL LOG] matrix is not yet sorted, sorting host matrix
[OGL LOG] sort_host_mtx_sparsity_pattern : 1 ms
[OGL LOG] sort_host_mtx : 0 ms
[OGL LOG] init_preconditioner : 0 ms
[OGL LOG] solve : 14 ms
nonecudaGKOBiCGStab:  Solving for p, Initial residual = 0.00839806, Final residual = 9.12162e-05, No Iterations 39
linear solve p 20
time step continuity errors : sum local = 1.5156e-07, global = 1.65647e-20, cumulative = -1.07089e-19
ExecutionTime = 1.3 s  ClockTime = 1 s

Time = 0.009

Courant Number mean: 0.0266815 max: 0.153281
nonePBiCGStab:  Solving for Ux, Initial residual = 0.0152491, Final residual = 9.54856e-07, No Iterations 5
nonePBiCGStab:  Solving for Uy, Initial residual = 0.0215554, Final residual = 1.02253e-06, No Iterations 5
nonePBiCGStab:  Solving for Uz, Initial residual = 0.0451462, Final residual = 5.44516e-06, No Iterations 5
linear solve U 2
[OGL LOG] init_host_sparsity_pattern : 2 ms
[OGL LOG] matrix not stored update host matrix
[OGL LOG] update_host_mtx : 1 ms
[OGL LOG] matrix is not yet sorted, sorting host matrix
[OGL LOG] sort_host_mtx_sparsity_pattern : 1 ms
[OGL LOG] sort_host_mtx : 0 ms
[OGL LOG] init_preconditioner : 0 ms
[OGL LOG] solve : 12 ms
nonecudaGKOBiCGStab:  Solving for p, Initial residual = 0.0119979, Final residual = 9.44961e-05, No Iterations 41
linear solve p 18
time step continuity errors : sum local = 1.71862e-07, global = 2.67841e-20, cumulative = -8.03047e-20
[OGL LOG] init_host_sparsity_pattern : 2 ms
[OGL LOG] matrix not stored update host matrix
[OGL LOG] update_host_mtx : 1 ms
[OGL LOG] matrix is not yet sorted, sorting host matrix
[OGL LOG] sort_host_mtx_sparsity_pattern : 1 ms
[OGL LOG] sort_host_mtx : 0 ms
[OGL LOG] init_preconditioner : 0 ms
[OGL LOG] solve : 11 ms
nonecudaGKOBiCGStab:  Solving for p, Initial residual = 0.00690748, Final residual = 9.23974e-05, No Iterations 37
linear solve p 17
time step continuity errors : sum local = 1.60771e-07, global = -2.54858e-20, cumulative = -1.05791e-19
ExecutionTime = 1.34 s  ClockTime = 1 s

Time = 0.01

Courant Number mean: 0.0276663 max: 0.155334
nonePBiCGStab:  Solving for Ux, Initial residual = 0.0129043, Final residual = 9.95849e-07, No Iterations 5
nonePBiCGStab:  Solving for Uy, Initial residual = 0.0183715, Final residual = 7.71149e-07, No Iterations 5
nonePBiCGStab:  Solving for Uz, Initial residual = 0.0387912, Final residual = 4.17858e-06, No Iterations 5
linear solve U 2
[OGL LOG] init_host_sparsity_pattern : 2 ms
[OGL LOG] matrix not stored update host matrix
[OGL LOG] update_host_mtx : 1 ms
[OGL LOG] matrix is not yet sorted, sorting host matrix
[OGL LOG] sort_host_mtx_sparsity_pattern : 1 ms
[OGL LOG] sort_host_mtx : 0 ms
[OGL LOG] init_preconditioner : 0 ms
[OGL LOG] solve : 12 ms
nonecudaGKOBiCGStab:  Solving for p, Initial residual = 0.0100075, Final residual = 9.6429e-05, No Iterations 41
linear solve p 18
time step continuity errors : sum local = 1.77861e-07, global = -2.23703e-20, cumulative = -1.28161e-19
[OGL LOG] init_host_sparsity_pattern : 2 ms
[OGL LOG] matrix not stored update host matrix
[OGL LOG] update_host_mtx : 1 ms
[OGL LOG] matrix is not yet sorted, sorting host matrix
[OGL LOG] sort_host_mtx_sparsity_pattern : 1 ms
[OGL LOG] sort_host_mtx : 0 ms
[OGL LOG] init_preconditioner : 0 ms
[OGL LOG] solve : 10 ms
nonecudaGKOBiCGStab:  Solving for p, Initial residual = 0.00584492, Final residual = 9.1138e-05, No Iterations 36
linear solve p 16
time step continuity errors : sum local = 1.65534e-07, global = -5.72322e-20, cumulative = -1.85393e-19
ExecutionTime = 1.39 s  ClockTime = 1 s

End

