/*---------------------------------------------------------------------------*\
  =========                 |
  \\      /  F ield         | OpenFOAM: The Open Source CFD Toolbox
   \\    /   O peration     | Website:  https://openfoam.org
    \\  /    A nd           | Version:  8
     \\/     M anipulation  |
\*---------------------------------------------------------------------------*/
Build  : 8-40a5a48f630f
Exec   : icoFoam
Date   : Jul 28 2021
Time   : 02:46:49
Host   : "uc2n450.localdomain"
PID    : 362849
I/O    : uncollated
Case   : /pfs/data5/home/kit/scc/nq7776/code/OBR/lidDrivenCavity3D/Variation_mesh/25/Variation_matrix_solver/BiCGStab_BJ_OMP/base
nProcs : 1
sigFpe : Enabling floating point exception trapping (FOAM_SIGFPE).
fileModificationChecking : Monitoring run-time modified files using timeStampMaster (fileModificationSkew 10)
allowSystemOperations : Allowing user-supplied system call operations

// * * * * * * * * * * * * * * * * * * * * * * * * * * * * * * * * * * * * * //
Create time

Create mesh for time = 0

Reading transportProperties

Reading field p

Reading field U

Reading/calculating face flux field phi


Starting time loop

Time = 0.001

Courant Number mean: 0 max: 0
nonePBiCGStab:  Solving for Ux, Initial residual = 1, Final residual = 0.00310183, No Iterations 5
nonePBiCGStab:  Solving for Uy, Initial residual = 0, Final residual = 0, No Iterations 0
nonePBiCGStab:  Solving for Uz, Initial residual = 0, Final residual = 0, No Iterations 0
linear solve U 2
[OGL LOG] init_host_sparsity_pattern : 4 ms
[OGL LOG] matrix not stored update host matrix
[OGL LOG] update_host_mtx : 2 ms
[OGL LOG] matrix is not yet sorted, compute sorting idxs
[OGL LOG] compute_sort : 106 ms
[OGL LOG] matrix is not yet sorted, sorting host matrix
[OGL LOG] sort_host_mtx_sparsity_pattern : 3 ms
[OGL LOG] sort_host_mtx : 1 ms
[OGL LOG] init_preconditioner : 1 ms
[OGL LOG] solve : 80 ms
BJompGKOBiCGStab:  Solving for p, Initial residual = 1, Final residual = 3.01352e-05, No Iterations 136
linear solve p 208
time step continuity errors : sum local = 9.90428e-07, global = -1.95744e-20, cumulative = -1.95744e-20
[OGL LOG] init_host_sparsity_pattern : 4 ms
[OGL LOG] matrix not stored update host matrix
[OGL LOG] update_host_mtx : 2 ms
[OGL LOG] matrix is not yet sorted, sorting host matrix
[OGL LOG] sort_host_mtx_sparsity_pattern : 3 ms
[OGL LOG] sort_host_mtx : 1 ms
[OGL LOG] init_preconditioner : 0 ms
[OGL LOG] solve : 70 ms
BJompGKOBiCGStab:  Solving for p, Initial residual = 0.481227, Final residual = 6.9823e-05, No Iterations 121
linear solve p 85
time step continuity errors : sum local = 4.49083e-06, global = 2.45595e-21, cumulative = -1.71185e-20
ExecutionTime = 2.82 s  ClockTime = 0 s

Time = 0.002

Courant Number mean: 0.0119723 max: 0.107007
nonePBiCGStab:  Solving for Ux, Initial residual = 0.210867, Final residual = 0.000695906, No Iterations 5
nonePBiCGStab:  Solving for Uy, Initial residual = 0.28448, Final residual = 0.000672176, No Iterations 5
nonePBiCGStab:  Solving for Uz, Initial residual = 0.848025, Final residual = 0.00298287, No Iterations 5
linear solve U 5
[OGL LOG] init_host_sparsity_pattern : 4 ms
[OGL LOG] matrix not stored update host matrix
[OGL LOG] update_host_mtx : 2 ms
[OGL LOG] matrix is not yet sorted, sorting host matrix
[OGL LOG] sort_host_mtx_sparsity_pattern : 3 ms
[OGL LOG] sort_host_mtx : 1 ms
[OGL LOG] init_preconditioner : 0 ms
[OGL LOG] solve : 66 ms
BJompGKOBiCGStab:  Solving for p, Initial residual = 0.290405, Final residual = 8.65115e-05, No Iterations 113
linear solve p 79
time step continuity errors : sum local = 1.55294e-06, global = -1.76321e-20, cumulative = -3.47505e-20
[OGL LOG] init_host_sparsity_pattern : 4 ms
[OGL LOG] matrix not stored update host matrix
[OGL LOG] update_host_mtx : 2 ms
[OGL LOG] matrix is not yet sorted, sorting host matrix
[OGL LOG] sort_host_mtx_sparsity_pattern : 3 ms
[OGL LOG] sort_host_mtx : 1 ms
[OGL LOG] init_preconditioner : 0 ms
[OGL LOG] solve : 65 ms
BJompGKOBiCGStab:  Solving for p, Initial residual = 0.191347, Final residual = 8.26986e-05, No Iterations 111
linear solve p 78
time step continuity errors : sum local = 3.18624e-06, global = -4.40401e-21, cumulative = -3.91545e-20
ExecutionTime = 5.12 s  ClockTime = 0 s

Time = 0.003

Courant Number mean: 0.018847 max: 0.153563
nonePBiCGStab:  Solving for Ux, Initial residual = 0.0900181, Final residual = 0.00029272, No Iterations 5
nonePBiCGStab:  Solving for Uy, Initial residual = 0.124865, Final residual = 0.000210326, No Iterations 5
nonePBiCGStab:  Solving for Uz, Initial residual = 0.276728, Final residual = 0.000979684, No Iterations 5
linear solve U 5
[OGL LOG] init_host_sparsity_pattern : 4 ms
[OGL LOG] matrix not stored update host matrix
[OGL LOG] update_host_mtx : 2 ms
[OGL LOG] matrix is not yet sorted, sorting host matrix
[OGL LOG] sort_host_mtx_sparsity_pattern : 3 ms
[OGL LOG] sort_host_mtx : 1 ms
[OGL LOG] init_preconditioner : 0 ms
[OGL LOG] solve : 78 ms
BJompGKOBiCGStab:  Solving for p, Initial residual = 0.107578, Final residual = 5.32899e-05, No Iterations 111
linear solve p 91
time step continuity errors : sum local = 2.35621e-07, global = -5.2861e-21, cumulative = -4.44406e-20
[OGL LOG] init_host_sparsity_pattern : 4 ms
[OGL LOG] matrix not stored update host matrix
[OGL LOG] update_host_mtx : 2 ms
[OGL LOG] matrix is not yet sorted, sorting host matrix
[OGL LOG] sort_host_mtx_sparsity_pattern : 3 ms
[OGL LOG] sort_host_mtx : 1 ms
[OGL LOG] init_preconditioner : 0 ms
[OGL LOG] solve : 84 ms
BJompGKOBiCGStab:  Solving for p, Initial residual = 0.071327, Final residual = 9.65897e-05, No Iterations 108
linear solve p 97
time step continuity errors : sum local = 1.47267e-05, global = -2.20167e-20, cumulative = -6.64573e-20
ExecutionTime = 7.9 s  ClockTime = 1 s

Time = 0.004

Courant Number mean: 0.0233217 max: 0.175125
nonePBiCGStab:  Solving for Ux, Initial residual = 0.0519043, Final residual = 9.92697e-05, No Iterations 5
nonePBiCGStab:  Solving for Uy, Initial residual = 0.0752685, Final residual = 0.000101006, No Iterations 5
nonePBiCGStab:  Solving for Uz, Initial residual = 0.190526, Final residual = 0.00118137, No Iterations 5
linear solve U 5
[OGL LOG] init_host_sparsity_pattern : 4 ms
[OGL LOG] matrix not stored update host matrix
[OGL LOG] update_host_mtx : 2 ms
[OGL LOG] matrix is not yet sorted, sorting host matrix
[OGL LOG] sort_host_mtx_sparsity_pattern : 3 ms
[OGL LOG] sort_host_mtx : 1 ms
[OGL LOG] init_preconditioner : 0 ms
[OGL LOG] solve : 80 ms
BJompGKOBiCGStab:  Solving for p, Initial residual = 0.0780164, Final residual = 9.34995e-05, No Iterations 103
linear solve p 93
time step continuity errors : sum local = 2.09029e-06, global = -5.09047e-21, cumulative = -7.15478e-20
[OGL LOG] init_host_sparsity_pattern : 4 ms
[OGL LOG] matrix not stored update host matrix
[OGL LOG] update_host_mtx : 2 ms
[OGL LOG] matrix is not yet sorted, sorting host matrix
[OGL LOG] sort_host_mtx_sparsity_pattern : 3 ms
[OGL LOG] sort_host_mtx : 1 ms
[OGL LOG] init_preconditioner : 0 ms
[OGL LOG] solve : 86 ms
BJompGKOBiCGStab:  Solving for p, Initial residual = 0.0474325, Final residual = 6.76067e-05, No Iterations 112
linear solve p 99
time step continuity errors : sum local = 5.63397e-07, global = 1.43022e-20, cumulative = -5.72456e-20
ExecutionTime = 10.76 s  ClockTime = 1 s

Time = 0.005

Courant Number mean: 0.0264946 max: 0.186505
nonePBiCGStab:  Solving for Ux, Initial residual = 0.0353043, Final residual = 6.72107e-05, No Iterations 5
nonePBiCGStab:  Solving for Uy, Initial residual = 0.0508037, Final residual = 9.59454e-05, No Iterations 5
nonePBiCGStab:  Solving for Uz, Initial residual = 0.106057, Final residual = 0.000637754, No Iterations 5
linear solve U 5
[OGL LOG] init_host_sparsity_pattern : 4 ms
[OGL LOG] matrix not stored update host matrix
[OGL LOG] update_host_mtx : 2 ms
[OGL LOG] matrix is not yet sorted, sorting host matrix
[OGL LOG] sort_host_mtx_sparsity_pattern : 2 ms
[OGL LOG] sort_host_mtx : 1 ms
[OGL LOG] init_preconditioner : 0 ms
[OGL LOG] solve : 36 ms
BJompGKOBiCGStab:  Solving for p, Initial residual = 0.0401846, Final residual = 9.99807e-05, No Iterations 47
linear solve p 49
time step continuity errors : sum local = 1.63515e-07, global = -1.94618e-20, cumulative = -7.67074e-20
[OGL LOG] init_host_sparsity_pattern : 4 ms
[OGL LOG] matrix not stored update host matrix
[OGL LOG] update_host_mtx : 2 ms
[OGL LOG] matrix is not yet sorted, sorting host matrix
[OGL LOG] sort_host_mtx_sparsity_pattern : 3 ms
[OGL LOG] sort_host_mtx : 1 ms
[OGL LOG] init_preconditioner : 0 ms
[OGL LOG] solve : 28 ms
BJompGKOBiCGStab:  Solving for p, Initial residual = 0.0251854, Final residual = 9.98054e-05, No Iterations 36
linear solve p 41
time step continuity errors : sum local = 1.45272e-07, global = 1.45118e-20, cumulative = -6.21956e-20
ExecutionTime = 11.98 s  ClockTime = 1 s

Time = 0.006

Courant Number mean: 0.0288947 max: 0.193335
nonePBiCGStab:  Solving for Ux, Initial residual = 0.0259299, Final residual = 2.02917e-05, No Iterations 5
nonePBiCGStab:  Solving for Uy, Initial residual = 0.0380603, Final residual = 2.85977e-05, No Iterations 5
nonePBiCGStab:  Solving for Uz, Initial residual = 0.0722542, Final residual = 0.000175545, No Iterations 5
linear solve U 5
[OGL LOG] init_host_sparsity_pattern : 4 ms
[OGL LOG] matrix not stored update host matrix
[OGL LOG] update_host_mtx : 2 ms
[OGL LOG] matrix is not yet sorted, sorting host matrix
[OGL LOG] sort_host_mtx_sparsity_pattern : 2 ms
[OGL LOG] sort_host_mtx : 1 ms
[OGL LOG] init_preconditioner : 0 ms
[OGL LOG] solve : 34 ms
BJompGKOBiCGStab:  Solving for p, Initial residual = 0.0251974, Final residual = 9.59524e-05, No Iterations 43
linear solve p 46
time step continuity errors : sum local = 1.30644e-07, global = 2.73962e-21, cumulative = -5.94559e-20
[OGL LOG] init_host_sparsity_pattern : 4 ms
[OGL LOG] matrix not stored update host matrix
[OGL LOG] update_host_mtx : 2 ms
[OGL LOG] matrix is not yet sorted, sorting host matrix
[OGL LOG] sort_host_mtx_sparsity_pattern : 3 ms
[OGL LOG] sort_host_mtx : 1 ms
[OGL LOG] init_preconditioner : 0 ms
[OGL LOG] solve : 30 ms
BJompGKOBiCGStab:  Solving for p, Initial residual = 0.0167231, Final residual = 9.53878e-05, No Iterations 38
linear solve p 42
time step continuity errors : sum local = 1.2942e-07, global = -1.93864e-20, cumulative = -7.88424e-20
ExecutionTime = 13.19 s  ClockTime = 1 s

Time = 0.007

Courant Number mean: 0.0308303 max: 0.197889
nonePBiCGStab:  Solving for Ux, Initial residual = 0.0203811, Final residual = 8.83136e-06, No Iterations 5
nonePBiCGStab:  Solving for Uy, Initial residual = 0.0300123, Final residual = 1.04956e-05, No Iterations 5
nonePBiCGStab:  Solving for Uz, Initial residual = 0.0577216, Final residual = 7.97129e-05, No Iterations 5
linear solve U 5
[OGL LOG] init_host_sparsity_pattern : 4 ms
[OGL LOG] matrix not stored update host matrix
[OGL LOG] update_host_mtx : 2 ms
[OGL LOG] matrix is not yet sorted, sorting host matrix
[OGL LOG] sort_host_mtx_sparsity_pattern : 3 ms
[OGL LOG] sort_host_mtx : 1 ms
[OGL LOG] init_preconditioner : 0 ms
[OGL LOG] solve : 31 ms
BJompGKOBiCGStab:  Solving for p, Initial residual = 0.0186171, Final residual = 8.93723e-05, No Iterations 39
linear solve p 43
time step continuity errors : sum local = 1.41567e-07, global = 4.83994e-21, cumulative = -7.40024e-20
[OGL LOG] init_host_sparsity_pattern : 4 ms
[OGL LOG] matrix not stored update host matrix
[OGL LOG] update_host_mtx : 2 ms
[OGL LOG] matrix is not yet sorted, sorting host matrix
[OGL LOG] sort_host_mtx_sparsity_pattern : 3 ms
[OGL LOG] sort_host_mtx : 1 ms
[OGL LOG] init_preconditioner : 0 ms
[OGL LOG] solve : 30 ms
BJompGKOBiCGStab:  Solving for p, Initial residual = 0.0126104, Final residual = 9.28024e-05, No Iterations 39
linear solve p 43
time step continuity errors : sum local = 1.28608e-07, global = -2.24693e-20, cumulative = -9.64717e-20
ExecutionTime = 14.36 s  ClockTime = 1 s

Time = 0.008

Courant Number mean: 0.032476 max: 0.201171
nonePBiCGStab:  Solving for Ux, Initial residual = 0.0165331, Final residual = 4.84391e-06, No Iterations 5
nonePBiCGStab:  Solving for Uy, Initial residual = 0.024621, Final residual = 6.50076e-06, No Iterations 5
nonePBiCGStab:  Solving for Uz, Initial residual = 0.0481276, Final residual = 3.54021e-05, No Iterations 5
linear solve U 5
[OGL LOG] init_host_sparsity_pattern : 4 ms
[OGL LOG] matrix not stored update host matrix
[OGL LOG] update_host_mtx : 2 ms
[OGL LOG] matrix is not yet sorted, sorting host matrix
[OGL LOG] sort_host_mtx_sparsity_pattern : 3 ms
[OGL LOG] sort_host_mtx : 1 ms
[OGL LOG] init_preconditioner : 0 ms
[OGL LOG] solve : 28 ms
BJompGKOBiCGStab:  Solving for p, Initial residual = 0.0151182, Final residual = 8.70693e-05, No Iterations 36
linear solve p 41
time step continuity errors : sum local = 1.45858e-07, global = -2.67731e-20, cumulative = -1.23245e-19
[OGL LOG] init_host_sparsity_pattern : 4 ms
[OGL LOG] matrix not stored update host matrix
[OGL LOG] update_host_mtx : 2 ms
[OGL LOG] matrix is not yet sorted, sorting host matrix
[OGL LOG] sort_host_mtx_sparsity_pattern : 3 ms
[OGL LOG] sort_host_mtx : 1 ms
[OGL LOG] init_preconditioner : 0 ms
[OGL LOG] solve : 29 ms
BJompGKOBiCGStab:  Solving for p, Initial residual = 0.0102873, Final residual = 8.38895e-05, No Iterations 37
linear solve p 41
time step continuity errors : sum local = 1.2989e-07, global = -1.0693e-20, cumulative = -1.33938e-19
ExecutionTime = 15.46 s  ClockTime = 1 s

Time = 0.009

Courant Number mean: 0.0338802 max: 0.203667
nonePBiCGStab:  Solving for Ux, Initial residual = 0.0137785, Final residual = 3.1236e-06, No Iterations 5
nonePBiCGStab:  Solving for Uy, Initial residual = 0.0207083, Final residual = 4.16678e-06, No Iterations 5
nonePBiCGStab:  Solving for Uz, Initial residual = 0.040926, Final residual = 2.12849e-05, No Iterations 5
linear solve U 5
[OGL LOG] init_host_sparsity_pattern : 4 ms
[OGL LOG] matrix not stored update host matrix
[OGL LOG] update_host_mtx : 2 ms
[OGL LOG] matrix is not yet sorted, sorting host matrix
[OGL LOG] sort_host_mtx_sparsity_pattern : 3 ms
[OGL LOG] sort_host_mtx : 1 ms
[OGL LOG] init_preconditioner : 0 ms
[OGL LOG] solve : 30 ms
BJompGKOBiCGStab:  Solving for p, Initial residual = 0.0123834, Final residual = 9.95373e-05, No Iterations 38
linear solve p 42
time step continuity errors : sum local = 1.62395e-07, global = 4.83136e-21, cumulative = -1.29107e-19
[OGL LOG] init_host_sparsity_pattern : 4 ms
[OGL LOG] matrix not stored update host matrix
[OGL LOG] update_host_mtx : 2 ms
[OGL LOG] matrix is not yet sorted, sorting host matrix
[OGL LOG] sort_host_mtx_sparsity_pattern : 3 ms
[OGL LOG] sort_host_mtx : 1 ms
[OGL LOG] init_preconditioner : 0 ms
[OGL LOG] solve : 35 ms
BJompGKOBiCGStab:  Solving for p, Initial residual = 0.00853782, Final residual = 9.31692e-05, No Iterations 39
linear solve p 49
time step continuity errors : sum local = 1.38873e-07, global = 2.51252e-20, cumulative = -1.03981e-19
ExecutionTime = 16.75 s  ClockTime = 1 s

Time = 0.01

Courant Number mean: 0.0350915 max: 0.205642
nonePBiCGStab:  Solving for Ux, Initial residual = 0.0117244, Final residual = 2.1358e-06, No Iterations 5
nonePBiCGStab:  Solving for Uy, Initial residual = 0.017721, Final residual = 2.95937e-06, No Iterations 5
nonePBiCGStab:  Solving for Uz, Initial residual = 0.0354532, Final residual = 1.55859e-05, No Iterations 5
linear solve U 6
[OGL LOG] init_host_sparsity_pattern : 4 ms
[OGL LOG] matrix not stored update host matrix
[OGL LOG] update_host_mtx : 2 ms
[OGL LOG] matrix is not yet sorted, sorting host matrix
[OGL LOG] sort_host_mtx_sparsity_pattern : 3 ms
[OGL LOG] sort_host_mtx : 1 ms
[OGL LOG] init_preconditioner : 0 ms
[OGL LOG] solve : 27 ms
BJompGKOBiCGStab:  Solving for p, Initial residual = 0.010606, Final residual = 8.65873e-05, No Iterations 36
linear solve p 41
time step continuity errors : sum local = 1.50734e-07, global = -2.1576e-20, cumulative = -1.25557e-19
[OGL LOG] init_host_sparsity_pattern : 4 ms
[OGL LOG] matrix not stored update host matrix
[OGL LOG] update_host_mtx : 2 ms
[OGL LOG] matrix is not yet sorted, sorting host matrix
[OGL LOG] sort_host_mtx_sparsity_pattern : 3 ms
[OGL LOG] sort_host_mtx : 1 ms
[OGL LOG] init_preconditioner : 0 ms
[OGL LOG] solve : 28 ms
BJompGKOBiCGStab:  Solving for p, Initial residual = 0.00733092, Final residual = 8.31135e-05, No Iterations 37
linear solve p 41
time step continuity errors : sum local = 1.45123e-07, global = 1.81014e-20, cumulative = -1.07456e-19
ExecutionTime = 17.78 s  ClockTime = 1 s

End

