/*---------------------------------------------------------------------------*\
  =========                 |
  \\      /  F ield         | OpenFOAM: The Open Source CFD Toolbox
   \\    /   O peration     | Website:  https://openfoam.org
    \\  /    A nd           | Version:  8
     \\/     M anipulation  |
\*---------------------------------------------------------------------------*/
Build  : 8-40a5a48f630f
Exec   : icoFoam
Date   : Jul 27 2021
Time   : 21:35:36
Host   : "uc2n481.localdomain"
PID    : 92273
I/O    : uncollated
Case   : /pfs/data5/home/kit/scc/nq7776/code/OBR/lidDrivenCavity3D/Variation_mesh/5/Variation_matrix_solver/IR_NoPrecond_CUDA/base
nProcs : 1
sigFpe : Enabling floating point exception trapping (FOAM_SIGFPE).
fileModificationChecking : Monitoring run-time modified files using timeStampMaster (fileModificationSkew 10)
allowSystemOperations : Allowing user-supplied system call operations

// * * * * * * * * * * * * * * * * * * * * * * * * * * * * * * * * * * * * * //
Create time

Create mesh for time = 0

Reading transportProperties

Reading field p

Reading field U

Reading/calculating face flux field phi


Starting time loop

Time = 0.001

Courant Number mean: 0 max: 0
nonePBiCGStab:  Solving for Ux, Initial residual = 1, Final residual = 2.34893e-07, No Iterations 3
nonePBiCGStab:  Solving for Uy, Initial residual = 0, Final residual = 0, No Iterations 0
nonePBiCGStab:  Solving for Uz, Initial residual = 0, Final residual = 0, No Iterations 0
linear solve U 0
[OGL LOG] init_host_sparsity_pattern : 0 ms
[OGL LOG] matrix not stored update host matrix
[OGL LOG] update_host_mtx : 0 ms
[OGL LOG] matrix is not yet sorted, compute sorting idxs
[OGL LOG] compute_sort : 0 ms
[OGL LOG] matrix is not yet sorted, sorting host matrix
[OGL LOG] sort_host_mtx_sparsity_pattern : 0 ms
[OGL LOG] sort_host_mtx : 0 ms
[OGL LOG] init_preconditioner : 0 ms
[OGL LOG] solve : 7 ms
nonecudaGKOIR:  Solving for p, Initial residual = 1, Final residual = 1.24903e-06, No Iterations 3
linear solve p 765
time step continuity errors : sum local = 2.3752e-10, global = 1.49172e-21, cumulative = 1.49172e-21
[OGL LOG] init_host_sparsity_pattern : 0 ms
[OGL LOG] matrix not stored update host matrix
[OGL LOG] update_host_mtx : 0 ms
[OGL LOG] matrix is not yet sorted, sorting host matrix
[OGL LOG] sort_host_mtx_sparsity_pattern : 0 ms
[OGL LOG] sort_host_mtx : 0 ms
[OGL LOG] init_preconditioner : 0 ms
[OGL LOG] solve : 5 ms
nonecudaGKOIR:  Solving for p, Initial residual = 0.0544902, Final residual = 6.3455e-06, No Iterations 2
linear solve p 5
time step continuity errors : sum local = 3.47754e-09, global = -1.82874e-21, cumulative = -3.37024e-22
ExecutionTime = 0.79 s  ClockTime = 1 s

Time = 0.002

Courant Number mean: 0.000593121 max: 0.00137347
nonePBiCGStab:  Solving for Ux, Initial residual = 0.290546, Final residual = 5.20342e-07, No Iterations 3
nonePBiCGStab:  Solving for Uy, Initial residual = 0.317549, Final residual = 8.88637e-08, No Iterations 3
nonePBiCGStab:  Solving for Uz, Initial residual = 0.318199, Final residual = 2.14355e-07, No Iterations 3
linear solve U 0
[OGL LOG] init_host_sparsity_pattern : 0 ms
[OGL LOG] matrix not stored update host matrix
[OGL LOG] update_host_mtx : 0 ms
[OGL LOG] matrix is not yet sorted, sorting host matrix
[OGL LOG] sort_host_mtx_sparsity_pattern : 0 ms
[OGL LOG] sort_host_mtx : 0 ms
[OGL LOG] init_preconditioner : 0 ms
[OGL LOG] solve : 5 ms
nonecudaGKOIR:  Solving for p, Initial residual = 0.110396, Final residual = 7.87662e-06, No Iterations 2
linear solve p 5
time step continuity errors : sum local = 3.15611e-09, global = 4.57508e-22, cumulative = 1.20484e-22
[OGL LOG] init_host_sparsity_pattern : 0 ms
[OGL LOG] matrix not stored update host matrix
[OGL LOG] update_host_mtx : 0 ms
[OGL LOG] matrix is not yet sorted, sorting host matrix
[OGL LOG] sort_host_mtx_sparsity_pattern : 0 ms
[OGL LOG] sort_host_mtx : 0 ms
[OGL LOG] init_preconditioner : 0 ms
[OGL LOG] solve : 2 ms
nonecudaGKOIR:  Solving for p, Initial residual = 0.00288568, Final residual = 3.19425e-05, No Iterations 1
linear solve p 2
time step continuity errors : sum local = 1.75789e-08, global = -1.01406e-20, cumulative = -1.00201e-20
ExecutionTime = 0.8 s  ClockTime = 1 s

Time = 0.003

Courant Number mean: 0.00113041 max: 0.00263299
nonePBiCGStab:  Solving for Ux, Initial residual = 0.161938, Final residual = 2.72971e-07, No Iterations 3
nonePBiCGStab:  Solving for Uy, Initial residual = 0.186585, Final residual = 5.5023e-08, No Iterations 3
nonePBiCGStab:  Solving for Uz, Initial residual = 0.22873, Final residual = 1.42462e-07, No Iterations 3
linear solve U 0
[OGL LOG] init_host_sparsity_pattern : 0 ms
[OGL LOG] matrix not stored update host matrix
[OGL LOG] update_host_mtx : 0 ms
[OGL LOG] matrix is not yet sorted, sorting host matrix
[OGL LOG] sort_host_mtx_sparsity_pattern : 0 ms
[OGL LOG] sort_host_mtx : 0 ms
[OGL LOG] init_preconditioner : 0 ms
[OGL LOG] solve : 4 ms
nonecudaGKOIR:  Solving for p, Initial residual = 0.0561942, Final residual = 3.4841e-06, No Iterations 2
linear solve p 5
time step continuity errors : sum local = 1.65954e-09, global = 3.60571e-21, cumulative = -6.41442e-21
[OGL LOG] init_host_sparsity_pattern : 0 ms
[OGL LOG] matrix not stored update host matrix
[OGL LOG] update_host_mtx : 0 ms
[OGL LOG] matrix is not yet sorted, sorting host matrix
[OGL LOG] sort_host_mtx_sparsity_pattern : 0 ms
[OGL LOG] sort_host_mtx : 0 ms
[OGL LOG] init_preconditioner : 0 ms
[OGL LOG] solve : 2 ms
nonecudaGKOIR:  Solving for p, Initial residual = 0.00152655, Final residual = 1.73473e-05, No Iterations 1
linear solve p 2
time step continuity errors : sum local = 1.19203e-08, global = 7.33926e-21, cumulative = 9.2484e-22
ExecutionTime = 0.81 s  ClockTime = 1 s

Time = 0.004

Courant Number mean: 0.00161821 max: 0.00379119
nonePBiCGStab:  Solving for Ux, Initial residual = 0.108864, Final residual = 1.69537e-07, No Iterations 3
nonePBiCGStab:  Solving for Uy, Initial residual = 0.129115, Final residual = 8.0824e-07, No Iterations 2
nonePBiCGStab:  Solving for Uz, Initial residual = 0.172633, Final residual = 7.44267e-08, No Iterations 3
linear solve U 0
[OGL LOG] init_host_sparsity_pattern : 0 ms
[OGL LOG] matrix not stored update host matrix
[OGL LOG] update_host_mtx : 0 ms
[OGL LOG] matrix is not yet sorted, sorting host matrix
[OGL LOG] sort_host_mtx_sparsity_pattern : 0 ms
[OGL LOG] sort_host_mtx : 0 ms
[OGL LOG] init_preconditioner : 0 ms
[OGL LOG] solve : 4 ms
nonecudaGKOIR:  Solving for p, Initial residual = 0.0347112, Final residual = 2.33197e-06, No Iterations 2
linear solve p 5
time step continuity errors : sum local = 1.22583e-09, global = -5.57621e-21, cumulative = -4.65137e-21
[OGL LOG] init_host_sparsity_pattern : 0 ms
[OGL LOG] matrix not stored update host matrix
[OGL LOG] update_host_mtx : 0 ms
[OGL LOG] matrix is not yet sorted, sorting host matrix
[OGL LOG] sort_host_mtx_sparsity_pattern : 0 ms
[OGL LOG] sort_host_mtx : 0 ms
[OGL LOG] init_preconditioner : 0 ms
[OGL LOG] solve : 2 ms
nonecudaGKOIR:  Solving for p, Initial residual = 0.00101163, Final residual = 1.10714e-05, No Iterations 1
linear solve p 2
time step continuity errors : sum local = 9.7449e-09, global = -1.62134e-20, cumulative = -2.08647e-20
ExecutionTime = 0.82 s  ClockTime = 1 s

Time = 0.005

Courant Number mean: 0.00206191 max: 0.00485793
nonePBiCGStab:  Solving for Ux, Initial residual = 0.0800557, Final residual = 1.1382e-07, No Iterations 3
nonePBiCGStab:  Solving for Uy, Initial residual = 0.0967067, Final residual = 5.8139e-07, No Iterations 2
nonePBiCGStab:  Solving for Uz, Initial residual = 0.140219, Final residual = 5.77197e-08, No Iterations 3
linear solve U 0
[OGL LOG] init_host_sparsity_pattern : 0 ms
[OGL LOG] matrix not stored update host matrix
[OGL LOG] update_host_mtx : 0 ms
[OGL LOG] matrix is not yet sorted, sorting host matrix
[OGL LOG] sort_host_mtx_sparsity_pattern : 0 ms
[OGL LOG] sort_host_mtx : 0 ms
[OGL LOG] init_preconditioner : 0 ms
[OGL LOG] solve : 5 ms
nonecudaGKOIR:  Solving for p, Initial residual = 0.0235799, Final residual = 2.08729e-06, No Iterations 2
linear solve p 5
time step continuity errors : sum local = 1.12882e-09, global = 1.33534e-20, cumulative = -7.51132e-21
[OGL LOG] init_host_sparsity_pattern : 0 ms
[OGL LOG] matrix not stored update host matrix
[OGL LOG] update_host_mtx : 0 ms
[OGL LOG] matrix is not yet sorted, sorting host matrix
[OGL LOG] sort_host_mtx_sparsity_pattern : 0 ms
[OGL LOG] sort_host_mtx : 0 ms
[OGL LOG] init_preconditioner : 0 ms
[OGL LOG] solve : 3 ms
nonecudaGKOIR:  Solving for p, Initial residual = 0.000759899, Final residual = 6.77024e-06, No Iterations 1
linear solve p 3
time step continuity errors : sum local = 3.75913e-09, global = 2.0209e-20, cumulative = 1.26977e-20
ExecutionTime = 0.83 s  ClockTime = 1 s

Time = 0.006

Courant Number mean: 0.00246619 max: 0.00584193
nonePBiCGStab:  Solving for Ux, Initial residual = 0.0620479, Final residual = 8.00228e-08, No Iterations 3
nonePBiCGStab:  Solving for Uy, Initial residual = 0.075971, Final residual = 4.33685e-07, No Iterations 2
nonePBiCGStab:  Solving for Uz, Initial residual = 0.116965, Final residual = 9.11828e-07, No Iterations 2
linear solve U 0
[OGL LOG] init_host_sparsity_pattern : 0 ms
[OGL LOG] matrix not stored update host matrix
[OGL LOG] update_host_mtx : 0 ms
[OGL LOG] matrix is not yet sorted, sorting host matrix
[OGL LOG] sort_host_mtx_sparsity_pattern : 0 ms
[OGL LOG] sort_host_mtx : 0 ms
[OGL LOG] init_preconditioner : 0 ms
[OGL LOG] solve : 5 ms
nonecudaGKOIR:  Solving for p, Initial residual = 0.0172336, Final residual = 1.44045e-06, No Iterations 2
linear solve p 5
time step continuity errors : sum local = 8.12338e-10, global = 3.36918e-21, cumulative = 1.60669e-20
[OGL LOG] init_host_sparsity_pattern : 0 ms
[OGL LOG] matrix not stored update host matrix
[OGL LOG] update_host_mtx : 0 ms
[OGL LOG] matrix is not yet sorted, sorting host matrix
[OGL LOG] sort_host_mtx_sparsity_pattern : 0 ms
[OGL LOG] sort_host_mtx : 0 ms
[OGL LOG] init_preconditioner : 0 ms
[OGL LOG] solve : 3 ms
nonecudaGKOIR:  Solving for p, Initial residual = 0.000606332, Final residual = 5.28986e-06, No Iterations 1
linear solve p 3
time step continuity errors : sum local = 2.9761e-09, global = 9.03956e-21, cumulative = 2.51064e-20
ExecutionTime = 0.84 s  ClockTime = 1 s

Time = 0.007

Courant Number mean: 0.00283513 max: 0.00675068
nonePBiCGStab:  Solving for Ux, Initial residual = 0.0497732, Final residual = 9.32012e-07, No Iterations 2
nonePBiCGStab:  Solving for Uy, Initial residual = 0.0616441, Final residual = 3.31763e-07, No Iterations 2
nonePBiCGStab:  Solving for Uz, Initial residual = 0.0993503, Final residual = 7.45264e-07, No Iterations 2
linear solve U 0
[OGL LOG] init_host_sparsity_pattern : 0 ms
[OGL LOG] matrix not stored update host matrix
[OGL LOG] update_host_mtx : 0 ms
[OGL LOG] matrix is not yet sorted, sorting host matrix
[OGL LOG] sort_host_mtx_sparsity_pattern : 0 ms
[OGL LOG] sort_host_mtx : 0 ms
[OGL LOG] init_preconditioner : 0 ms
[OGL LOG] solve : 5 ms
nonecudaGKOIR:  Solving for p, Initial residual = 0.0132639, Final residual = 1.16978e-06, No Iterations 2
linear solve p 5
time step continuity errors : sum local = 6.8628e-10, global = 8.39676e-21, cumulative = 3.35032e-20
[OGL LOG] init_host_sparsity_pattern : 0 ms
[OGL LOG] matrix not stored update host matrix
[OGL LOG] update_host_mtx : 0 ms
[OGL LOG] matrix is not yet sorted, sorting host matrix
[OGL LOG] sort_host_mtx_sparsity_pattern : 0 ms
[OGL LOG] sort_host_mtx : 0 ms
[OGL LOG] init_preconditioner : 0 ms
[OGL LOG] solve : 3 ms
nonecudaGKOIR:  Solving for p, Initial residual = 0.000504528, Final residual = 3.83705e-06, No Iterations 1
linear solve p 3
time step continuity errors : sum local = 2.2806e-09, global = 4.89639e-22, cumulative = 3.39928e-20
ExecutionTime = 0.85 s  ClockTime = 1 s

Time = 0.008

Courant Number mean: 0.00317231 max: 0.00759081
nonePBiCGStab:  Solving for Ux, Initial residual = 0.0409091, Final residual = 7.07867e-07, No Iterations 2
nonePBiCGStab:  Solving for Uy, Initial residual = 0.0512028, Final residual = 2.58962e-07, No Iterations 2
nonePBiCGStab:  Solving for Uz, Initial residual = 0.0860623, Final residual = 6.47414e-07, No Iterations 2
linear solve U 0
[OGL LOG] init_host_sparsity_pattern : 0 ms
[OGL LOG] matrix not stored update host matrix
[OGL LOG] update_host_mtx : 0 ms
[OGL LOG] matrix is not yet sorted, sorting host matrix
[OGL LOG] sort_host_mtx_sparsity_pattern : 0 ms
[OGL LOG] sort_host_mtx : 0 ms
[OGL LOG] init_preconditioner : 0 ms
[OGL LOG] solve : 5 ms
nonecudaGKOIR:  Solving for p, Initial residual = 0.0105945, Final residual = 8.61549e-07, No Iterations 2
linear solve p 5
time step continuity errors : sum local = 4.97754e-10, global = 1.92234e-20, cumulative = 5.32162e-20
[OGL LOG] init_host_sparsity_pattern : 0 ms
[OGL LOG] matrix not stored update host matrix
[OGL LOG] update_host_mtx : 0 ms
[OGL LOG] matrix is not yet sorted, sorting host matrix
[OGL LOG] sort_host_mtx_sparsity_pattern : 0 ms
[OGL LOG] sort_host_mtx : 0 ms
[OGL LOG] init_preconditioner : 0 ms
[OGL LOG] solve : 3 ms
nonecudaGKOIR:  Solving for p, Initial residual = 0.000450241, Final residual = 3.82754e-06, No Iterations 1
linear solve p 3
time step continuity errors : sum local = 2.3193e-09, global = -2.11835e-20, cumulative = 3.20327e-20
ExecutionTime = 0.86 s  ClockTime = 1 s

Time = 0.009

Courant Number mean: 0.00348091 max: 0.00836826
nonePBiCGStab:  Solving for Ux, Initial residual = 0.0342358, Final residual = 5.43661e-07, No Iterations 2
nonePBiCGStab:  Solving for Uy, Initial residual = 0.0432921, Final residual = 2.0503e-07, No Iterations 2
nonePBiCGStab:  Solving for Uz, Initial residual = 0.0759452, Final residual = 5.68897e-07, No Iterations 2
linear solve U 0
[OGL LOG] init_host_sparsity_pattern : 0 ms
[OGL LOG] matrix not stored update host matrix
[OGL LOG] update_host_mtx : 0 ms
[OGL LOG] matrix is not yet sorted, sorting host matrix
[OGL LOG] sort_host_mtx_sparsity_pattern : 0 ms
[OGL LOG] sort_host_mtx : 0 ms
[OGL LOG] init_preconditioner : 0 ms
[OGL LOG] solve : 3 ms
nonecudaGKOIR:  Solving for p, Initial residual = 0.00871011, Final residual = 6.12784e-05, No Iterations 1
linear solve p 3
time step continuity errors : sum local = 3.74403e-08, global = -1.36485e-20, cumulative = 1.83842e-20
[OGL LOG] init_host_sparsity_pattern : 0 ms
[OGL LOG] matrix not stored update host matrix
[OGL LOG] update_host_mtx : 0 ms
[OGL LOG] matrix is not yet sorted, sorting host matrix
[OGL LOG] sort_host_mtx_sparsity_pattern : 0 ms
[OGL LOG] sort_host_mtx : 0 ms
[OGL LOG] init_preconditioner : 0 ms
[OGL LOG] solve : 3 ms
nonecudaGKOIR:  Solving for p, Initial residual = 0.000418259, Final residual = 4.10218e-06, No Iterations 1
linear solve p 3
time step continuity errors : sum local = 2.47837e-09, global = -1.177e-20, cumulative = 6.61429e-21
ExecutionTime = 0.87 s  ClockTime = 1 s

Time = 0.01

Courant Number mean: 0.00376371 max: 0.00908822
nonePBiCGStab:  Solving for Ux, Initial residual = 0.0290533, Final residual = 4.21016e-07, No Iterations 2
nonePBiCGStab:  Solving for Uy, Initial residual = 0.0371178, Final residual = 1.64384e-07, No Iterations 2
nonePBiCGStab:  Solving for Uz, Initial residual = 0.0678651, Final residual = 4.95176e-07, No Iterations 2
linear solve U 0
[OGL LOG] init_host_sparsity_pattern : 0 ms
[OGL LOG] matrix not stored update host matrix
[OGL LOG] update_host_mtx : 0 ms
[OGL LOG] matrix is not yet sorted, sorting host matrix
[OGL LOG] sort_host_mtx_sparsity_pattern : 0 ms
[OGL LOG] sort_host_mtx : 0 ms
[OGL LOG] init_preconditioner : 0 ms
[OGL LOG] solve : 3 ms
nonecudaGKOIR:  Solving for p, Initial residual = 0.0073259, Final residual = 5.67565e-05, No Iterations 1
linear solve p 3
time step continuity errors : sum local = 3.51298e-08, global = 1.20636e-20, cumulative = 1.86779e-20
[OGL LOG] init_host_sparsity_pattern : 0 ms
[OGL LOG] matrix not stored update host matrix
[OGL LOG] update_host_mtx : 0 ms
[OGL LOG] matrix is not yet sorted, sorting host matrix
[OGL LOG] sort_host_mtx_sparsity_pattern : 0 ms
[OGL LOG] sort_host_mtx : 0 ms
[OGL LOG] init_preconditioner : 0 ms
[OGL LOG] solve : 3 ms
nonecudaGKOIR:  Solving for p, Initial residual = 0.000381575, Final residual = 3.72781e-06, No Iterations 1
linear solve p 3
time step continuity errors : sum local = 2.27829e-09, global = 1.84137e-20, cumulative = 3.70916e-20
ExecutionTime = 0.87 s  ClockTime = 1 s

End

