/*---------------------------------------------------------------------------*\
  =========                 |
  \\      /  F ield         | OpenFOAM: The Open Source CFD Toolbox
   \\    /   O peration     | Website:  https://openfoam.org
    \\  /    A nd           | Version:  8
     \\/     M anipulation  |
\*---------------------------------------------------------------------------*/
Build  : 8-40a5a48f630f
Exec   : icoFoam
Date   : Jul 28 2021
Time   : 02:06:27
Host   : "uc2n559.localdomain"
PID    : 3613392
I/O    : uncollated
Case   : /pfs/data5/home/kit/scc/nq7776/code/OBR/lidDrivenCavity3D/Variation_mesh/40/Variation_matrix_solver/BiCGStab_BJ_OMP/base
nProcs : 1
sigFpe : Enabling floating point exception trapping (FOAM_SIGFPE).
fileModificationChecking : Monitoring run-time modified files using timeStampMaster (fileModificationSkew 10)
allowSystemOperations : Allowing user-supplied system call operations

// * * * * * * * * * * * * * * * * * * * * * * * * * * * * * * * * * * * * * //
Create time

Create mesh for time = 0

Reading transportProperties

Reading field p

Reading field U

Reading/calculating face flux field phi


Starting time loop

Time = 0.001

Courant Number mean: 0 max: 0
nonePBiCGStab:  Solving for Ux, Initial residual = 1, Final residual = 0.0197517, No Iterations 5
nonePBiCGStab:  Solving for Uy, Initial residual = 0, Final residual = 0, No Iterations 0
nonePBiCGStab:  Solving for Uz, Initial residual = 0, Final residual = 0, No Iterations 0
linear solve U 14
[OGL LOG] init_host_sparsity_pattern : 19 ms
[OGL LOG] matrix not stored update host matrix
[OGL LOG] update_host_mtx : 10 ms
[OGL LOG] matrix is not yet sorted, compute sorting idxs
[OGL LOG] compute_sort : 501 ms
[OGL LOG] matrix is not yet sorted, sorting host matrix
[OGL LOG] sort_host_mtx_sparsity_pattern : 13 ms
[OGL LOG] sort_host_mtx : 7 ms
[OGL LOG] init_preconditioner : 8 ms
[OGL LOG] solve : 413 ms
BJompGKOBiCGStab:  Solving for p, Initial residual = 1, Final residual = 8.62669e-05, No Iterations 202
linear solve p 1009
time step continuity errors : sum local = 7.61071e-07, global = -2.38269e-20, cumulative = -2.38269e-20
[OGL LOG] init_host_sparsity_pattern : 18 ms
[OGL LOG] matrix not stored update host matrix
[OGL LOG] update_host_mtx : 9 ms
[OGL LOG] matrix is not yet sorted, sorting host matrix
[OGL LOG] sort_host_mtx_sparsity_pattern : 13 ms
[OGL LOG] sort_host_mtx : 6 ms
[OGL LOG] init_preconditioner : 0 ms
[OGL LOG] solve : 388 ms
BJompGKOBiCGStab:  Solving for p, Initial residual = 0.598927, Final residual = 8.17093e-05, No Iterations 210
linear solve p 445
time step continuity errors : sum local = 9.79875e-07, global = 9.42272e-21, cumulative = -1.44042e-20
ExecutionTime = 26.96 s  ClockTime = 1 s

Time = 0.002

Courant Number mean: 0.0210254 max: 0.237019
nonePBiCGStab:  Solving for Ux, Initial residual = 0.177642, Final residual = 0.00671132, No Iterations 5
nonePBiCGStab:  Solving for Uy, Initial residual = 0.294184, Final residual = 0.00796709, No Iterations 5
nonePBiCGStab:  Solving for Uz, Initial residual = 0.940335, Final residual = 0.0373145, No Iterations 5
linear solve U 27
[OGL LOG] init_host_sparsity_pattern : 18 ms
[OGL LOG] matrix not stored update host matrix
[OGL LOG] update_host_mtx : 9 ms
[OGL LOG] matrix is not yet sorted, sorting host matrix
[OGL LOG] sort_host_mtx_sparsity_pattern : 13 ms
[OGL LOG] sort_host_mtx : 6 ms
[OGL LOG] init_preconditioner : 0 ms
[OGL LOG] solve : 340 ms
BJompGKOBiCGStab:  Solving for p, Initial residual = 0.458262, Final residual = 9.14242e-05, No Iterations 177
linear solve p 401
time step continuity errors : sum local = 4.01491e-06, global = -2.92558e-21, cumulative = -1.73298e-20
[OGL LOG] init_host_sparsity_pattern : 18 ms
[OGL LOG] matrix not stored update host matrix
[OGL LOG] update_host_mtx : 9 ms
[OGL LOG] matrix is not yet sorted, sorting host matrix
[OGL LOG] sort_host_mtx_sparsity_pattern : 14 ms
[OGL LOG] sort_host_mtx : 6 ms
[OGL LOG] init_preconditioner : 0 ms
[OGL LOG] solve : 173 ms
BJompGKOBiCGStab:  Solving for p, Initial residual = 0.3639, Final residual = 9.96024e-05, No Iterations 90
linear solve p 236
time step continuity errors : sum local = 1.39746e-07, global = -9.74186e-21, cumulative = -2.70717e-20
ExecutionTime = 43.98 s  ClockTime = 2 s

Time = 0.003

Courant Number mean: 0.0321005 max: 0.305896
nonePBiCGStab:  Solving for Ux, Initial residual = 0.0656568, Final residual = 0.00131769, No Iterations 5
nonePBiCGStab:  Solving for Uy, Initial residual = 0.107943, Final residual = 0.00193433, No Iterations 5
nonePBiCGStab:  Solving for Uz, Initial residual = 0.188319, Final residual = 0.00951142, No Iterations 5
linear solve U 29
[OGL LOG] init_host_sparsity_pattern : 19 ms
[OGL LOG] matrix not stored update host matrix
[OGL LOG] update_host_mtx : 10 ms
[OGL LOG] matrix is not yet sorted, sorting host matrix
[OGL LOG] sort_host_mtx_sparsity_pattern : 14 ms
[OGL LOG] sort_host_mtx : 6 ms
[OGL LOG] init_preconditioner : 0 ms
[OGL LOG] solve : 343 ms
BJompGKOBiCGStab:  Solving for p, Initial residual = 0.164935, Final residual = 8.23975e-05, No Iterations 183
linear solve p 404
time step continuity errors : sum local = 4.40504e-07, global = 1.33051e-20, cumulative = -1.37665e-20
[OGL LOG] init_host_sparsity_pattern : 19 ms
[OGL LOG] matrix not stored update host matrix
[OGL LOG] update_host_mtx : 9 ms
[OGL LOG] matrix is not yet sorted, sorting host matrix
[OGL LOG] sort_host_mtx_sparsity_pattern : 13 ms
[OGL LOG] sort_host_mtx : 6 ms
[OGL LOG] init_preconditioner : 0 ms
[OGL LOG] solve : 338 ms
BJompGKOBiCGStab:  Solving for p, Initial residual = 0.128933, Final residual = 9.00341e-05, No Iterations 183
linear solve p 396
time step continuity errors : sum local = 2.01684e-06, global = 4.98394e-21, cumulative = -8.78256e-21
ExecutionTime = 66.29 s  ClockTime = 3 s

Time = 0.004

Courant Number mean: 0.0386724 max: 0.327544
nonePBiCGStab:  Solving for Ux, Initial residual = 0.0386794, Final residual = 0.000678565, No Iterations 5
nonePBiCGStab:  Solving for Uy, Initial residual = 0.0673587, Final residual = 0.000803787, No Iterations 5
nonePBiCGStab:  Solving for Uz, Initial residual = 0.131837, Final residual = 0.00502753, No Iterations 5
linear solve U 27
[OGL LOG] init_host_sparsity_pattern : 18 ms
[OGL LOG] matrix not stored update host matrix
[OGL LOG] update_host_mtx : 9 ms
[OGL LOG] matrix is not yet sorted, sorting host matrix
[OGL LOG] sort_host_mtx_sparsity_pattern : 13 ms
[OGL LOG] sort_host_mtx : 6 ms
[OGL LOG] init_preconditioner : 0 ms
[OGL LOG] solve : 313 ms
BJompGKOBiCGStab:  Solving for p, Initial residual = 0.088401, Final residual = 9.9126e-05, No Iterations 171
linear solve p 369
time step continuity errors : sum local = 8.20684e-07, global = -1.90293e-20, cumulative = -2.78118e-20
[OGL LOG] init_host_sparsity_pattern : 20 ms
[OGL LOG] matrix not stored update host matrix
[OGL LOG] update_host_mtx : 10 ms
[OGL LOG] matrix is not yet sorted, sorting host matrix
[OGL LOG] sort_host_mtx_sparsity_pattern : 14 ms
[OGL LOG] sort_host_mtx : 6 ms
[OGL LOG] init_preconditioner : 0 ms
[OGL LOG] solve : 351 ms
BJompGKOBiCGStab:  Solving for p, Initial residual = 0.0669988, Final residual = 8.55819e-05, No Iterations 177
linear solve p 411
time step continuity errors : sum local = 7.43184e-07, global = 1.78987e-20, cumulative = -9.91315e-21
ExecutionTime = 88.08 s  ClockTime = 4 s

Time = 0.005

Courant Number mean: 0.0434756 max: 0.337861
nonePBiCGStab:  Solving for Ux, Initial residual = 0.0269371, Final residual = 0.000461426, No Iterations 5
nonePBiCGStab:  Solving for Uy, Initial residual = 0.0467601, Final residual = 0.000464723, No Iterations 5
nonePBiCGStab:  Solving for Uz, Initial residual = 0.0932014, Final residual = 0.00288494, No Iterations 5
linear solve U 27
[OGL LOG] init_host_sparsity_pattern : 18 ms
[OGL LOG] matrix not stored update host matrix
[OGL LOG] update_host_mtx : 9 ms
[OGL LOG] matrix is not yet sorted, sorting host matrix
[OGL LOG] sort_host_mtx_sparsity_pattern : 13 ms
[OGL LOG] sort_host_mtx : 6 ms
[OGL LOG] init_preconditioner : 0 ms
[OGL LOG] solve : 321 ms
BJompGKOBiCGStab:  Solving for p, Initial residual = 0.0454315, Final residual = 9.84818e-05, No Iterations 171
linear solve p 378
time step continuity errors : sum local = 1.06791e-05, global = 7.05358e-21, cumulative = -2.85958e-21
[OGL LOG] init_host_sparsity_pattern : 18 ms
[OGL LOG] matrix not stored update host matrix
[OGL LOG] update_host_mtx : 9 ms
[OGL LOG] matrix is not yet sorted, sorting host matrix
[OGL LOG] sort_host_mtx_sparsity_pattern : 12 ms
[OGL LOG] sort_host_mtx : 6 ms
[OGL LOG] init_preconditioner : 0 ms
[OGL LOG] solve : 306 ms
BJompGKOBiCGStab:  Solving for p, Initial residual = 0.0519276, Final residual = 8.96966e-05, No Iterations 163
linear solve p 363
time step continuity errors : sum local = 8.82184e-08, global = 3.26793e-20, cumulative = 2.98197e-20
ExecutionTime = 108.75 s  ClockTime = 5 s

Time = 0.006

Courant Number mean: 0.0471957 max: 0.344025
nonePBiCGStab:  Solving for Ux, Initial residual = 0.020476, Final residual = 0.000323232, No Iterations 5
nonePBiCGStab:  Solving for Uy, Initial residual = 0.0360367, Final residual = 0.000560002, No Iterations 5
nonePBiCGStab:  Solving for Uz, Initial residual = 0.0851236, Final residual = 0.00304036, No Iterations 5
linear solve U 28
[OGL LOG] init_host_sparsity_pattern : 19 ms
[OGL LOG] matrix not stored update host matrix
[OGL LOG] update_host_mtx : 9 ms
[OGL LOG] matrix is not yet sorted, sorting host matrix
[OGL LOG] sort_host_mtx_sparsity_pattern : 12 ms
[OGL LOG] sort_host_mtx : 6 ms
[OGL LOG] init_preconditioner : 0 ms
[OGL LOG] solve : 138 ms
BJompGKOBiCGStab:  Solving for p, Initial residual = 0.0343476, Final residual = 9.60838e-05, No Iterations 69
linear solve p 196
time step continuity errors : sum local = 1.34046e-07, global = -3.92819e-20, cumulative = -9.4622e-21
[OGL LOG] init_host_sparsity_pattern : 20 ms
[OGL LOG] matrix not stored update host matrix
[OGL LOG] update_host_mtx : 9 ms
[OGL LOG] matrix is not yet sorted, sorting host matrix
[OGL LOG] sort_host_mtx_sparsity_pattern : 13 ms
[OGL LOG] sort_host_mtx : 6 ms
[OGL LOG] init_preconditioner : 0 ms
[OGL LOG] solve : 122 ms
BJompGKOBiCGStab:  Solving for p, Initial residual = 0.0262321, Final residual = 9.25826e-05, No Iterations 62
linear solve p 182
time step continuity errors : sum local = 1.68753e-07, global = -1.84378e-20, cumulative = -2.79001e-20
ExecutionTime = 117.69 s  ClockTime = 5 s

Time = 0.007

Courant Number mean: 0.0502248 max: 0.348243
nonePBiCGStab:  Solving for Ux, Initial residual = 0.0163912, Final residual = 0.000134668, No Iterations 5
nonePBiCGStab:  Solving for Uy, Initial residual = 0.0283657, Final residual = 0.000196954, No Iterations 5
nonePBiCGStab:  Solving for Uz, Initial residual = 0.0569128, Final residual = 0.00130235, No Iterations 5
linear solve U 30
[OGL LOG] init_host_sparsity_pattern : 18 ms
[OGL LOG] matrix not stored update host matrix
[OGL LOG] update_host_mtx : 10 ms
[OGL LOG] matrix is not yet sorted, sorting host matrix
[OGL LOG] sort_host_mtx_sparsity_pattern : 13 ms
[OGL LOG] sort_host_mtx : 6 ms
[OGL LOG] init_preconditioner : 0 ms
[OGL LOG] solve : 133 ms
BJompGKOBiCGStab:  Solving for p, Initial residual = 0.0247133, Final residual = 9.80623e-05, No Iterations 67
linear solve p 192
time step continuity errors : sum local = 1.01766e-07, global = 1.72009e-20, cumulative = -1.06992e-20
[OGL LOG] init_host_sparsity_pattern : 20 ms
[OGL LOG] matrix not stored update host matrix
[OGL LOG] update_host_mtx : 10 ms
[OGL LOG] matrix is not yet sorted, sorting host matrix
[OGL LOG] sort_host_mtx_sparsity_pattern : 13 ms
[OGL LOG] sort_host_mtx : 6 ms
[OGL LOG] init_preconditioner : 0 ms
[OGL LOG] solve : 125 ms
BJompGKOBiCGStab:  Solving for p, Initial residual = 0.0203241, Final residual = 9.79579e-05, No Iterations 66
linear solve p 184
time step continuity errors : sum local = 7.36331e-08, global = -2.62649e-20, cumulative = -3.69641e-20
ExecutionTime = 126.57 s  ClockTime = 6 s

Time = 0.008

Courant Number mean: 0.0527934 max: 0.351368
nonePBiCGStab:  Solving for Ux, Initial residual = 0.0132993, Final residual = 0.00011853, No Iterations 5
nonePBiCGStab:  Solving for Uy, Initial residual = 0.0236914, Final residual = 0.000120088, No Iterations 5
nonePBiCGStab:  Solving for Uz, Initial residual = 0.0451553, Final residual = 0.000675312, No Iterations 5
linear solve U 28
[OGL LOG] init_host_sparsity_pattern : 19 ms
[OGL LOG] matrix not stored update host matrix
[OGL LOG] update_host_mtx : 9 ms
[OGL LOG] matrix is not yet sorted, sorting host matrix
[OGL LOG] sort_host_mtx_sparsity_pattern : 13 ms
[OGL LOG] sort_host_mtx : 6 ms
[OGL LOG] init_preconditioner : 0 ms
[OGL LOG] solve : 125 ms
BJompGKOBiCGStab:  Solving for p, Initial residual = 0.019018, Final residual = 9.02921e-05, No Iterations 64
linear solve p 183
time step continuity errors : sum local = 7.93555e-08, global = -1.71626e-20, cumulative = -5.41267e-20
[OGL LOG] init_host_sparsity_pattern : 19 ms
[OGL LOG] matrix not stored update host matrix
[OGL LOG] update_host_mtx : 9 ms
[OGL LOG] matrix is not yet sorted, sorting host matrix
[OGL LOG] sort_host_mtx_sparsity_pattern : 13 ms
[OGL LOG] sort_host_mtx : 6 ms
[OGL LOG] init_preconditioner : 0 ms
[OGL LOG] solve : 119 ms
BJompGKOBiCGStab:  Solving for p, Initial residual = 0.0159882, Final residual = 9.16334e-05, No Iterations 61
linear solve p 178
time step continuity errors : sum local = 5.90792e-08, global = -7.07065e-21, cumulative = -6.11973e-20
ExecutionTime = 135 s  ClockTime = 6 s

Time = 0.009

Courant Number mean: 0.0549801 max: 0.353775
nonePBiCGStab:  Solving for Ux, Initial residual = 0.0111883, Final residual = 7.39216e-05, No Iterations 5
nonePBiCGStab:  Solving for Uy, Initial residual = 0.0199338, Final residual = 9.1718e-05, No Iterations 5
nonePBiCGStab:  Solving for Uz, Initial residual = 0.0390128, Final residual = 0.000364965, No Iterations 5
linear solve U 29
[OGL LOG] init_host_sparsity_pattern : 20 ms
[OGL LOG] matrix not stored update host matrix
[OGL LOG] update_host_mtx : 10 ms
[OGL LOG] matrix is not yet sorted, sorting host matrix
[OGL LOG] sort_host_mtx_sparsity_pattern : 13 ms
[OGL LOG] sort_host_mtx : 6 ms
[OGL LOG] init_preconditioner : 0 ms
[OGL LOG] solve : 129 ms
BJompGKOBiCGStab:  Solving for p, Initial residual = 0.0156801, Final residual = 8.21359e-05, No Iterations 65
linear solve p 190
time step continuity errors : sum local = 8.31006e-08, global = 3.85019e-20, cumulative = -2.26954e-20
[OGL LOG] init_host_sparsity_pattern : 19 ms
[OGL LOG] matrix not stored update host matrix
[OGL LOG] update_host_mtx : 10 ms
[OGL LOG] matrix is not yet sorted, sorting host matrix
[OGL LOG] sort_host_mtx_sparsity_pattern : 13 ms
[OGL LOG] sort_host_mtx : 6 ms
[OGL LOG] init_preconditioner : 0 ms
[OGL LOG] solve : 117 ms
BJompGKOBiCGStab:  Solving for p, Initial residual = 0.0132788, Final residual = 9.51415e-05, No Iterations 60
linear solve p 177
time step continuity errors : sum local = 6.85043e-08, global = -6.95806e-21, cumulative = -2.96535e-20
ExecutionTime = 143.52 s  ClockTime = 6 s

Time = 0.01

Courant Number mean: 0.0568627 max: 0.355702
nonePBiCGStab:  Solving for Ux, Initial residual = 0.00952412, Final residual = 6.28744e-05, No Iterations 5
nonePBiCGStab:  Solving for Uy, Initial residual = 0.0171689, Final residual = 6.55308e-05, No Iterations 5
nonePBiCGStab:  Solving for Uz, Initial residual = 0.0332208, Final residual = 0.000330043, No Iterations 5
linear solve U 29
[OGL LOG] init_host_sparsity_pattern : 19 ms
[OGL LOG] matrix not stored update host matrix
[OGL LOG] update_host_mtx : 10 ms
[OGL LOG] matrix is not yet sorted, sorting host matrix
[OGL LOG] sort_host_mtx_sparsity_pattern : 13 ms
[OGL LOG] sort_host_mtx : 6 ms
[OGL LOG] init_preconditioner : 0 ms
[OGL LOG] solve : 121 ms
BJompGKOBiCGStab:  Solving for p, Initial residual = 0.0133383, Final residual = 9.87259e-05, No Iterations 61
linear solve p 181
time step continuity errors : sum local = 6.6201e-08, global = 5.80289e-21, cumulative = -2.38506e-20
[OGL LOG] init_host_sparsity_pattern : 19 ms
[OGL LOG] matrix not stored update host matrix
[OGL LOG] update_host_mtx : 9 ms
[OGL LOG] matrix is not yet sorted, sorting host matrix
[OGL LOG] sort_host_mtx_sparsity_pattern : 13 ms
[OGL LOG] sort_host_mtx : 6 ms
[OGL LOG] init_preconditioner : 0 ms
[OGL LOG] solve : 108 ms
BJompGKOBiCGStab:  Solving for p, Initial residual = 0.0113632, Final residual = 9.51937e-05, No Iterations 56
linear solve p 166
time step continuity errors : sum local = 8.44187e-08, global = 3.01916e-20, cumulative = 6.34099e-21
ExecutionTime = 151.46 s  ClockTime = 7 s

End

