/*---------------------------------------------------------------------------*\
  =========                 |
  \\      /  F ield         | OpenFOAM: The Open Source CFD Toolbox
   \\    /   O peration     | Website:  https://openfoam.org
    \\  /    A nd           | Version:  8
     \\/     M anipulation  |
\*---------------------------------------------------------------------------*/
Build  : 8-40a5a48f630f
Exec   : icoFoam
Date   : Jul 28 2021
Time   : 02:08:07
Host   : "uc2n559.localdomain"
PID    : 3617445
I/O    : uncollated
Case   : /pfs/data5/home/kit/scc/nq7776/code/OBR/lidDrivenCavity3D/Variation_mesh/25/Variation_matrix_solver/BiCGStab_NoPrecond_OMP/base
nProcs : 1
sigFpe : Enabling floating point exception trapping (FOAM_SIGFPE).
fileModificationChecking : Monitoring run-time modified files using timeStampMaster (fileModificationSkew 10)
allowSystemOperations : Allowing user-supplied system call operations

// * * * * * * * * * * * * * * * * * * * * * * * * * * * * * * * * * * * * * //
Create time

Create mesh for time = 0

Reading transportProperties

Reading field p

Reading field U

Reading/calculating face flux field phi


Starting time loop

Time = 0.001

Courant Number mean: 0 max: 0
nonePBiCGStab:  Solving for Ux, Initial residual = 1, Final residual = 0.00310183, No Iterations 5
nonePBiCGStab:  Solving for Uy, Initial residual = 0, Final residual = 0, No Iterations 0
nonePBiCGStab:  Solving for Uz, Initial residual = 0, Final residual = 0, No Iterations 0
linear solve U 2
[OGL LOG] init_host_sparsity_pattern : 4 ms
[OGL LOG] matrix not stored update host matrix
[OGL LOG] update_host_mtx : 2 ms
[OGL LOG] matrix is not yet sorted, compute sorting idxs
[OGL LOG] compute_sort : 105 ms
[OGL LOG] matrix is not yet sorted, sorting host matrix
[OGL LOG] sort_host_mtx_sparsity_pattern : 3 ms
[OGL LOG] sort_host_mtx : 1 ms
[OGL LOG] init_preconditioner : 0 ms
[OGL LOG] solve : 117 ms
noneompGKOBiCGStab:  Solving for p, Initial residual = 1, Final residual = 7.67433e-05, No Iterations 160
linear solve p 253
time step continuity errors : sum local = 8.5393e-07, global = -1.97845e-20, cumulative = -1.97845e-20
[OGL LOG] init_host_sparsity_pattern : 4 ms
[OGL LOG] matrix not stored update host matrix
[OGL LOG] update_host_mtx : 2 ms
[OGL LOG] matrix is not yet sorted, sorting host matrix
[OGL LOG] sort_host_mtx_sparsity_pattern : 3 ms
[OGL LOG] sort_host_mtx : 1 ms
[OGL LOG] init_preconditioner : 0 ms
[OGL LOG] solve : 93 ms
noneompGKOBiCGStab:  Solving for p, Initial residual = 0.481096, Final residual = 7.37886e-05, No Iterations 154
linear solve p 106
time step continuity errors : sum local = 2.64938e-06, global = 4.57103e-21, cumulative = -1.52135e-20
ExecutionTime = 7.25 s  ClockTime = 0 s

Time = 0.002

Courant Number mean: 0.0119715 max: 0.106554
nonePBiCGStab:  Solving for Ux, Initial residual = 0.210826, Final residual = 0.000695574, No Iterations 5
nonePBiCGStab:  Solving for Uy, Initial residual = 0.284546, Final residual = 0.000660675, No Iterations 5
nonePBiCGStab:  Solving for Uz, Initial residual = 0.860624, Final residual = 0.00329712, No Iterations 5
linear solve U 5
[OGL LOG] init_host_sparsity_pattern : 4 ms
[OGL LOG] matrix not stored update host matrix
[OGL LOG] update_host_mtx : 2 ms
[OGL LOG] matrix is not yet sorted, sorting host matrix
[OGL LOG] sort_host_mtx_sparsity_pattern : 3 ms
[OGL LOG] sort_host_mtx : 1 ms
[OGL LOG] init_preconditioner : 0 ms
[OGL LOG] solve : 88 ms
noneompGKOBiCGStab:  Solving for p, Initial residual = 0.288105, Final residual = 9.75353e-05, No Iterations 146
linear solve p 101
time step continuity errors : sum local = 1.70353e-06, global = -1.58529e-20, cumulative = -3.10664e-20
[OGL LOG] init_host_sparsity_pattern : 4 ms
[OGL LOG] matrix not stored update host matrix
[OGL LOG] update_host_mtx : 2 ms
[OGL LOG] matrix is not yet sorted, sorting host matrix
[OGL LOG] sort_host_mtx_sparsity_pattern : 3 ms
[OGL LOG] sort_host_mtx : 1 ms
[OGL LOG] init_preconditioner : 0 ms
[OGL LOG] solve : 87 ms
noneompGKOBiCGStab:  Solving for p, Initial residual = 0.191124, Final residual = 8.96736e-05, No Iterations 145
linear solve p 100
time step continuity errors : sum local = 1.68529e-06, global = -2.6257e-20, cumulative = -5.73234e-20
ExecutionTime = 13.2 s  ClockTime = 0 s

Time = 0.003

Courant Number mean: 0.0188466 max: 0.153564
nonePBiCGStab:  Solving for Ux, Initial residual = 0.0899987, Final residual = 0.000292746, No Iterations 5
nonePBiCGStab:  Solving for Uy, Initial residual = 0.124896, Final residual = 0.000213631, No Iterations 5
nonePBiCGStab:  Solving for Uz, Initial residual = 0.276224, Final residual = 0.000946885, No Iterations 5
linear solve U 6
[OGL LOG] init_host_sparsity_pattern : 4 ms
[OGL LOG] matrix not stored update host matrix
[OGL LOG] update_host_mtx : 2 ms
[OGL LOG] matrix is not yet sorted, sorting host matrix
[OGL LOG] sort_host_mtx_sparsity_pattern : 3 ms
[OGL LOG] sort_host_mtx : 1 ms
[OGL LOG] init_preconditioner : 0 ms
[OGL LOG] solve : 86 ms
noneompGKOBiCGStab:  Solving for p, Initial residual = 0.10555, Final residual = 9.02274e-05, No Iterations 143
linear solve p 98
time step continuity errors : sum local = 1.49496e-06, global = 1.47337e-20, cumulative = -4.25896e-20
[OGL LOG] init_host_sparsity_pattern : 4 ms
[OGL LOG] matrix not stored update host matrix
[OGL LOG] update_host_mtx : 2 ms
[OGL LOG] matrix is not yet sorted, sorting host matrix
[OGL LOG] sort_host_mtx_sparsity_pattern : 3 ms
[OGL LOG] sort_host_mtx : 1 ms
[OGL LOG] init_preconditioner : 0 ms
[OGL LOG] solve : 79 ms
noneompGKOBiCGStab:  Solving for p, Initial residual = 0.072012, Final residual = 9.84908e-05, No Iterations 132
linear solve p 92
time step continuity errors : sum local = 1.5725e-07, global = -1.78708e-20, cumulative = -6.04605e-20
ExecutionTime = 18.84 s  ClockTime = 1 s

Time = 0.004

Courant Number mean: 0.0233144 max: 0.175119
nonePBiCGStab:  Solving for Ux, Initial residual = 0.0520986, Final residual = 0.000102591, No Iterations 5
nonePBiCGStab:  Solving for Uy, Initial residual = 0.0743133, Final residual = 6.09646e-05, No Iterations 5
nonePBiCGStab:  Solving for Uz, Initial residual = 0.131692, Final residual = 0.000346111, No Iterations 5
linear solve U 5
[OGL LOG] init_host_sparsity_pattern : 4 ms
[OGL LOG] matrix not stored update host matrix
[OGL LOG] update_host_mtx : 2 ms
[OGL LOG] matrix is not yet sorted, sorting host matrix
[OGL LOG] sort_host_mtx_sparsity_pattern : 3 ms
[OGL LOG] sort_host_mtx : 1 ms
[OGL LOG] init_preconditioner : 0 ms
[OGL LOG] solve : 33 ms
noneompGKOBiCGStab:  Solving for p, Initial residual = 0.0557011, Final residual = 9.6647e-05, No Iterations 54
linear solve p 45
time step continuity errors : sum local = 1.23417e-07, global = 6.05372e-21, cumulative = -5.44067e-20
[OGL LOG] init_host_sparsity_pattern : 4 ms
[OGL LOG] matrix not stored update host matrix
[OGL LOG] update_host_mtx : 2 ms
[OGL LOG] matrix is not yet sorted, sorting host matrix
[OGL LOG] sort_host_mtx_sparsity_pattern : 2 ms
[OGL LOG] sort_host_mtx : 1 ms
[OGL LOG] init_preconditioner : 0 ms
[OGL LOG] solve : 32 ms
noneompGKOBiCGStab:  Solving for p, Initial residual = 0.0371817, Final residual = 7.97309e-05, No Iterations 55
linear solve p 45
time step continuity errors : sum local = 1.06567e-07, global = -1.6567e-20, cumulative = -7.09738e-20
ExecutionTime = 21.3 s  ClockTime = 1 s

Time = 0.005

Courant Number mean: 0.0264937 max: 0.186504
nonePBiCGStab:  Solving for Ux, Initial residual = 0.035126, Final residual = 3.76573e-05, No Iterations 5
nonePBiCGStab:  Solving for Uy, Initial residual = 0.0508445, Final residual = 2.87797e-05, No Iterations 5
nonePBiCGStab:  Solving for Uz, Initial residual = 0.0918909, Final residual = 0.00014855, No Iterations 5
linear solve U 5
[OGL LOG] init_host_sparsity_pattern : 4 ms
[OGL LOG] matrix not stored update host matrix
[OGL LOG] update_host_mtx : 2 ms
[OGL LOG] matrix is not yet sorted, sorting host matrix
[OGL LOG] sort_host_mtx_sparsity_pattern : 2 ms
[OGL LOG] sort_host_mtx : 1 ms
[OGL LOG] init_preconditioner : 0 ms
[OGL LOG] solve : 30 ms
noneompGKOBiCGStab:  Solving for p, Initial residual = 0.0350804, Final residual = 8.99003e-05, No Iterations 51
linear solve p 44
time step continuity errors : sum local = 1.42216e-07, global = -1.49091e-20, cumulative = -8.58829e-20
[OGL LOG] init_host_sparsity_pattern : 4 ms
[OGL LOG] matrix not stored update host matrix
[OGL LOG] update_host_mtx : 2 ms
[OGL LOG] matrix is not yet sorted, sorting host matrix
[OGL LOG] sort_host_mtx_sparsity_pattern : 2 ms
[OGL LOG] sort_host_mtx : 1 ms
[OGL LOG] init_preconditioner : 0 ms
[OGL LOG] solve : 29 ms
noneompGKOBiCGStab:  Solving for p, Initial residual = 0.0232829, Final residual = 8.31598e-05, No Iterations 48
linear solve p 42
time step continuity errors : sum local = 1.30879e-07, global = 2.90334e-20, cumulative = -5.68494e-20
ExecutionTime = 23.58 s  ClockTime = 1 s

Time = 0.006

Courant Number mean: 0.0288952 max: 0.193336
nonePBiCGStab:  Solving for Ux, Initial residual = 0.0259235, Final residual = 1.43053e-05, No Iterations 5
nonePBiCGStab:  Solving for Uy, Initial residual = 0.0380429, Final residual = 1.6383e-05, No Iterations 5
nonePBiCGStab:  Solving for Uz, Initial residual = 0.0710408, Final residual = 6.81664e-05, No Iterations 5
linear solve U 5
[OGL LOG] init_host_sparsity_pattern : 4 ms
[OGL LOG] matrix not stored update host matrix
[OGL LOG] update_host_mtx : 2 ms
[OGL LOG] matrix is not yet sorted, sorting host matrix
[OGL LOG] sort_host_mtx_sparsity_pattern : 3 ms
[OGL LOG] sort_host_mtx : 1 ms
[OGL LOG] init_preconditioner : 0 ms
[OGL LOG] solve : 32 ms
noneompGKOBiCGStab:  Solving for p, Initial residual = 0.0246349, Final residual = 8.6372e-05, No Iterations 53
linear solve p 45
time step continuity errors : sum local = 7.68138e-08, global = 2.00612e-21, cumulative = -5.48433e-20
[OGL LOG] init_host_sparsity_pattern : 4 ms
[OGL LOG] matrix not stored update host matrix
[OGL LOG] update_host_mtx : 2 ms
[OGL LOG] matrix is not yet sorted, sorting host matrix
[OGL LOG] sort_host_mtx_sparsity_pattern : 2 ms
[OGL LOG] sort_host_mtx : 1 ms
[OGL LOG] init_preconditioner : 0 ms
[OGL LOG] solve : 27 ms
noneompGKOBiCGStab:  Solving for p, Initial residual = 0.0165199, Final residual = 7.85056e-05, No Iterations 46
linear solve p 40
time step continuity errors : sum local = 2.60754e-07, global = 5.96149e-21, cumulative = -4.88818e-20
ExecutionTime = 25.84 s  ClockTime = 1 s

Time = 0.007

Courant Number mean: 0.0308307 max: 0.197891
nonePBiCGStab:  Solving for Ux, Initial residual = 0.0203236, Final residual = 7.13997e-06, No Iterations 5
nonePBiCGStab:  Solving for Uy, Initial residual = 0.0300976, Final residual = 1.01045e-05, No Iterations 5
nonePBiCGStab:  Solving for Uz, Initial residual = 0.05784, Final residual = 4.56767e-05, No Iterations 5
linear solve U 5
[OGL LOG] init_host_sparsity_pattern : 4 ms
[OGL LOG] matrix not stored update host matrix
[OGL LOG] update_host_mtx : 2 ms
[OGL LOG] matrix is not yet sorted, sorting host matrix
[OGL LOG] sort_host_mtx_sparsity_pattern : 3 ms
[OGL LOG] sort_host_mtx : 1 ms
[OGL LOG] init_preconditioner : 0 ms
[OGL LOG] solve : 32 ms
noneompGKOBiCGStab:  Solving for p, Initial residual = 0.0190854, Final residual = 8.80107e-05, No Iterations 54
linear solve p 45
time step continuity errors : sum local = 9.20814e-08, global = -9.67305e-21, cumulative = -5.85548e-20
[OGL LOG] init_host_sparsity_pattern : 4 ms
[OGL LOG] matrix not stored update host matrix
[OGL LOG] update_host_mtx : 2 ms
[OGL LOG] matrix is not yet sorted, sorting host matrix
[OGL LOG] sort_host_mtx_sparsity_pattern : 3 ms
[OGL LOG] sort_host_mtx : 1 ms
[OGL LOG] init_preconditioner : 0 ms
[OGL LOG] solve : 30 ms
noneompGKOBiCGStab:  Solving for p, Initial residual = 0.0128995, Final residual = 9.98621e-05, No Iterations 51
linear solve p 44
time step continuity errors : sum local = 9.64181e-08, global = 4.8342e-20, cumulative = -1.02129e-20
ExecutionTime = 28.22 s  ClockTime = 1 s

Time = 0.008

Courant Number mean: 0.0324765 max: 0.201171
nonePBiCGStab:  Solving for Ux, Initial residual = 0.0165534, Final residual = 5.15629e-06, No Iterations 5
nonePBiCGStab:  Solving for Uy, Initial residual = 0.0245822, Final residual = 6.6853e-06, No Iterations 5
nonePBiCGStab:  Solving for Uz, Initial residual = 0.0479929, Final residual = 3.40258e-05, No Iterations 5
linear solve U 5
[OGL LOG] init_host_sparsity_pattern : 4 ms
[OGL LOG] matrix not stored update host matrix
[OGL LOG] update_host_mtx : 2 ms
[OGL LOG] matrix is not yet sorted, sorting host matrix
[OGL LOG] sort_host_mtx_sparsity_pattern : 3 ms
[OGL LOG] sort_host_mtx : 1 ms
[OGL LOG] init_preconditioner : 0 ms
[OGL LOG] solve : 32 ms
noneompGKOBiCGStab:  Solving for p, Initial residual = 0.015066, Final residual = 9.1412e-05, No Iterations 53
linear solve p 45
time step continuity errors : sum local = 9.72421e-08, global = -4.93291e-20, cumulative = -5.9542e-20
[OGL LOG] init_host_sparsity_pattern : 4 ms
[OGL LOG] matrix not stored update host matrix
[OGL LOG] update_host_mtx : 1 ms
[OGL LOG] matrix is not yet sorted, sorting host matrix
[OGL LOG] sort_host_mtx_sparsity_pattern : 2 ms
[OGL LOG] sort_host_mtx : 1 ms
[OGL LOG] init_preconditioner : 0 ms
[OGL LOG] solve : 29 ms
noneompGKOBiCGStab:  Solving for p, Initial residual = 0.0102962, Final residual = 6.82588e-05, No Iterations 49
linear solve p 42
time step continuity errors : sum local = 6.31027e-08, global = 1.58852e-20, cumulative = -4.36568e-20
ExecutionTime = 30.56 s  ClockTime = 1 s

Time = 0.009

Courant Number mean: 0.0338807 max: 0.203668
nonePBiCGStab:  Solving for Ux, Initial residual = 0.0137935, Final residual = 3.29809e-06, No Iterations 5
nonePBiCGStab:  Solving for Uy, Initial residual = 0.0206918, Final residual = 4.43778e-06, No Iterations 5
nonePBiCGStab:  Solving for Uz, Initial residual = 0.0409627, Final residual = 2.20222e-05, No Iterations 5
linear solve U 5
[OGL LOG] init_host_sparsity_pattern : 4 ms
[OGL LOG] matrix not stored update host matrix
[OGL LOG] update_host_mtx : 2 ms
[OGL LOG] matrix is not yet sorted, sorting host matrix
[OGL LOG] sort_host_mtx_sparsity_pattern : 3 ms
[OGL LOG] sort_host_mtx : 1 ms
[OGL LOG] init_preconditioner : 0 ms
[OGL LOG] solve : 31 ms
noneompGKOBiCGStab:  Solving for p, Initial residual = 0.0124555, Final residual = 9.95444e-05, No Iterations 51
linear solve p 44
time step continuity errors : sum local = 9.97013e-08, global = 1.08865e-20, cumulative = -3.27703e-20
[OGL LOG] init_host_sparsity_pattern : 4 ms
[OGL LOG] matrix not stored update host matrix
[OGL LOG] update_host_mtx : 2 ms
[OGL LOG] matrix is not yet sorted, sorting host matrix
[OGL LOG] sort_host_mtx_sparsity_pattern : 3 ms
[OGL LOG] sort_host_mtx : 1 ms
[OGL LOG] init_preconditioner : 0 ms
[OGL LOG] solve : 34 ms
noneompGKOBiCGStab:  Solving for p, Initial residual = 0.00857836, Final residual = 8.16024e-05, No Iterations 48
linear solve p 48
time step continuity errors : sum local = 1.03558e-07, global = 9.70634e-21, cumulative = -2.3064e-20
ExecutionTime = 33.04 s  ClockTime = 1 s

Time = 0.01

Courant Number mean: 0.0350919 max: 0.205643
nonePBiCGStab:  Solving for Ux, Initial residual = 0.0117181, Final residual = 2.20798e-06, No Iterations 5
nonePBiCGStab:  Solving for Uy, Initial residual = 0.0177283, Final residual = 3.11223e-06, No Iterations 5
nonePBiCGStab:  Solving for Uz, Initial residual = 0.0355394, Final residual = 1.59175e-05, No Iterations 5
linear solve U 5
[OGL LOG] init_host_sparsity_pattern : 4 ms
[OGL LOG] matrix not stored update host matrix
[OGL LOG] update_host_mtx : 2 ms
[OGL LOG] matrix is not yet sorted, sorting host matrix
[OGL LOG] sort_host_mtx_sparsity_pattern : 3 ms
[OGL LOG] sort_host_mtx : 1 ms
[OGL LOG] init_preconditioner : 0 ms
[OGL LOG] solve : 29 ms
noneompGKOBiCGStab:  Solving for p, Initial residual = 0.0106098, Final residual = 9.09183e-05, No Iterations 49
linear solve p 43
time step continuity errors : sum local = 1.16539e-07, global = -3.39144e-22, cumulative = -2.34031e-20
[OGL LOG] init_host_sparsity_pattern : 4 ms
[OGL LOG] matrix not stored update host matrix
[OGL LOG] update_host_mtx : 2 ms
[OGL LOG] matrix is not yet sorted, sorting host matrix
[OGL LOG] sort_host_mtx_sparsity_pattern : 3 ms
[OGL LOG] sort_host_mtx : 1 ms
[OGL LOG] init_preconditioner : 0 ms
[OGL LOG] solve : 28 ms
noneompGKOBiCGStab:  Solving for p, Initial residual = 0.00736404, Final residual = 8.42623e-05, No Iterations 47
linear solve p 42
time step continuity errors : sum local = 9.21502e-08, global = -1.14783e-20, cumulative = -3.48814e-20
ExecutionTime = 35.22 s  ClockTime = 1 s

End

