/*---------------------------------------------------------------------------*\
  =========                 |
  \\      /  F ield         | OpenFOAM: The Open Source CFD Toolbox
   \\    /   O peration     | Website:  https://openfoam.org
    \\  /    A nd           | Version:  8
     \\/     M anipulation  |
\*---------------------------------------------------------------------------*/
Build  : 8-40a5a48f630f
Exec   : icoFoam
Date   : Jul 28 2021
Time   : 03:19:27
Host   : "uc2n462.localdomain"
PID    : 3695843
I/O    : uncollated
Case   : /pfs/data5/home/kit/scc/nq7776/code/OBR/lidDrivenCavity3D/Variation_mesh/70/Variation_matrix_solver/BiCGStab_NoPrecond_OMP/base
nProcs : 1
sigFpe : Enabling floating point exception trapping (FOAM_SIGFPE).
fileModificationChecking : Monitoring run-time modified files using timeStampMaster (fileModificationSkew 10)
allowSystemOperations : Allowing user-supplied system call operations

// * * * * * * * * * * * * * * * * * * * * * * * * * * * * * * * * * * * * * //
Create time

Create mesh for time = 0

Reading transportProperties

Reading field p

Reading field U

Reading/calculating face flux field phi


Starting time loop

Time = 0.001

Courant Number mean: 0 max: 0
nonePBiCGStab:  Solving for Ux, Initial residual = 1, Final residual = 0.0584718, No Iterations 5
nonePBiCGStab:  Solving for Uy, Initial residual = 0, Final residual = 0, No Iterations 0
nonePBiCGStab:  Solving for Uz, Initial residual = 0, Final residual = 0, No Iterations 0
linear solve U 88
[OGL LOG] init_host_sparsity_pattern : 98 ms
[OGL LOG] matrix not stored update host matrix
[OGL LOG] update_host_mtx : 52 ms
[OGL LOG] matrix is not yet sorted, compute sorting idxs
[OGL LOG] compute_sort : 2980 ms
[OGL LOG] matrix is not yet sorted, sorting host matrix
[OGL LOG] sort_host_mtx_sparsity_pattern : 71 ms
[OGL LOG] sort_host_mtx : 42 ms
[OGL LOG] init_preconditioner : 0 ms
[OGL LOG] solve : 3007 ms
noneompGKOBiCGStab:  Solving for p, Initial residual = 1, Final residual = 9.30018e-05, No Iterations 461
linear solve p 6340
time step continuity errors : sum local = 3.82734e-07, global = -7.41609e-21, cumulative = -7.41609e-21
[OGL LOG] init_host_sparsity_pattern : 95 ms
[OGL LOG] matrix not stored update host matrix
[OGL LOG] update_host_mtx : 50 ms
[OGL LOG] matrix is not yet sorted, sorting host matrix
[OGL LOG] sort_host_mtx_sparsity_pattern : 71 ms
[OGL LOG] sort_host_mtx : 36 ms
[OGL LOG] init_preconditioner : 0 ms
[OGL LOG] solve : 2829 ms
noneompGKOBiCGStab:  Solving for p, Initial residual = 0.682644, Final residual = 8.54763e-05, No Iterations 444
linear solve p 3128
time step continuity errors : sum local = 3.73158e-06, global = 4.02426e-21, cumulative = -3.39183e-21
ExecutionTime = 121.99 s  ClockTime = 11 s

Time = 0.002

Courant Number mean: 0.0344623 max: 0.514719
nonePBiCGStab:  Solving for Ux, Initial residual = 0.149371, Final residual = 0.0244762, No Iterations 5
nonePBiCGStab:  Solving for Uy, Initial residual = 0.378051, Final residual = 0.0576918, No Iterations 5
nonePBiCGStab:  Solving for Uz, Initial residual = 0.952168, Final residual = 0.187194, No Iterations 5
linear solve U 171
[OGL LOG] init_host_sparsity_pattern : 92 ms
[OGL LOG] matrix not stored update host matrix
[OGL LOG] update_host_mtx : 49 ms
[OGL LOG] matrix is not yet sorted, sorting host matrix
[OGL LOG] sort_host_mtx_sparsity_pattern : 73 ms
[OGL LOG] sort_host_mtx : 35 ms
[OGL LOG] init_preconditioner : 0 ms
[OGL LOG] solve : 2600 ms
noneompGKOBiCGStab:  Solving for p, Initial residual = 0.684052, Final residual = 6.07614e-05, No Iterations 404
linear solve p 2900
time step continuity errors : sum local = 7.50004e-06, global = 5.3379e-22, cumulative = -2.85804e-21
[OGL LOG] init_host_sparsity_pattern : 93 ms
[OGL LOG] matrix not stored update host matrix
[OGL LOG] update_host_mtx : 47 ms
[OGL LOG] matrix is not yet sorted, sorting host matrix
[OGL LOG] sort_host_mtx_sparsity_pattern : 73 ms
[OGL LOG] sort_host_mtx : 35 ms
[OGL LOG] init_preconditioner : 0 ms
[OGL LOG] solve : 2780 ms
noneompGKOBiCGStab:  Solving for p, Initial residual = 0.604394, Final residual = 8.87797e-05, No Iterations 423
linear solve p 3076
time step continuity errors : sum local = 1.05028e-06, global = 1.09857e-20, cumulative = 8.12763e-21
ExecutionTime = 230.61 s  ClockTime = 17 s

Time = 0.003

Courant Number mean: 0.0532149 max: 0.605887
nonePBiCGStab:  Solving for Ux, Initial residual = 0.0556523, Final residual = 0.00770547, No Iterations 5
nonePBiCGStab:  Solving for Uy, Initial residual = 0.138858, Final residual = 0.0255545, No Iterations 5
nonePBiCGStab:  Solving for Uz, Initial residual = 0.539475, Final residual = 0.136232, No Iterations 5
linear solve U 170
[OGL LOG] init_host_sparsity_pattern : 94 ms
[OGL LOG] matrix not stored update host matrix
[OGL LOG] update_host_mtx : 51 ms
[OGL LOG] matrix is not yet sorted, sorting host matrix
[OGL LOG] sort_host_mtx_sparsity_pattern : 71 ms
[OGL LOG] sort_host_mtx : 35 ms
[OGL LOG] init_preconditioner : 0 ms
[OGL LOG] solve : 2510 ms
noneompGKOBiCGStab:  Solving for p, Initial residual = 0.615125, Final residual = 9.81125e-05, No Iterations 398
linear solve p 2806
time step continuity errors : sum local = 6.2393e-08, global = -1.16696e-20, cumulative = -3.54197e-21
[OGL LOG] init_host_sparsity_pattern : 91 ms
[OGL LOG] matrix not stored update host matrix
[OGL LOG] update_host_mtx : 48 ms
[OGL LOG] matrix is not yet sorted, sorting host matrix
[OGL LOG] sort_host_mtx_sparsity_pattern : 72 ms
[OGL LOG] sort_host_mtx : 35 ms
[OGL LOG] init_preconditioner : 0 ms
[OGL LOG] solve : 2331 ms
noneompGKOBiCGStab:  Solving for p, Initial residual = 0.545878, Final residual = 7.56362e-05, No Iterations 355
linear solve p 2623
time step continuity errors : sum local = 1.12706e-06, global = -2.05039e-21, cumulative = -5.59236e-21
ExecutionTime = 328.47 s  ClockTime = 23 s

Time = 0.004

Courant Number mean: 0.0637725 max: 0.623626
nonePBiCGStab:  Solving for Ux, Initial residual = 0.0341499, Final residual = 0.00436059, No Iterations 5
nonePBiCGStab:  Solving for Uy, Initial residual = 0.0896778, Final residual = 0.0124002, No Iterations 5
nonePBiCGStab:  Solving for Uz, Initial residual = 0.316638, Final residual = 0.0609772, No Iterations 5
linear solve U 171
[OGL LOG] init_host_sparsity_pattern : 91 ms
[OGL LOG] matrix not stored update host matrix
[OGL LOG] update_host_mtx : 47 ms
[OGL LOG] matrix is not yet sorted, sorting host matrix
[OGL LOG] sort_host_mtx_sparsity_pattern : 71 ms
[OGL LOG] sort_host_mtx : 35 ms
[OGL LOG] init_preconditioner : 0 ms
[OGL LOG] solve : 2745 ms
noneompGKOBiCGStab:  Solving for p, Initial residual = 0.435652, Final residual = 8.54136e-05, No Iterations 418
linear solve p 3032
time step continuity errors : sum local = 3.34563e-07, global = 4.63562e-21, cumulative = -9.56747e-22
[OGL LOG] init_host_sparsity_pattern : 97 ms
[OGL LOG] matrix not stored update host matrix
[OGL LOG] update_host_mtx : 51 ms
[OGL LOG] matrix is not yet sorted, sorting host matrix
[OGL LOG] sort_host_mtx_sparsity_pattern : 71 ms
[OGL LOG] sort_host_mtx : 35 ms
[OGL LOG] init_preconditioner : 0 ms
[OGL LOG] solve : 2772 ms
noneompGKOBiCGStab:  Solving for p, Initial residual = 0.364155, Final residual = 4.10364e-05, No Iterations 421
linear solve p 3071
time step continuity errors : sum local = 5.15232e-07, global = 4.86727e-21, cumulative = 3.91052e-21
ExecutionTime = 439.81 s  ClockTime = 30 s

Time = 0.005

Courant Number mean: 0.0723712 max: 0.634646
nonePBiCGStab:  Solving for Ux, Initial residual = 0.0241893, Final residual = 0.00259388, No Iterations 5
nonePBiCGStab:  Solving for Uy, Initial residual = 0.0585047, Final residual = 0.00717394, No Iterations 5
nonePBiCGStab:  Solving for Uz, Initial residual = 0.179203, Final residual = 0.0421804, No Iterations 5
linear solve U 174
[OGL LOG] init_host_sparsity_pattern : 91 ms
[OGL LOG] matrix not stored update host matrix
[OGL LOG] update_host_mtx : 50 ms
[OGL LOG] matrix is not yet sorted, sorting host matrix
[OGL LOG] sort_host_mtx_sparsity_pattern : 70 ms
[OGL LOG] sort_host_mtx : 35 ms
[OGL LOG] init_preconditioner : 0 ms
[OGL LOG] solve : 2067 ms
noneompGKOBiCGStab:  Solving for p, Initial residual = 0.385417, Final residual = 4.84534e-05, No Iterations 314
linear solve p 2355
time step continuity errors : sum local = 4.76912e-06, global = -1.05915e-20, cumulative = -6.68101e-21
[OGL LOG] init_host_sparsity_pattern : 94 ms
[OGL LOG] matrix not stored update host matrix
[OGL LOG] update_host_mtx : 44 ms
[OGL LOG] matrix is not yet sorted, sorting host matrix
[OGL LOG] sort_host_mtx_sparsity_pattern : 71 ms
[OGL LOG] sort_host_mtx : 35 ms
[OGL LOG] init_preconditioner : 0 ms
[OGL LOG] solve : 1210 ms
noneompGKOBiCGStab:  Solving for p, Initial residual = 0.335665, Final residual = 9.65895e-05, No Iterations 184
linear solve p 1496
time step continuity errors : sum local = 6.27321e-08, global = 4.04684e-21, cumulative = -2.63417e-21
ExecutionTime = 506.46 s  ClockTime = 34 s

Time = 0.006

Courant Number mean: 0.0791115 max: 0.641359
nonePBiCGStab:  Solving for Ux, Initial residual = 0.0184553, Final residual = 0.00204345, No Iterations 5
nonePBiCGStab:  Solving for Uy, Initial residual = 0.0436344, Final residual = 0.00510784, No Iterations 5
nonePBiCGStab:  Solving for Uz, Initial residual = 0.161362, Final residual = 0.0408477, No Iterations 5
linear solve U 171
[OGL LOG] init_host_sparsity_pattern : 91 ms
[OGL LOG] matrix not stored update host matrix
[OGL LOG] update_host_mtx : 44 ms
[OGL LOG] matrix is not yet sorted, sorting host matrix
[OGL LOG] sort_host_mtx_sparsity_pattern : 71 ms
[OGL LOG] sort_host_mtx : 37 ms
[OGL LOG] init_preconditioner : 0 ms
[OGL LOG] solve : 2668 ms
noneompGKOBiCGStab:  Solving for p, Initial residual = 0.301354, Final residual = 9.68381e-05, No Iterations 406
linear solve p 2953
time step continuity errors : sum local = 7.94732e-08, global = -1.09734e-20, cumulative = -1.36075e-20
[OGL LOG] init_host_sparsity_pattern : 91 ms
[OGL LOG] matrix not stored update host matrix
[OGL LOG] update_host_mtx : 44 ms
[OGL LOG] matrix is not yet sorted, sorting host matrix
[OGL LOG] sort_host_mtx_sparsity_pattern : 71 ms
[OGL LOG] sort_host_mtx : 35 ms
[OGL LOG] init_preconditioner : 0 ms
[OGL LOG] solve : 2446 ms
noneompGKOBiCGStab:  Solving for p, Initial residual = 0.252822, Final residual = 1.95211e-05, No Iterations 373
linear solve p 2728
time step continuity errors : sum local = 1.95756e-08, global = 3.26282e-21, cumulative = -1.03447e-20
ExecutionTime = 609.75 s  ClockTime = 40 s

Time = 0.007

Courant Number mean: 0.0847324 max: 0.645903
nonePBiCGStab:  Solving for Ux, Initial residual = 0.0144876, Final residual = 0.00102209, No Iterations 5
nonePBiCGStab:  Solving for Uy, Initial residual = 0.0351223, Final residual = 0.00241882, No Iterations 5
nonePBiCGStab:  Solving for Uz, Initial residual = 0.108484, Final residual = 0.0201539, No Iterations 5
linear solve U 171
[OGL LOG] init_host_sparsity_pattern : 91 ms
[OGL LOG] matrix not stored update host matrix
[OGL LOG] update_host_mtx : 44 ms
[OGL LOG] matrix is not yet sorted, sorting host matrix
[OGL LOG] sort_host_mtx_sparsity_pattern : 71 ms
[OGL LOG] sort_host_mtx : 35 ms
[OGL LOG] init_preconditioner : 0 ms
[OGL LOG] solve : 2185 ms
noneompGKOBiCGStab:  Solving for p, Initial residual = 0.248672, Final residual = 8.1915e-05, No Iterations 333
linear solve p 2468
time step continuity errors : sum local = 7.36994e-08, global = -3.95125e-21, cumulative = -1.4296e-20
[OGL LOG] init_host_sparsity_pattern : 91 ms
[OGL LOG] matrix not stored update host matrix
[OGL LOG] update_host_mtx : 50 ms
[OGL LOG] matrix is not yet sorted, sorting host matrix
[OGL LOG] sort_host_mtx_sparsity_pattern : 71 ms
[OGL LOG] sort_host_mtx : 35 ms
[OGL LOG] init_preconditioner : 0 ms
[OGL LOG] solve : 2154 ms
noneompGKOBiCGStab:  Solving for p, Initial residual = 0.208832, Final residual = 9.16555e-05, No Iterations 327
linear solve p 2445
time step continuity errors : sum local = 2.27703e-07, global = -4.11808e-22, cumulative = -1.47078e-20
ExecutionTime = 697.58 s  ClockTime = 45 s

Time = 0.008

Courant Number mean: 0.0895163 max: 0.649502
nonePBiCGStab:  Solving for Ux, Initial residual = 0.0119587, Final residual = 0.00094743, No Iterations 5
nonePBiCGStab:  Solving for Uy, Initial residual = 0.0274315, Final residual = 0.0020186, No Iterations 5
nonePBiCGStab:  Solving for Uz, Initial residual = 0.094182, Final residual = 0.0212826, No Iterations 5
linear solve U 172
[OGL LOG] init_host_sparsity_pattern : 93 ms
[OGL LOG] matrix not stored update host matrix
[OGL LOG] update_host_mtx : 51 ms
[OGL LOG] matrix is not yet sorted, sorting host matrix
[OGL LOG] sort_host_mtx_sparsity_pattern : 71 ms
[OGL LOG] sort_host_mtx : 35 ms
[OGL LOG] init_preconditioner : 0 ms
[OGL LOG] solve : 2452 ms
noneompGKOBiCGStab:  Solving for p, Initial residual = 0.196705, Final residual = 6.21904e-05, No Iterations 373
linear solve p 2744
time step continuity errors : sum local = 5.62342e-08, global = 2.98352e-20, cumulative = 1.51274e-20
[OGL LOG] init_host_sparsity_pattern : 91 ms
[OGL LOG] matrix not stored update host matrix
[OGL LOG] update_host_mtx : 44 ms
[OGL LOG] matrix is not yet sorted, sorting host matrix
[OGL LOG] sort_host_mtx_sparsity_pattern : 70 ms
[OGL LOG] sort_host_mtx : 35 ms
[OGL LOG] init_preconditioner : 0 ms
[OGL LOG] solve : 2492 ms
noneompGKOBiCGStab:  Solving for p, Initial residual = 0.165333, Final residual = 2.54764e-05, No Iterations 378
linear solve p 2777
time step continuity errors : sum local = 1.57901e-08, global = -1.12359e-20, cumulative = 3.89152e-21
ExecutionTime = 797.47 s  ClockTime = 51 s

Time = 0.009

Courant Number mean: 0.0936352 max: 0.652105
nonePBiCGStab:  Solving for Ux, Initial residual = 0.00978347, Final residual = 0.000662493, No Iterations 5
nonePBiCGStab:  Solving for Uy, Initial residual = 0.023784, Final residual = 0.00141098, No Iterations 5
nonePBiCGStab:  Solving for Uz, Initial residual = 0.0743702, Final residual = 0.0139666, No Iterations 5
linear solve U 175
[OGL LOG] init_host_sparsity_pattern : 94 ms
[OGL LOG] matrix not stored update host matrix
[OGL LOG] update_host_mtx : 50 ms
[OGL LOG] matrix is not yet sorted, sorting host matrix
[OGL LOG] sort_host_mtx_sparsity_pattern : 70 ms
[OGL LOG] sort_host_mtx : 35 ms
[OGL LOG] init_preconditioner : 0 ms
[OGL LOG] solve : 2135 ms
noneompGKOBiCGStab:  Solving for p, Initial residual = 0.168665, Final residual = 9.80028e-05, No Iterations 324
linear solve p 2433
time step continuity errors : sum local = 1.93913e-07, global = -1.01941e-20, cumulative = -6.30263e-21
[OGL LOG] init_host_sparsity_pattern : 91 ms
[OGL LOG] matrix not stored update host matrix
[OGL LOG] update_host_mtx : 44 ms
[OGL LOG] matrix is not yet sorted, sorting host matrix
[OGL LOG] sort_host_mtx_sparsity_pattern : 73 ms
[OGL LOG] sort_host_mtx : 35 ms
[OGL LOG] init_preconditioner : 0 ms
[OGL LOG] solve : 2193 ms
noneompGKOBiCGStab:  Solving for p, Initial residual = 0.142112, Final residual = 9.609e-05, No Iterations 333
linear solve p 2480
time step continuity errors : sum local = 2.87534e-06, global = -7.62531e-22, cumulative = -7.06516e-21
ExecutionTime = 885.11 s  ClockTime = 56 s

Time = 0.01

Courant Number mean: 0.0972053 max: 0.65431
nonePBiCGStab:  Solving for Ux, Initial residual = 0.00868295, Final residual = 0.000796289, No Iterations 5
nonePBiCGStab:  Solving for Uy, Initial residual = 0.0196582, Final residual = 0.00203062, No Iterations 5
nonePBiCGStab:  Solving for Uz, Initial residual = 0.0802954, Final residual = 0.0219393, No Iterations 5
linear solve U 174
[OGL LOG] init_host_sparsity_pattern : 91 ms
[OGL LOG] matrix not stored update host matrix
[OGL LOG] update_host_mtx : 51 ms
[OGL LOG] matrix is not yet sorted, sorting host matrix
[OGL LOG] sort_host_mtx_sparsity_pattern : 71 ms
[OGL LOG] sort_host_mtx : 35 ms
[OGL LOG] init_preconditioner : 0 ms
[OGL LOG] solve : 2276 ms
noneompGKOBiCGStab:  Solving for p, Initial residual = 0.16344, Final residual = 9.251e-05, No Iterations 347
linear solve p 2566
time step continuity errors : sum local = 6.84915e-08, global = -1.50929e-20, cumulative = -2.21581e-20
[OGL LOG] init_host_sparsity_pattern : 91 ms
[OGL LOG] matrix not stored update host matrix
[OGL LOG] update_host_mtx : 51 ms
[OGL LOG] matrix is not yet sorted, sorting host matrix
[OGL LOG] sort_host_mtx_sparsity_pattern : 71 ms
[OGL LOG] sort_host_mtx : 35 ms
[OGL LOG] init_preconditioner : 0 ms
[OGL LOG] solve : 2143 ms
noneompGKOBiCGStab:  Solving for p, Initial residual = 0.136029, Final residual = 8.12248e-05, No Iterations 326
linear solve p 2434
time step continuity errors : sum local = 6.8771e-08, global = -5.64879e-21, cumulative = -2.78069e-20
ExecutionTime = 974.55 s  ClockTime = 62 s

End

