/*---------------------------------------------------------------------------*\
  =========                 |
  \\      /  F ield         | OpenFOAM: The Open Source CFD Toolbox
   \\    /   O peration     | Website:  https://openfoam.org
    \\  /    A nd           | Version:  8
     \\/     M anipulation  |
\*---------------------------------------------------------------------------*/
Build  : 8-40a5a48f630f
Exec   : icoFoam
Date   : Jul 28 2021
Time   : 02:12:47
Host   : "uc2n530.localdomain"
PID    : 2384492
I/O    : uncollated
Case   : /pfs/data5/home/kit/scc/nq7776/code/OBR/lidDrivenCavity3D/Variation_mesh/40/Variation_matrix_solver/BiCGStab_NoPrecond_OMP/base
nProcs : 1
sigFpe : Enabling floating point exception trapping (FOAM_SIGFPE).
fileModificationChecking : Monitoring run-time modified files using timeStampMaster (fileModificationSkew 10)
allowSystemOperations : Allowing user-supplied system call operations

// * * * * * * * * * * * * * * * * * * * * * * * * * * * * * * * * * * * * * //
Create time

Create mesh for time = 0

Reading transportProperties

Reading field p

Reading field U

Reading/calculating face flux field phi


Starting time loop

Time = 0.001

Courant Number mean: 0 max: 0
nonePBiCGStab:  Solving for Ux, Initial residual = 1, Final residual = 0.0197517, No Iterations 5
nonePBiCGStab:  Solving for Uy, Initial residual = 0, Final residual = 0, No Iterations 0
nonePBiCGStab:  Solving for Uz, Initial residual = 0, Final residual = 0, No Iterations 0
linear solve U 14
[OGL LOG] init_host_sparsity_pattern : 18 ms
[OGL LOG] matrix not stored update host matrix
[OGL LOG] update_host_mtx : 9 ms
[OGL LOG] matrix is not yet sorted, compute sorting idxs
[OGL LOG] compute_sort : 481 ms
[OGL LOG] matrix is not yet sorted, sorting host matrix
[OGL LOG] sort_host_mtx_sparsity_pattern : 12 ms
[OGL LOG] sort_host_mtx : 7 ms
[OGL LOG] init_preconditioner : 0 ms
[OGL LOG] solve : 525 ms
noneompGKOBiCGStab:  Solving for p, Initial residual = 1, Final residual = 8.58855e-05, No Iterations 253
linear solve p 1069
time step continuity errors : sum local = 1.25022e-07, global = -1.80073e-20, cumulative = -1.80073e-20
[OGL LOG] init_host_sparsity_pattern : 18 ms
[OGL LOG] matrix not stored update host matrix
[OGL LOG] update_host_mtx : 9 ms
[OGL LOG] matrix is not yet sorted, sorting host matrix
[OGL LOG] sort_host_mtx_sparsity_pattern : 12 ms
[OGL LOG] sort_host_mtx : 6 ms
[OGL LOG] init_preconditioner : 0 ms
[OGL LOG] solve : 525 ms
noneompGKOBiCGStab:  Solving for p, Initial residual = 0.598499, Final residual = 8.91669e-05, No Iterations 251
linear solve p 580
time step continuity errors : sum local = 1.70471e-06, global = 1.44136e-20, cumulative = -3.59369e-21
ExecutionTime = 3 s  ClockTime = 2 s

Time = 0.002

Courant Number mean: 0.0210269 max: 0.237017
nonePBiCGStab:  Solving for Ux, Initial residual = 0.177813, Final residual = 0.00672551, No Iterations 5
nonePBiCGStab:  Solving for Uy, Initial residual = 0.294122, Final residual = 0.0079862, No Iterations 5
nonePBiCGStab:  Solving for Uz, Initial residual = 0.933673, Final residual = 0.0359862, No Iterations 5
linear solve U 27
[OGL LOG] init_host_sparsity_pattern : 16 ms
[OGL LOG] matrix not stored update host matrix
[OGL LOG] update_host_mtx : 9 ms
[OGL LOG] matrix is not yet sorted, sorting host matrix
[OGL LOG] sort_host_mtx_sparsity_pattern : 13 ms
[OGL LOG] sort_host_mtx : 6 ms
[OGL LOG] init_preconditioner : 0 ms
[OGL LOG] solve : 502 ms
noneompGKOBiCGStab:  Solving for p, Initial residual = 0.458811, Final residual = 4.45936e-05, No Iterations 241
linear solve p 556
time step continuity errors : sum local = 9.7961e-07, global = -3.10081e-20, cumulative = -3.46018e-20
[OGL LOG] init_host_sparsity_pattern : 16 ms
[OGL LOG] matrix not stored update host matrix
[OGL LOG] update_host_mtx : 8 ms
[OGL LOG] matrix is not yet sorted, sorting host matrix
[OGL LOG] sort_host_mtx_sparsity_pattern : 12 ms
[OGL LOG] sort_host_mtx : 6 ms
[OGL LOG] init_preconditioner : 0 ms
[OGL LOG] solve : 487 ms
noneompGKOBiCGStab:  Solving for p, Initial residual = 0.361787, Final residual = 9.77106e-05, No Iterations 233
linear solve p 538
time step continuity errors : sum local = 2.06753e-07, global = 4.04829e-21, cumulative = -3.05535e-20
ExecutionTime = 5.15 s  ClockTime = 3 s

Time = 0.003

Courant Number mean: 0.0321011 max: 0.305901
nonePBiCGStab:  Solving for Ux, Initial residual = 0.0655943, Final residual = 0.00125738, No Iterations 5
nonePBiCGStab:  Solving for Uy, Initial residual = 0.108276, Final residual = 0.00174762, No Iterations 5
nonePBiCGStab:  Solving for Uz, Initial residual = 0.210655, Final residual = 0.0103558, No Iterations 5
linear solve U 27
[OGL LOG] init_host_sparsity_pattern : 17 ms
[OGL LOG] matrix not stored update host matrix
[OGL LOG] update_host_mtx : 9 ms
[OGL LOG] matrix is not yet sorted, sorting host matrix
[OGL LOG] sort_host_mtx_sparsity_pattern : 12 ms
[OGL LOG] sort_host_mtx : 6 ms
[OGL LOG] init_preconditioner : 0 ms
[OGL LOG] solve : 479 ms
noneompGKOBiCGStab:  Solving for p, Initial residual = 0.165723, Final residual = 9.53905e-05, No Iterations 228
linear solve p 532
time step continuity errors : sum local = 1.23027e-07, global = -2.38241e-21, cumulative = -3.29359e-20
[OGL LOG] init_host_sparsity_pattern : 16 ms
[OGL LOG] matrix not stored update host matrix
[OGL LOG] update_host_mtx : 8 ms
[OGL LOG] matrix is not yet sorted, sorting host matrix
[OGL LOG] sort_host_mtx_sparsity_pattern : 12 ms
[OGL LOG] sort_host_mtx : 6 ms
[OGL LOG] init_preconditioner : 0 ms
[OGL LOG] solve : 453 ms
noneompGKOBiCGStab:  Solving for p, Initial residual = 0.129835, Final residual = 5.33471e-05, No Iterations 219
linear solve p 504
time step continuity errors : sum local = 4.9936e-08, global = -1.21922e-20, cumulative = -4.51281e-20
ExecutionTime = 7.19 s  ClockTime = 4 s

Time = 0.004

Courant Number mean: 0.0386745 max: 0.327552
nonePBiCGStab:  Solving for Ux, Initial residual = 0.0388293, Final residual = 0.000543156, No Iterations 5
nonePBiCGStab:  Solving for Uy, Initial residual = 0.067056, Final residual = 0.000688266, No Iterations 5
nonePBiCGStab:  Solving for Uz, Initial residual = 0.125102, Final residual = 0.00378749, No Iterations 5
linear solve U 27
[OGL LOG] init_host_sparsity_pattern : 17 ms
[OGL LOG] matrix not stored update host matrix
[OGL LOG] update_host_mtx : 9 ms
[OGL LOG] matrix is not yet sorted, sorting host matrix
[OGL LOG] sort_host_mtx_sparsity_pattern : 12 ms
[OGL LOG] sort_host_mtx : 6 ms
[OGL LOG] init_preconditioner : 0 ms
[OGL LOG] solve : 450 ms
noneompGKOBiCGStab:  Solving for p, Initial residual = 0.0857107, Final residual = 9.07198e-05, No Iterations 215
linear solve p 504
time step continuity errors : sum local = 1.00372e-07, global = -2.79659e-20, cumulative = -7.3094e-20
[OGL LOG] init_host_sparsity_pattern : 18 ms
[OGL LOG] matrix not stored update host matrix
[OGL LOG] update_host_mtx : 9 ms
[OGL LOG] matrix is not yet sorted, sorting host matrix
[OGL LOG] sort_host_mtx_sparsity_pattern : 13 ms
[OGL LOG] sort_host_mtx : 6 ms
[OGL LOG] init_preconditioner : 0 ms
[OGL LOG] solve : 176 ms
noneompGKOBiCGStab:  Solving for p, Initial residual = 0.0659994, Final residual = 9.97917e-05, No Iterations 84
linear solve p 232
time step continuity errors : sum local = 1.05689e-07, global = -5.78743e-21, cumulative = -7.88815e-20
ExecutionTime = 8.62 s  ClockTime = 5 s

Time = 0.005

Courant Number mean: 0.0434784 max: 0.337868
nonePBiCGStab:  Solving for Ux, Initial residual = 0.0268867, Final residual = 0.000328017, No Iterations 5
nonePBiCGStab:  Solving for Uy, Initial residual = 0.0468588, Final residual = 0.000482765, No Iterations 5
nonePBiCGStab:  Solving for Uz, Initial residual = 0.0902685, Final residual = 0.00259463, No Iterations 5
linear solve U 27
[OGL LOG] init_host_sparsity_pattern : 17 ms
[OGL LOG] matrix not stored update host matrix
[OGL LOG] update_host_mtx : 9 ms
[OGL LOG] matrix is not yet sorted, sorting host matrix
[OGL LOG] sort_host_mtx_sparsity_pattern : 12 ms
[OGL LOG] sort_host_mtx : 6 ms
[OGL LOG] init_preconditioner : 0 ms
[OGL LOG] solve : 409 ms
noneompGKOBiCGStab:  Solving for p, Initial residual = 0.0449688, Final residual = 9.34397e-05, No Iterations 198
linear solve p 463
time step continuity errors : sum local = 1.15976e-07, global = 6.27702e-21, cumulative = -7.26045e-20
[OGL LOG] init_host_sparsity_pattern : 18 ms
[OGL LOG] matrix not stored update host matrix
[OGL LOG] update_host_mtx : 9 ms
[OGL LOG] matrix is not yet sorted, sorting host matrix
[OGL LOG] sort_host_mtx_sparsity_pattern : 12 ms
[OGL LOG] sort_host_mtx : 6 ms
[OGL LOG] init_preconditioner : 0 ms
[OGL LOG] solve : 170 ms
noneompGKOBiCGStab:  Solving for p, Initial residual = 0.0359697, Final residual = 7.63576e-05, No Iterations 81
linear solve p 224
time step continuity errors : sum local = 9.40423e-08, global = 2.20744e-20, cumulative = -5.05301e-20
ExecutionTime = 9.95 s  ClockTime = 6 s

Time = 0.006

Courant Number mean: 0.0471981 max: 0.344027
nonePBiCGStab:  Solving for Ux, Initial residual = 0.0204603, Final residual = 0.000229597, No Iterations 5
nonePBiCGStab:  Solving for Uy, Initial residual = 0.0356244, Final residual = 0.000227274, No Iterations 5
nonePBiCGStab:  Solving for Uz, Initial residual = 0.068523, Final residual = 0.00158904, No Iterations 5
linear solve U 27
[OGL LOG] init_host_sparsity_pattern : 17 ms
[OGL LOG] matrix not stored update host matrix
[OGL LOG] update_host_mtx : 9 ms
[OGL LOG] matrix is not yet sorted, sorting host matrix
[OGL LOG] sort_host_mtx_sparsity_pattern : 12 ms
[OGL LOG] sort_host_mtx : 6 ms
[OGL LOG] init_preconditioner : 0 ms
[OGL LOG] solve : 174 ms
noneompGKOBiCGStab:  Solving for p, Initial residual = 0.0302022, Final residual = 9.23441e-05, No Iterations 83
linear solve p 227
time step continuity errors : sum local = 1.12887e-07, global = -1.22309e-20, cumulative = -6.2761e-20
[OGL LOG] init_host_sparsity_pattern : 18 ms
[OGL LOG] matrix not stored update host matrix
[OGL LOG] update_host_mtx : 9 ms
[OGL LOG] matrix is not yet sorted, sorting host matrix
[OGL LOG] sort_host_mtx_sparsity_pattern : 12 ms
[OGL LOG] sort_host_mtx : 6 ms
[OGL LOG] init_preconditioner : 0 ms
[OGL LOG] solve : 166 ms
noneompGKOBiCGStab:  Solving for p, Initial residual = 0.0245845, Final residual = 6.71455e-05, No Iterations 80
linear solve p 220
time step continuity errors : sum local = 1.82696e-07, global = 2.41216e-21, cumulative = -6.03489e-20
ExecutionTime = 10.81 s  ClockTime = 6 s

Time = 0.007

Courant Number mean: 0.0502314 max: 0.348255
nonePBiCGStab:  Solving for Ux, Initial residual = 0.016126, Final residual = 0.000141997, No Iterations 5
nonePBiCGStab:  Solving for Uy, Initial residual = 0.0287067, Final residual = 0.00017991, No Iterations 5
nonePBiCGStab:  Solving for Uz, Initial residual = 0.0533399, Final residual = 0.000845002, No Iterations 5
linear solve U 27
[OGL LOG] init_host_sparsity_pattern : 17 ms
[OGL LOG] matrix not stored update host matrix
[OGL LOG] update_host_mtx : 9 ms
[OGL LOG] matrix is not yet sorted, sorting host matrix
[OGL LOG] sort_host_mtx_sparsity_pattern : 12 ms
[OGL LOG] sort_host_mtx : 6 ms
[OGL LOG] init_preconditioner : 0 ms
[OGL LOG] solve : 170 ms
noneompGKOBiCGStab:  Solving for p, Initial residual = 0.0241336, Final residual = 8.57473e-05, No Iterations 82
linear solve p 224
time step continuity errors : sum local = 6.0899e-08, global = -8.0738e-21, cumulative = -6.84227e-20
[OGL LOG] init_host_sparsity_pattern : 18 ms
[OGL LOG] matrix not stored update host matrix
[OGL LOG] update_host_mtx : 9 ms
[OGL LOG] matrix is not yet sorted, sorting host matrix
[OGL LOG] sort_host_mtx_sparsity_pattern : 12 ms
[OGL LOG] sort_host_mtx : 6 ms
[OGL LOG] init_preconditioner : 0 ms
[OGL LOG] solve : 162 ms
noneompGKOBiCGStab:  Solving for p, Initial residual = 0.020135, Final residual = 8.22269e-05, No Iterations 78
linear solve p 217
time step continuity errors : sum local = 8.78237e-08, global = -5.5074e-21, cumulative = -7.39301e-20
ExecutionTime = 11.66 s  ClockTime = 7 s

Time = 0.008

Courant Number mean: 0.052801 max: 0.351368
nonePBiCGStab:  Solving for Ux, Initial residual = 0.0133032, Final residual = 9.55555e-05, No Iterations 5
nonePBiCGStab:  Solving for Uy, Initial residual = 0.0235604, Final residual = 0.000123194, No Iterations 5
nonePBiCGStab:  Solving for Uz, Initial residual = 0.0450188, Final residual = 0.000490827, No Iterations 5
linear solve U 27
[OGL LOG] init_host_sparsity_pattern : 17 ms
[OGL LOG] matrix not stored update host matrix
[OGL LOG] update_host_mtx : 9 ms
[OGL LOG] matrix is not yet sorted, sorting host matrix
[OGL LOG] sort_host_mtx_sparsity_pattern : 12 ms
[OGL LOG] sort_host_mtx : 6 ms
[OGL LOG] init_preconditioner : 0 ms
[OGL LOG] solve : 164 ms
noneompGKOBiCGStab:  Solving for p, Initial residual = 0.0184027, Final residual = 9.90336e-05, No Iterations 77
linear solve p 219
time step continuity errors : sum local = 9.0325e-08, global = 1.3748e-20, cumulative = -6.01821e-20
[OGL LOG] init_host_sparsity_pattern : 18 ms
[OGL LOG] matrix not stored update host matrix
[OGL LOG] update_host_mtx : 9 ms
[OGL LOG] matrix is not yet sorted, sorting host matrix
[OGL LOG] sort_host_mtx_sparsity_pattern : 13 ms
[OGL LOG] sort_host_mtx : 6 ms
[OGL LOG] init_preconditioner : 0 ms
[OGL LOG] solve : 167 ms
noneompGKOBiCGStab:  Solving for p, Initial residual = 0.0154505, Final residual = 7.25979e-05, No Iterations 79
linear solve p 223
time step continuity errors : sum local = 5.06528e-07, global = 1.03304e-20, cumulative = -4.98517e-20
ExecutionTime = 12.51 s  ClockTime = 7 s

Time = 0.009

Courant Number mean: 0.0549914 max: 0.353775
nonePBiCGStab:  Solving for Ux, Initial residual = 0.011517, Final residual = 6.95921e-05, No Iterations 5
nonePBiCGStab:  Solving for Uy, Initial residual = 0.0194991, Final residual = 9.11779e-05, No Iterations 5
nonePBiCGStab:  Solving for Uz, Initial residual = 0.0378545, Final residual = 0.000459289, No Iterations 5
linear solve U 27
[OGL LOG] init_host_sparsity_pattern : 17 ms
[OGL LOG] matrix not stored update host matrix
[OGL LOG] update_host_mtx : 9 ms
[OGL LOG] matrix is not yet sorted, sorting host matrix
[OGL LOG] sort_host_mtx_sparsity_pattern : 12 ms
[OGL LOG] sort_host_mtx : 6 ms
[OGL LOG] init_preconditioner : 0 ms
[OGL LOG] solve : 182 ms
noneompGKOBiCGStab:  Solving for p, Initial residual = 0.0206281, Final residual = 9.50134e-05, No Iterations 87
linear solve p 236
time step continuity errors : sum local = 9.35477e-08, global = -3.41489e-21, cumulative = -5.32666e-20
[OGL LOG] init_host_sparsity_pattern : 18 ms
[OGL LOG] matrix not stored update host matrix
[OGL LOG] update_host_mtx : 9 ms
[OGL LOG] matrix is not yet sorted, sorting host matrix
[OGL LOG] sort_host_mtx_sparsity_pattern : 12 ms
[OGL LOG] sort_host_mtx : 6 ms
[OGL LOG] init_preconditioner : 0 ms
[OGL LOG] solve : 154 ms
noneompGKOBiCGStab:  Solving for p, Initial residual = 0.0174787, Final residual = 7.95861e-05, No Iterations 73
linear solve p 208
time step continuity errors : sum local = 6.53863e-08, global = 1.72121e-20, cumulative = -3.60545e-20
ExecutionTime = 13.36 s  ClockTime = 8 s

Time = 0.01

Courant Number mean: 0.0568724 max: 0.355718
nonePBiCGStab:  Solving for Ux, Initial residual = 0.00952906, Final residual = 5.23999e-05, No Iterations 5
nonePBiCGStab:  Solving for Uy, Initial residual = 0.0171595, Final residual = 6.6256e-05, No Iterations 5
nonePBiCGStab:  Solving for Uz, Initial residual = 0.0328386, Final residual = 0.000391762, No Iterations 5
linear solve U 27
[OGL LOG] init_host_sparsity_pattern : 17 ms
[OGL LOG] matrix not stored update host matrix
[OGL LOG] update_host_mtx : 9 ms
[OGL LOG] matrix is not yet sorted, sorting host matrix
[OGL LOG] sort_host_mtx_sparsity_pattern : 12 ms
[OGL LOG] sort_host_mtx : 6 ms
[OGL LOG] init_preconditioner : 0 ms
[OGL LOG] solve : 149 ms
noneompGKOBiCGStab:  Solving for p, Initial residual = 0.0134326, Final residual = 7.97899e-05, No Iterations 72
linear solve p 203
time step continuity errors : sum local = 5.97091e-08, global = 5.09233e-21, cumulative = -3.09622e-20
[OGL LOG] init_host_sparsity_pattern : 18 ms
[OGL LOG] matrix not stored update host matrix
[OGL LOG] update_host_mtx : 9 ms
[OGL LOG] matrix is not yet sorted, sorting host matrix
[OGL LOG] sort_host_mtx_sparsity_pattern : 12 ms
[OGL LOG] sort_host_mtx : 6 ms
[OGL LOG] init_preconditioner : 0 ms
[OGL LOG] solve : 152 ms
noneompGKOBiCGStab:  Solving for p, Initial residual = 0.0113692, Final residual = 9.85329e-05, No Iterations 73
linear solve p 207
time step continuity errors : sum local = 8.5638e-08, global = -3.56938e-20, cumulative = -6.66559e-20
ExecutionTime = 14.14 s  ClockTime = 8 s

End

