/*---------------------------------------------------------------------------*\
  =========                 |
  \\      /  F ield         | OpenFOAM: The Open Source CFD Toolbox
   \\    /   O peration     | Website:  https://openfoam.org
    \\  /    A nd           | Version:  8
     \\/     M anipulation  |
\*---------------------------------------------------------------------------*/
Build  : 8-40a5a48f630f
Exec   : icoFoam
Date   : Jul 28 2021
Time   : 01:57:16
Host   : "uc2n473.localdomain"
PID    : 999230
I/O    : uncollated
Case   : /pfs/data5/home/kit/scc/nq7776/code/OBR/lidDrivenCavity3D/Variation_mesh/40/Variation_matrix_solver/BiCGStab_BJ_OMP/base
nProcs : 1
sigFpe : Enabling floating point exception trapping (FOAM_SIGFPE).
fileModificationChecking : Monitoring run-time modified files using timeStampMaster (fileModificationSkew 10)
allowSystemOperations : Allowing user-supplied system call operations

// * * * * * * * * * * * * * * * * * * * * * * * * * * * * * * * * * * * * * //
Create time

Create mesh for time = 0

Reading transportProperties

Reading field p

Reading field U

Reading/calculating face flux field phi


Starting time loop

Time = 0.001

Courant Number mean: 0 max: 0
nonePBiCGStab:  Solving for Ux, Initial residual = 1, Final residual = 0.0197517, No Iterations 5
nonePBiCGStab:  Solving for Uy, Initial residual = 0, Final residual = 0, No Iterations 0
nonePBiCGStab:  Solving for Uz, Initial residual = 0, Final residual = 0, No Iterations 0
linear solve U 14
[OGL LOG] init_host_sparsity_pattern : 19 ms
[OGL LOG] matrix not stored update host matrix
[OGL LOG] update_host_mtx : 10 ms
[OGL LOG] matrix is not yet sorted, compute sorting idxs
[OGL LOG] compute_sort : 521 ms
[OGL LOG] matrix is not yet sorted, sorting host matrix
[OGL LOG] sort_host_mtx_sparsity_pattern : 13 ms
[OGL LOG] sort_host_mtx : 7 ms
[OGL LOG] init_preconditioner : 3 ms
[OGL LOG] solve : 458 ms
BJompGKOBiCGStab:  Solving for p, Initial residual = 1, Final residual = 8.62669e-05, No Iterations 202
linear solve p 1049
time step continuity errors : sum local = 3.48439e-07, global = -2.36218e-20, cumulative = -2.36218e-20
[OGL LOG] init_host_sparsity_pattern : 18 ms
[OGL LOG] matrix not stored update host matrix
[OGL LOG] update_host_mtx : 9 ms
[OGL LOG] matrix is not yet sorted, sorting host matrix
[OGL LOG] sort_host_mtx_sparsity_pattern : 13 ms
[OGL LOG] sort_host_mtx : 6 ms
[OGL LOG] init_preconditioner : 0 ms
[OGL LOG] solve : 457 ms
BJompGKOBiCGStab:  Solving for p, Initial residual = 0.598907, Final residual = 7.79611e-05, No Iterations 203
linear solve p 512
time step continuity errors : sum local = 5.2981e-06, global = 3.0495e-21, cumulative = -2.05723e-20
ExecutionTime = 10.23 s  ClockTime = 2 s

Time = 0.002

Courant Number mean: 0.0210305 max: 0.237022
nonePBiCGStab:  Solving for Ux, Initial residual = 0.177436, Final residual = 0.00672739, No Iterations 5
nonePBiCGStab:  Solving for Uy, Initial residual = 0.294534, Final residual = 0.0081966, No Iterations 5
nonePBiCGStab:  Solving for Uz, Initial residual = 0.881864, Final residual = 0.0372695, No Iterations 5
linear solve U 27
[OGL LOG] init_host_sparsity_pattern : 17 ms
[OGL LOG] matrix not stored update host matrix
[OGL LOG] update_host_mtx : 9 ms
[OGL LOG] matrix is not yet sorted, sorting host matrix
[OGL LOG] sort_host_mtx_sparsity_pattern : 17 ms
[OGL LOG] sort_host_mtx : 7 ms
[OGL LOG] init_preconditioner : 0 ms
[OGL LOG] solve : 419 ms
BJompGKOBiCGStab:  Solving for p, Initial residual = 0.460912, Final residual = 9.71501e-05, No Iterations 191
linear solve p 489
time step continuity errors : sum local = 2.70878e-07, global = 8.18309e-21, cumulative = -1.23892e-20
[OGL LOG] init_host_sparsity_pattern : 18 ms
[OGL LOG] matrix not stored update host matrix
[OGL LOG] update_host_mtx : 9 ms
[OGL LOG] matrix is not yet sorted, sorting host matrix
[OGL LOG] sort_host_mtx_sparsity_pattern : 12 ms
[OGL LOG] sort_host_mtx : 6 ms
[OGL LOG] init_preconditioner : 0 ms
[OGL LOG] solve : 412 ms
BJompGKOBiCGStab:  Solving for p, Initial residual = 0.362449, Final residual = 9.22674e-05, No Iterations 189
linear solve p 466
time step continuity errors : sum local = 3.68709e-07, global = 1.2078e-21, cumulative = -1.11814e-20
ExecutionTime = 18.86 s  ClockTime = 3 s

Time = 0.003

Courant Number mean: 0.0321004 max: 0.305885
nonePBiCGStab:  Solving for Ux, Initial residual = 0.0656428, Final residual = 0.00141079, No Iterations 5
nonePBiCGStab:  Solving for Uy, Initial residual = 0.108027, Final residual = 0.00187668, No Iterations 5
nonePBiCGStab:  Solving for Uz, Initial residual = 0.193087, Final residual = 0.00933307, No Iterations 5
linear solve U 27
[OGL LOG] init_host_sparsity_pattern : 17 ms
[OGL LOG] matrix not stored update host matrix
[OGL LOG] update_host_mtx : 9 ms
[OGL LOG] matrix is not yet sorted, sorting host matrix
[OGL LOG] sort_host_mtx_sparsity_pattern : 12 ms
[OGL LOG] sort_host_mtx : 6 ms
[OGL LOG] init_preconditioner : 0 ms
[OGL LOG] solve : 383 ms
BJompGKOBiCGStab:  Solving for p, Initial residual = 0.165106, Final residual = 7.05011e-05, No Iterations 179
linear solve p 436
time step continuity errors : sum local = 4.71938e-07, global = -1.79802e-20, cumulative = -2.91616e-20
[OGL LOG] init_host_sparsity_pattern : 18 ms
[OGL LOG] matrix not stored update host matrix
[OGL LOG] update_host_mtx : 9 ms
[OGL LOG] matrix is not yet sorted, sorting host matrix
[OGL LOG] sort_host_mtx_sparsity_pattern : 12 ms
[OGL LOG] sort_host_mtx : 6 ms
[OGL LOG] init_preconditioner : 0 ms
[OGL LOG] solve : 383 ms
BJompGKOBiCGStab:  Solving for p, Initial residual = 0.129515, Final residual = 9.88528e-05, No Iterations 179
linear solve p 438
time step continuity errors : sum local = 2.4539e-07, global = -7.34088e-21, cumulative = -3.65025e-20
ExecutionTime = 26.78 s  ClockTime = 4 s

Time = 0.004

Courant Number mean: 0.0386686 max: 0.327542
nonePBiCGStab:  Solving for Ux, Initial residual = 0.038656, Final residual = 0.000664582, No Iterations 5
nonePBiCGStab:  Solving for Uy, Initial residual = 0.0674952, Final residual = 0.000702567, No Iterations 5
nonePBiCGStab:  Solving for Uz, Initial residual = 0.135377, Final residual = 0.00410479, No Iterations 5
linear solve U 27
[OGL LOG] init_host_sparsity_pattern : 17 ms
[OGL LOG] matrix not stored update host matrix
[OGL LOG] update_host_mtx : 9 ms
[OGL LOG] matrix is not yet sorted, sorting host matrix
[OGL LOG] sort_host_mtx_sparsity_pattern : 12 ms
[OGL LOG] sort_host_mtx : 6 ms
[OGL LOG] init_preconditioner : 0 ms
[OGL LOG] solve : 361 ms
BJompGKOBiCGStab:  Solving for p, Initial residual = 0.0861093, Final residual = 9.18138e-05, No Iterations 172
linear solve p 415
time step continuity errors : sum local = 7.11857e-08, global = 2.37571e-20, cumulative = -1.27454e-20
[OGL LOG] init_host_sparsity_pattern : 18 ms
[OGL LOG] matrix not stored update host matrix
[OGL LOG] update_host_mtx : 9 ms
[OGL LOG] matrix is not yet sorted, sorting host matrix
[OGL LOG] sort_host_mtx_sparsity_pattern : 13 ms
[OGL LOG] sort_host_mtx : 6 ms
[OGL LOG] init_preconditioner : 0 ms
[OGL LOG] solve : 362 ms
BJompGKOBiCGStab:  Solving for p, Initial residual = 0.06626, Final residual = 6.61643e-05, No Iterations 170
linear solve p 417
time step continuity errors : sum local = 9.17219e-06, global = -3.77954e-21, cumulative = -1.65249e-20
ExecutionTime = 34.26 s  ClockTime = 5 s

Time = 0.005

Courant Number mean: 0.0434784 max: 0.337856
nonePBiCGStab:  Solving for Ux, Initial residual = 0.0268673, Final residual = 0.000628802, No Iterations 5
nonePBiCGStab:  Solving for Uy, Initial residual = 0.048277, Final residual = 0.00100417, No Iterations 5
nonePBiCGStab:  Solving for Uz, Initial residual = 0.152948, Final residual = 0.00940685, No Iterations 5
linear solve U 27
[OGL LOG] init_host_sparsity_pattern : 17 ms
[OGL LOG] matrix not stored update host matrix
[OGL LOG] update_host_mtx : 9 ms
[OGL LOG] matrix is not yet sorted, sorting host matrix
[OGL LOG] sort_host_mtx_sparsity_pattern : 12 ms
[OGL LOG] sort_host_mtx : 6 ms
[OGL LOG] init_preconditioner : 0 ms
[OGL LOG] solve : 331 ms
BJompGKOBiCGStab:  Solving for p, Initial residual = 0.0622833, Final residual = 9.6831e-05, No Iterations 156
linear solve p 384
time step continuity errors : sum local = 7.65105e-08, global = -6.7836e-21, cumulative = -2.33086e-20
[OGL LOG] init_host_sparsity_pattern : 18 ms
[OGL LOG] matrix not stored update host matrix
[OGL LOG] update_host_mtx : 9 ms
[OGL LOG] matrix is not yet sorted, sorting host matrix
[OGL LOG] sort_host_mtx_sparsity_pattern : 12 ms
[OGL LOG] sort_host_mtx : 6 ms
[OGL LOG] init_preconditioner : 0 ms
[OGL LOG] solve : 322 ms
BJompGKOBiCGStab:  Solving for p, Initial residual = 0.0436189, Final residual = 8.19251e-05, No Iterations 152
linear solve p 377
time step continuity errors : sum local = 7.84757e-08, global = 3.02188e-21, cumulative = -2.02867e-20
ExecutionTime = 41.05 s  ClockTime = 6 s

Time = 0.006

Courant Number mean: 0.0471902 max: 0.344005
nonePBiCGStab:  Solving for Ux, Initial residual = 0.0207466, Final residual = 0.000405615, No Iterations 5
nonePBiCGStab:  Solving for Uy, Initial residual = 0.0358144, Final residual = 0.000697128, No Iterations 5
nonePBiCGStab:  Solving for Uz, Initial residual = 0.0921799, Final residual = 0.00435688, No Iterations 5
linear solve U 27
[OGL LOG] init_host_sparsity_pattern : 17 ms
[OGL LOG] matrix not stored update host matrix
[OGL LOG] update_host_mtx : 9 ms
[OGL LOG] matrix is not yet sorted, sorting host matrix
[OGL LOG] sort_host_mtx_sparsity_pattern : 12 ms
[OGL LOG] sort_host_mtx : 6 ms
[OGL LOG] init_preconditioner : 0 ms
[OGL LOG] solve : 339 ms
BJompGKOBiCGStab:  Solving for p, Initial residual = 0.0329457, Final residual = 9.90422e-05, No Iterations 159
linear solve p 393
time step continuity errors : sum local = 1.60695e-07, global = -3.73879e-21, cumulative = -2.40255e-20
[OGL LOG] init_host_sparsity_pattern : 18 ms
[OGL LOG] matrix not stored update host matrix
[OGL LOG] update_host_mtx : 9 ms
[OGL LOG] matrix is not yet sorted, sorting host matrix
[OGL LOG] sort_host_mtx_sparsity_pattern : 12 ms
[OGL LOG] sort_host_mtx : 6 ms
[OGL LOG] init_preconditioner : 0 ms
[OGL LOG] solve : 346 ms
BJompGKOBiCGStab:  Solving for p, Initial residual = 0.0261992, Final residual = 9.9908e-05, No Iterations 163
linear solve p 400
time step continuity errors : sum local = 7.44406e-08, global = 8.0144e-21, cumulative = -1.60111e-20
ExecutionTime = 48.16 s  ClockTime = 6 s

Time = 0.007

Courant Number mean: 0.0502102 max: 0.34823
nonePBiCGStab:  Solving for Ux, Initial residual = 0.0162966, Final residual = 0.000161227, No Iterations 5
nonePBiCGStab:  Solving for Uy, Initial residual = 0.0286389, Final residual = 0.000202348, No Iterations 5
nonePBiCGStab:  Solving for Uz, Initial residual = 0.059741, Final residual = 0.00121508, No Iterations 5
linear solve U 27
[OGL LOG] init_host_sparsity_pattern : 17 ms
[OGL LOG] matrix not stored update host matrix
[OGL LOG] update_host_mtx : 9 ms
[OGL LOG] matrix is not yet sorted, sorting host matrix
[OGL LOG] sort_host_mtx_sparsity_pattern : 12 ms
[OGL LOG] sort_host_mtx : 6 ms
[OGL LOG] init_preconditioner : 0 ms
[OGL LOG] solve : 136 ms
BJompGKOBiCGStab:  Solving for p, Initial residual = 0.0244339, Final residual = 9.82112e-05, No Iterations 65
linear solve p 190
time step continuity errors : sum local = 1.23877e-07, global = -2.71876e-20, cumulative = -4.31986e-20
[OGL LOG] init_host_sparsity_pattern : 18 ms
[OGL LOG] matrix not stored update host matrix
[OGL LOG] update_host_mtx : 9 ms
[OGL LOG] matrix is not yet sorted, sorting host matrix
[OGL LOG] sort_host_mtx_sparsity_pattern : 12 ms
[OGL LOG] sort_host_mtx : 6 ms
[OGL LOG] init_preconditioner : 0 ms
[OGL LOG] solve : 130 ms
BJompGKOBiCGStab:  Solving for p, Initial residual = 0.0200816, Final residual = 8.11817e-05, No Iterations 62
linear solve p 184
time step continuity errors : sum local = 1.09594e-07, global = -6.68691e-21, cumulative = -4.98855e-20
ExecutionTime = 51.1 s  ClockTime = 7 s

Time = 0.008

Courant Number mean: 0.0527789 max: 0.351355
nonePBiCGStab:  Solving for Ux, Initial residual = 0.0133549, Final residual = 0.000106045, No Iterations 5
nonePBiCGStab:  Solving for Uy, Initial residual = 0.0236004, Final residual = 0.000119168, No Iterations 5
nonePBiCGStab:  Solving for Uz, Initial residual = 0.046841, Final residual = 0.000564877, No Iterations 5
linear solve U 27
[OGL LOG] init_host_sparsity_pattern : 17 ms
[OGL LOG] matrix not stored update host matrix
[OGL LOG] update_host_mtx : 9 ms
[OGL LOG] matrix is not yet sorted, sorting host matrix
[OGL LOG] sort_host_mtx_sparsity_pattern : 12 ms
[OGL LOG] sort_host_mtx : 6 ms
[OGL LOG] init_preconditioner : 0 ms
[OGL LOG] solve : 133 ms
BJompGKOBiCGStab:  Solving for p, Initial residual = 0.0189162, Final residual = 8.40031e-05, No Iterations 64
linear solve p 186
time step continuity errors : sum local = 6.21463e-08, global = 1.4345e-20, cumulative = -3.55406e-20
[OGL LOG] init_host_sparsity_pattern : 18 ms
[OGL LOG] matrix not stored update host matrix
[OGL LOG] update_host_mtx : 9 ms
[OGL LOG] matrix is not yet sorted, sorting host matrix
[OGL LOG] sort_host_mtx_sparsity_pattern : 12 ms
[OGL LOG] sort_host_mtx : 6 ms
[OGL LOG] init_preconditioner : 0 ms
[OGL LOG] solve : 136 ms
BJompGKOBiCGStab:  Solving for p, Initial residual = 0.0158708, Final residual = 8.82103e-05, No Iterations 65
linear solve p 190
time step continuity errors : sum local = 1.05484e-07, global = 1.38694e-20, cumulative = -2.16712e-20
ExecutionTime = 54.05 s  ClockTime = 7 s

Time = 0.009

Courant Number mean: 0.0549661 max: 0.353763
nonePBiCGStab:  Solving for Ux, Initial residual = 0.0111715, Final residual = 6.76213e-05, No Iterations 5
nonePBiCGStab:  Solving for Uy, Initial residual = 0.0200121, Final residual = 8.83671e-05, No Iterations 5
nonePBiCGStab:  Solving for Uz, Initial residual = 0.0387431, Final residual = 0.000444813, No Iterations 5
linear solve U 27
[OGL LOG] init_host_sparsity_pattern : 17 ms
[OGL LOG] matrix not stored update host matrix
[OGL LOG] update_host_mtx : 9 ms
[OGL LOG] matrix is not yet sorted, sorting host matrix
[OGL LOG] sort_host_mtx_sparsity_pattern : 12 ms
[OGL LOG] sort_host_mtx : 6 ms
[OGL LOG] init_preconditioner : 0 ms
[OGL LOG] solve : 138 ms
BJompGKOBiCGStab:  Solving for p, Initial residual = 0.0158496, Final residual = 9.9154e-05, No Iterations 66
linear solve p 192
time step continuity errors : sum local = 1.07368e-07, global = 1.52722e-20, cumulative = -6.39895e-21
[OGL LOG] init_host_sparsity_pattern : 18 ms
[OGL LOG] matrix not stored update host matrix
[OGL LOG] update_host_mtx : 9 ms
[OGL LOG] matrix is not yet sorted, sorting host matrix
[OGL LOG] sort_host_mtx_sparsity_pattern : 13 ms
[OGL LOG] sort_host_mtx : 6 ms
[OGL LOG] init_preconditioner : 0 ms
[OGL LOG] solve : 132 ms
BJompGKOBiCGStab:  Solving for p, Initial residual = 0.0134094, Final residual = 9.52593e-05, No Iterations 63
linear solve p 187
time step continuity errors : sum local = 9.93905e-08, global = -2.73918e-20, cumulative = -3.37907e-20
ExecutionTime = 57.03 s  ClockTime = 8 s

Time = 0.01

Courant Number mean: 0.0568494 max: 0.355692
nonePBiCGStab:  Solving for Ux, Initial residual = 0.0095659, Final residual = 4.99878e-05, No Iterations 5
nonePBiCGStab:  Solving for Uy, Initial residual = 0.0171311, Final residual = 5.80134e-05, No Iterations 5
nonePBiCGStab:  Solving for Uz, Initial residual = 0.033957, Final residual = 0.000244006, No Iterations 5
linear solve U 27
[OGL LOG] init_host_sparsity_pattern : 17 ms
[OGL LOG] matrix not stored update host matrix
[OGL LOG] update_host_mtx : 9 ms
[OGL LOG] matrix is not yet sorted, sorting host matrix
[OGL LOG] sort_host_mtx_sparsity_pattern : 12 ms
[OGL LOG] sort_host_mtx : 6 ms
[OGL LOG] init_preconditioner : 0 ms
[OGL LOG] solve : 128 ms
BJompGKOBiCGStab:  Solving for p, Initial residual = 0.0134679, Final residual = 9.81395e-05, No Iterations 61
linear solve p 181
time step continuity errors : sum local = 1.19723e-07, global = -1.17842e-20, cumulative = -4.55749e-20
[OGL LOG] init_host_sparsity_pattern : 18 ms
[OGL LOG] matrix not stored update host matrix
[OGL LOG] update_host_mtx : 9 ms
[OGL LOG] matrix is not yet sorted, sorting host matrix
[OGL LOG] sort_host_mtx_sparsity_pattern : 12 ms
[OGL LOG] sort_host_mtx : 6 ms
[OGL LOG] init_preconditioner : 0 ms
[OGL LOG] solve : 130 ms
BJompGKOBiCGStab:  Solving for p, Initial residual = 0.0114349, Final residual = 8.8382e-05, No Iterations 61
linear solve p 185
time step continuity errors : sum local = 8.0673e-08, global = 2.29075e-21, cumulative = -4.32842e-20
ExecutionTime = 59.87 s  ClockTime = 8 s

End

