/*---------------------------------------------------------------------------*\
  =========                 |
  \\      /  F ield         | OpenFOAM: The Open Source CFD Toolbox
   \\    /   O peration     | Website:  https://openfoam.org
    \\  /    A nd           | Version:  8
     \\/     M anipulation  |
\*---------------------------------------------------------------------------*/
Build  : 8-40a5a48f630f
Exec   : icoFoam
Date   : Jul 28 2021
Time   : 01:41:31
Host   : "uc2n544.localdomain"
PID    : 823163
I/O    : uncollated
Case   : /pfs/data5/home/kit/scc/nq7776/code/OBR/lidDrivenCavity3D/Variation_mesh/90/Variation_matrix_solver/BiCGStab_BJ_OMP/base
nProcs : 1
sigFpe : Enabling floating point exception trapping (FOAM_SIGFPE).
fileModificationChecking : Monitoring run-time modified files using timeStampMaster (fileModificationSkew 10)
allowSystemOperations : Allowing user-supplied system call operations

// * * * * * * * * * * * * * * * * * * * * * * * * * * * * * * * * * * * * * //
Create time

Create mesh for time = 0

Reading transportProperties

Reading field p

Reading field U

Reading/calculating face flux field phi


Starting time loop

Time = 0.001

Courant Number mean: 0 max: 0
nonePBiCGStab:  Solving for Ux, Initial residual = 1, Final residual = 0.0756268, No Iterations 5
nonePBiCGStab:  Solving for Uy, Initial residual = 0, Final residual = 0, No Iterations 0
nonePBiCGStab:  Solving for Uz, Initial residual = 0, Final residual = 0, No Iterations 0
linear solve U 200
[OGL LOG] init_host_sparsity_pattern : 219 ms
[OGL LOG] matrix not stored update host matrix
[OGL LOG] update_host_mtx : 113 ms
[OGL LOG] matrix is not yet sorted, compute sorting idxs
[OGL LOG] compute_sort : 6910 ms
[OGL LOG] matrix is not yet sorted, sorting host matrix
[OGL LOG] sort_host_mtx_sparsity_pattern : 158 ms
[OGL LOG] sort_host_mtx : 93 ms
[OGL LOG] init_preconditioner : 36 ms
[OGL LOG] solve : 12625 ms
BJompGKOBiCGStab:  Solving for p, Initial residual = 1, Final residual = 8.64788e-05, No Iterations 485
linear solve p 20337
time step continuity errors : sum local = 6.75104e-08, global = -7.35084e-21, cumulative = -7.35084e-21
[OGL LOG] init_host_sparsity_pattern : 219 ms
[OGL LOG] matrix not stored update host matrix
[OGL LOG] update_host_mtx : 113 ms
[OGL LOG] matrix is not yet sorted, sorting host matrix
[OGL LOG] sort_host_mtx_sparsity_pattern : 176 ms
[OGL LOG] sort_host_mtx : 93 ms
[OGL LOG] init_preconditioner : 0 ms
[OGL LOG] solve : 11462 ms
BJompGKOBiCGStab:  Solving for p, Initial residual = 0.701132, Final residual = 9.69855e-05, No Iterations 448
linear solve p 12217
time step continuity errors : sum local = 1.4212e-07, global = 6.037e-22, cumulative = -6.74714e-21
ExecutionTime = 204.2 s  ClockTime = 36 s

Time = 0.002

Courant Number mean: 0.0401009 max: 0.699777
nonePBiCGStab:  Solving for Ux, Initial residual = 0.140413, Final residual = 0.0352795, No Iterations 5
nonePBiCGStab:  Solving for Uy, Initial residual = 0.428673, Final residual = 0.104698, No Iterations 5
nonePBiCGStab:  Solving for Uz, Initial residual = 0.978406, Final residual = 0.28112, No Iterations 5
linear solve U 402
[OGL LOG] init_host_sparsity_pattern : 209 ms
[OGL LOG] matrix not stored update host matrix
[OGL LOG] update_host_mtx : 114 ms
[OGL LOG] matrix is not yet sorted, sorting host matrix
[OGL LOG] sort_host_mtx_sparsity_pattern : 163 ms
[OGL LOG] sort_host_mtx : 94 ms
[OGL LOG] init_preconditioner : 0 ms
[OGL LOG] solve : 11957 ms
BJompGKOBiCGStab:  Solving for p, Initial residual = 0.764409, Final residual = 9.82208e-05, No Iterations 451
linear solve p 12663
time step continuity errors : sum local = 3.12981e-07, global = 9.34517e-21, cumulative = 2.59802e-21
[OGL LOG] init_host_sparsity_pattern : 218 ms
[OGL LOG] matrix not stored update host matrix
[OGL LOG] update_host_mtx : 114 ms
[OGL LOG] matrix is not yet sorted, sorting host matrix
[OGL LOG] sort_host_mtx_sparsity_pattern : 158 ms
[OGL LOG] sort_host_mtx : 93 ms
[OGL LOG] init_preconditioner : 0 ms
[OGL LOG] solve : 10596 ms
BJompGKOBiCGStab:  Solving for p, Initial residual = 0.686742, Final residual = 9.42647e-05, No Iterations 407
linear solve p 11299
time step continuity errors : sum local = 0.00014072, global = 1.24164e-19, cumulative = 1.26762e-19
ExecutionTime = 386.53 s  ClockTime = 61 s

Time = 0.003

Courant Number mean: 0.0635768 max: 10.2433
nonePBiCGStab:  Solving for Ux, Initial residual = 0.0651932, Final residual = 0.0199166, No Iterations 5
nonePBiCGStab:  Solving for Uy, Initial residual = 0.26644, Final residual = 0.0964316, No Iterations 5
nonePBiCGStab:  Solving for Uz, Initial residual = 0.806917, Final residual = 0.379325, No Iterations 5
linear solve U 402
[OGL LOG] init_host_sparsity_pattern : 213 ms
[OGL LOG] matrix not stored update host matrix
[OGL LOG] update_host_mtx : 114 ms
[OGL LOG] matrix is not yet sorted, sorting host matrix
[OGL LOG] sort_host_mtx_sparsity_pattern : 164 ms
[OGL LOG] sort_host_mtx : 93 ms
[OGL LOG] init_preconditioner : 0 ms
[OGL LOG] solve : 12249 ms
BJompGKOBiCGStab:  Solving for p, Initial residual = 0.766687, Final residual = 6.82456e-05, No Iterations 466
linear solve p 12959
time step continuity errors : sum local = 4.23816e-07, global = -9.09143e-22, cumulative = 1.25853e-19
[OGL LOG] init_host_sparsity_pattern : 208 ms
[OGL LOG] matrix not stored update host matrix
[OGL LOG] update_host_mtx : 115 ms
[OGL LOG] matrix is not yet sorted, sorting host matrix
[OGL LOG] sort_host_mtx_sparsity_pattern : 164 ms
[OGL LOG] sort_host_mtx : 94 ms
[OGL LOG] init_preconditioner : 0 ms
[OGL LOG] solve : 12457 ms
BJompGKOBiCGStab:  Solving for p, Initial residual = 0.685969, Final residual = 7.44677e-05, No Iterations 475
linear solve p 13164
time step continuity errors : sum local = 6.71133e-08, global = 5.7509e-21, cumulative = 1.31604e-19
ExecutionTime = 586.05 s  ClockTime = 88 s

Time = 0.004

Courant Number mean: 0.0746355 max: 0.814695
nonePBiCGStab:  Solving for Ux, Initial residual = 0.0475451, Final residual = 0.0149692, No Iterations 5
nonePBiCGStab:  Solving for Uy, Initial residual = 0.159329, Final residual = 0.0532249, No Iterations 5
nonePBiCGStab:  Solving for Uz, Initial residual = 0.661447, Final residual = 0.167001, No Iterations 5
linear solve U 401
[OGL LOG] init_host_sparsity_pattern : 211 ms
[OGL LOG] matrix not stored update host matrix
[OGL LOG] update_host_mtx : 113 ms
[OGL LOG] matrix is not yet sorted, sorting host matrix
[OGL LOG] sort_host_mtx_sparsity_pattern : 159 ms
[OGL LOG] sort_host_mtx : 93 ms
[OGL LOG] init_preconditioner : 0 ms
[OGL LOG] solve : 11943 ms
BJompGKOBiCGStab:  Solving for p, Initial residual = 0.681311, Final residual = 3.05465e-05, No Iterations 451
linear solve p 12635
time step continuity errors : sum local = 1.06011e-07, global = -6.8905e-21, cumulative = 1.24714e-19
[OGL LOG] init_host_sparsity_pattern : 208 ms
[OGL LOG] matrix not stored update host matrix
[OGL LOG] update_host_mtx : 114 ms
[OGL LOG] matrix is not yet sorted, sorting host matrix
[OGL LOG] sort_host_mtx_sparsity_pattern : 165 ms
[OGL LOG] sort_host_mtx : 93 ms
[OGL LOG] init_preconditioner : 0 ms
[OGL LOG] solve : 11395 ms
BJompGKOBiCGStab:  Solving for p, Initial residual = 0.568044, Final residual = 9.77894e-05, No Iterations 440
linear solve p 12106
time step continuity errors : sum local = 1.08506e-07, global = -1.04008e-20, cumulative = 1.14313e-19
ExecutionTime = 774.68 s  ClockTime = 114 s

Time = 0.005

Courant Number mean: 0.0828867 max: 0.825103
nonePBiCGStab:  Solving for Ux, Initial residual = 0.0321293, Final residual = 0.00753036, No Iterations 5
nonePBiCGStab:  Solving for Uy, Initial residual = 0.0974436, Final residual = 0.0315671, No Iterations 5
nonePBiCGStab:  Solving for Uz, Initial residual = 0.442401, Final residual = 0.0953845, No Iterations 5
linear solve U 401
[OGL LOG] init_host_sparsity_pattern : 211 ms
[OGL LOG] matrix not stored update host matrix
[OGL LOG] update_host_mtx : 114 ms
[OGL LOG] matrix is not yet sorted, sorting host matrix
[OGL LOG] sort_host_mtx_sparsity_pattern : 164 ms
[OGL LOG] sort_host_mtx : 94 ms
[OGL LOG] init_preconditioner : 0 ms
[OGL LOG] solve : 9616 ms
BJompGKOBiCGStab:  Solving for p, Initial residual = 0.701473, Final residual = 8.74684e-05, No Iterations 364
linear solve p 10324
time step continuity errors : sum local = 6.04022e-08, global = 6.41845e-21, cumulative = 1.20731e-19
[OGL LOG] init_host_sparsity_pattern : 203 ms
[OGL LOG] matrix not stored update host matrix
[OGL LOG] update_host_mtx : 115 ms
[OGL LOG] matrix is not yet sorted, sorting host matrix
[OGL LOG] sort_host_mtx_sparsity_pattern : 159 ms
[OGL LOG] sort_host_mtx : 93 ms
[OGL LOG] init_preconditioner : 0 ms
[OGL LOG] solve : 10910 ms
BJompGKOBiCGStab:  Solving for p, Initial residual = 0.597941, Final residual = 9.89232e-05, No Iterations 416
linear solve p 11598
time step continuity errors : sum local = 6.76075e-08, global = -2.8313e-21, cumulative = 1.179e-19
ExecutionTime = 940.82 s  ClockTime = 137 s

Time = 0.006

Courant Number mean: 0.0912899 max: 0.833165
nonePBiCGStab:  Solving for Ux, Initial residual = 0.0242984, Final residual = 0.00547752, No Iterations 5
nonePBiCGStab:  Solving for Uy, Initial residual = 0.0727958, Final residual = 0.0210496, No Iterations 5
nonePBiCGStab:  Solving for Uz, Initial residual = 0.333045, Final residual = 0.0731882, No Iterations 5
linear solve U 401
[OGL LOG] init_host_sparsity_pattern : 212 ms
[OGL LOG] matrix not stored update host matrix
[OGL LOG] update_host_mtx : 113 ms
[OGL LOG] matrix is not yet sorted, sorting host matrix
[OGL LOG] sort_host_mtx_sparsity_pattern : 164 ms
[OGL LOG] sort_host_mtx : 93 ms
[OGL LOG] init_preconditioner : 0 ms
[OGL LOG] solve : 10144 ms
BJompGKOBiCGStab:  Solving for p, Initial residual = 0.627298, Final residual = 9.85203e-05, No Iterations 383
linear solve p 10853
time step continuity errors : sum local = 7.10061e-08, global = 2.58778e-20, cumulative = 1.43778e-19
[OGL LOG] init_host_sparsity_pattern : 203 ms
[OGL LOG] matrix not stored update host matrix
[OGL LOG] update_host_mtx : 114 ms
[OGL LOG] matrix is not yet sorted, sorting host matrix
[OGL LOG] sort_host_mtx_sparsity_pattern : 159 ms
[OGL LOG] sort_host_mtx : 93 ms
[OGL LOG] init_preconditioner : 0 ms
[OGL LOG] solve : 10682 ms
BJompGKOBiCGStab:  Solving for p, Initial residual = 0.524488, Final residual = 5.48559e-05, No Iterations 407
linear solve p 11371
time step continuity errors : sum local = 4.7728e-06, global = 3.09188e-20, cumulative = 1.74697e-19
ExecutionTime = 1109.39 s  ClockTime = 160 s

Time = 0.007

Courant Number mean: 0.0985601 max: 0.83919
nonePBiCGStab:  Solving for Ux, Initial residual = 0.0187492, Final residual = 0.00417685, No Iterations 5
nonePBiCGStab:  Solving for Uy, Initial residual = 0.0832508, Final residual = 0.0220529, No Iterations 5
nonePBiCGStab:  Solving for Uz, Initial residual = 0.661098, Final residual = 0.188782, No Iterations 5
linear solve U 400
[OGL LOG] init_host_sparsity_pattern : 211 ms
[OGL LOG] matrix not stored update host matrix
[OGL LOG] update_host_mtx : 114 ms
[OGL LOG] matrix is not yet sorted, sorting host matrix
[OGL LOG] sort_host_mtx_sparsity_pattern : 164 ms
[OGL LOG] sort_host_mtx : 93 ms
[OGL LOG] init_preconditioner : 0 ms
[OGL LOG] solve : 11277 ms
BJompGKOBiCGStab:  Solving for p, Initial residual = 0.702221, Final residual = 2.95267e-05, No Iterations 425
linear solve p 11984
time step continuity errors : sum local = 3.8848e-07, global = -4.87168e-21, cumulative = 1.69825e-19
[OGL LOG] init_host_sparsity_pattern : 202 ms
[OGL LOG] matrix not stored update host matrix
[OGL LOG] update_host_mtx : 113 ms
[OGL LOG] matrix is not yet sorted, sorting host matrix
[OGL LOG] sort_host_mtx_sparsity_pattern : 159 ms
[OGL LOG] sort_host_mtx : 93 ms
[OGL LOG] init_preconditioner : 0 ms
[OGL LOG] solve : 10185 ms
BJompGKOBiCGStab:  Solving for p, Initial residual = 0.612292, Final residual = 3.32241e-05, No Iterations 388
linear solve p 10872
time step continuity errors : sum local = 6.26583e-07, global = 2.32749e-20, cumulative = 1.931e-19
ExecutionTime = 1283.04 s  ClockTime = 184 s

regIOobject::readIfModified() : 
    Re-reading object controlDict from file "/pfs/data5/home/kit/scc/nq7776/code/OBR/lidDrivenCavity3D/Variation_mesh/90/Variation_matrix_solver/BiCGStab_BJ_OMP/base/system/controlDict"
Time = 0.008

Courant Number mean: 0.104994 max: 0.844506
nonePBiCGStab:  Solving for Ux, Initial residual = 0.0180091, Final residual = 0.00400233, No Iterations 5
nonePBiCGStab:  Solving for Uy, Initial residual = 0.0610556, Final residual = 0.0168342, No Iterations 5
nonePBiCGStab:  Solving for Uz, Initial residual = 0.492518, Final residual = 0.134003, No Iterations 5
linear solve U 401
[OGL LOG] init_host_sparsity_pattern : 211 ms
[OGL LOG] matrix not stored update host matrix
[OGL LOG] update_host_mtx : 114 ms
[OGL LOG] matrix is not yet sorted, sorting host matrix
[OGL LOG] sort_host_mtx_sparsity_pattern : 165 ms
[OGL LOG] sort_host_mtx : 94 ms
[OGL LOG] init_preconditioner : 0 ms
[OGL LOG] solve : 12102 ms
BJompGKOBiCGStab:  Solving for p, Initial residual = 0.622488, Final residual = 9.48611e-05, No Iterations 456
linear solve p 12815
time step continuity errors : sum local = 1.18915e-07, global = 6.23359e-21, cumulative = 1.99333e-19
[OGL LOG] init_host_sparsity_pattern : 204 ms
[OGL LOG] matrix not stored update host matrix
[OGL LOG] update_host_mtx : 114 ms
[OGL LOG] matrix is not yet sorted, sorting host matrix
[OGL LOG] sort_host_mtx_sparsity_pattern : 159 ms
[OGL LOG] sort_host_mtx : 94 ms
[OGL LOG] init_preconditioner : 0 ms
[OGL LOG] solve : 9897 ms
BJompGKOBiCGStab:  Solving for p, Initial residual = 0.525134, Final residual = 9.98818e-05, No Iterations 380
linear solve p 10587
time step continuity errors : sum local = 2.78214e-07, global = 1.52028e-20, cumulative = 2.14536e-19
ExecutionTime = 1460.99 s  ClockTime = 208 s

Time = 0.009

Courant Number mean: 0.110248 max: 0.846924
nonePBiCGStab:  Solving for Ux, Initial residual = 0.0147301, Final residual = 0.00305786, No Iterations 5
nonePBiCGStab:  Solving for Uy, Initial residual = 0.0435614, Final residual = 0.0114181, No Iterations 5
nonePBiCGStab:  Solving for Uz, Initial residual = 0.235198, Final residual = 0.0550429, No Iterations 5
linear solve U 400
[OGL LOG] init_host_sparsity_pattern : 211 ms
[OGL LOG] matrix not stored update host matrix
[OGL LOG] update_host_mtx : 114 ms
[OGL LOG] matrix is not yet sorted, sorting host matrix
[OGL LOG] sort_host_mtx_sparsity_pattern : 165 ms
[OGL LOG] sort_host_mtx : 95 ms
[OGL LOG] init_preconditioner : 0 ms
[OGL LOG] solve : 9844 ms
BJompGKOBiCGStab:  Solving for p, Initial residual = 0.646935, Final residual = 9.65397e-05, No Iterations 378
linear solve p 10558
time step continuity errors : sum local = 1.05446e-07, global = 4.20038e-21, cumulative = 2.18737e-19
[OGL LOG] init_host_sparsity_pattern : 203 ms
[OGL LOG] matrix not stored update host matrix
[OGL LOG] update_host_mtx : 115 ms
[OGL LOG] matrix is not yet sorted, sorting host matrix
[OGL LOG] sort_host_mtx_sparsity_pattern : 159 ms
[OGL LOG] sort_host_mtx : 95 ms
[OGL LOG] init_preconditioner : 0 ms
[OGL LOG] solve : 10386 ms
BJompGKOBiCGStab:  Solving for p, Initial residual = 0.547664, Final residual = 8.49357e-05, No Iterations 398
linear solve p 11074
time step continuity errors : sum local = 5.97227e-08, global = 2.07488e-20, cumulative = 2.39485e-19
ExecutionTime = 1624.73 s  ClockTime = 230 s

Time = 0.01

Courant Number mean: 0.115054 max: 0.84957
nonePBiCGStab:  Solving for Ux, Initial residual = 0.0126472, Final residual = 0.0026659, No Iterations 5
nonePBiCGStab:  Solving for Uy, Initial residual = 0.0367855, Final residual = 0.00815824, No Iterations 5
nonePBiCGStab:  Solving for Uz, Initial residual = 0.167648, Final residual = 0.040581, No Iterations 5
linear solve U 399
[OGL LOG] init_host_sparsity_pattern : 211 ms
[OGL LOG] matrix not stored update host matrix
[OGL LOG] update_host_mtx : 118 ms
[OGL LOG] matrix is not yet sorted, sorting host matrix
[OGL LOG] sort_host_mtx_sparsity_pattern : 159 ms
[OGL LOG] sort_host_mtx : 94 ms
[OGL LOG] init_preconditioner : 0 ms
[OGL LOG] solve : 8527 ms
BJompGKOBiCGStab:  Solving for p, Initial residual = 0.602529, Final residual = 9.58091e-05, No Iterations 329
linear solve p 9232
time step continuity errors : sum local = 9.06607e-08, global = -1.69891e-20, cumulative = 2.22496e-19
[OGL LOG] init_host_sparsity_pattern : 208 ms
[OGL LOG] matrix not stored update host matrix
[OGL LOG] update_host_mtx : 115 ms
[OGL LOG] matrix is not yet sorted, sorting host matrix
[OGL LOG] sort_host_mtx_sparsity_pattern : 165 ms
[OGL LOG] sort_host_mtx : 95 ms
[OGL LOG] init_preconditioner : 0 ms
[OGL LOG] solve : 8944 ms
BJompGKOBiCGStab:  Solving for p, Initial residual = 0.50826, Final residual = 7.51224e-05, No Iterations 341
linear solve p 9655
time step continuity errors : sum local = 2.94596e-07, global = -1.54443e-20, cumulative = 2.07052e-19
ExecutionTime = 1766.48 s  ClockTime = 250 s

End

