/*---------------------------------------------------------------------------*\
  =========                 |
  \\      /  F ield         | OpenFOAM: The Open Source CFD Toolbox
   \\    /   O peration     | Website:  https://openfoam.org
    \\  /    A nd           | Version:  8
     \\/     M anipulation  |
\*---------------------------------------------------------------------------*/
Build  : 8-40a5a48f630f
Exec   : icoFoam
Date   : Jul 28 2021
Time   : 01:44:20
Host   : "uc2n473.localdomain"
PID    : 997777
I/O    : uncollated
Case   : /pfs/data5/home/kit/scc/nq7776/code/OBR/lidDrivenCavity3D/Variation_mesh/90/Variation_matrix_solver/BiCGStab_BJ_OMP/base
nProcs : 1
sigFpe : Enabling floating point exception trapping (FOAM_SIGFPE).
fileModificationChecking : Monitoring run-time modified files using timeStampMaster (fileModificationSkew 10)
allowSystemOperations : Allowing user-supplied system call operations

// * * * * * * * * * * * * * * * * * * * * * * * * * * * * * * * * * * * * * //
Create time

Create mesh for time = 0

Reading transportProperties

Reading field p

Reading field U

Reading/calculating face flux field phi


Starting time loop

Time = 0.001

Courant Number mean: 0 max: 0
nonePBiCGStab:  Solving for Ux, Initial residual = 1, Final residual = 0.0756268, No Iterations 5
nonePBiCGStab:  Solving for Uy, Initial residual = 0, Final residual = 0, No Iterations 0
nonePBiCGStab:  Solving for Uz, Initial residual = 0, Final residual = 0, No Iterations 0
linear solve U 190
[OGL LOG] init_host_sparsity_pattern : 207 ms
[OGL LOG] matrix not stored update host matrix
[OGL LOG] update_host_mtx : 108 ms
[OGL LOG] matrix is not yet sorted, compute sorting idxs
[OGL LOG] compute_sort : 6527 ms
[OGL LOG] matrix is not yet sorted, sorting host matrix
[OGL LOG] sort_host_mtx_sparsity_pattern : 150 ms
[OGL LOG] sort_host_mtx : 88 ms
[OGL LOG] init_preconditioner : 41 ms
[OGL LOG] solve : 12332 ms
BJompGKOBiCGStab:  Solving for p, Initial residual = 1, Final residual = 8.64788e-05, No Iterations 485
linear solve p 19614
time step continuity errors : sum local = 6.75104e-08, global = -7.35084e-21, cumulative = -7.35084e-21
[OGL LOG] init_host_sparsity_pattern : 208 ms
[OGL LOG] matrix not stored update host matrix
[OGL LOG] update_host_mtx : 107 ms
[OGL LOG] matrix is not yet sorted, sorting host matrix
[OGL LOG] sort_host_mtx_sparsity_pattern : 157 ms
[OGL LOG] sort_host_mtx : 95 ms
[OGL LOG] init_preconditioner : 0 ms
[OGL LOG] solve : 10483 ms
BJompGKOBiCGStab:  Solving for p, Initial residual = 0.701132, Final residual = 9.69855e-05, No Iterations 448
linear solve p 11179
time step continuity errors : sum local = 1.4212e-07, global = 6.037e-22, cumulative = -6.74714e-21
ExecutionTime = 238.81 s  ClockTime = 35 s

Time = 0.002

Courant Number mean: 0.0401009 max: 0.699777
nonePBiCGStab:  Solving for Ux, Initial residual = 0.140413, Final residual = 0.0352795, No Iterations 5
nonePBiCGStab:  Solving for Uy, Initial residual = 0.428673, Final residual = 0.104698, No Iterations 5
nonePBiCGStab:  Solving for Uz, Initial residual = 0.978406, Final residual = 0.28112, No Iterations 5
linear solve U 385
[OGL LOG] init_host_sparsity_pattern : 198 ms
[OGL LOG] matrix not stored update host matrix
[OGL LOG] update_host_mtx : 107 ms
[OGL LOG] matrix is not yet sorted, sorting host matrix
[OGL LOG] sort_host_mtx_sparsity_pattern : 154 ms
[OGL LOG] sort_host_mtx : 88 ms
[OGL LOG] init_preconditioner : 0 ms
[OGL LOG] solve : 10857 ms
BJompGKOBiCGStab:  Solving for p, Initial residual = 0.764409, Final residual = 9.82208e-05, No Iterations 451
linear solve p 11525
time step continuity errors : sum local = 3.33373e-07, global = 9.1665e-21, cumulative = 2.41935e-21
[OGL LOG] init_host_sparsity_pattern : 206 ms
[OGL LOG] matrix not stored update host matrix
[OGL LOG] update_host_mtx : 107 ms
[OGL LOG] matrix is not yet sorted, sorting host matrix
[OGL LOG] sort_host_mtx_sparsity_pattern : 154 ms
[OGL LOG] sort_host_mtx : 88 ms
[OGL LOG] init_preconditioner : 0 ms
[OGL LOG] solve : 10921 ms
BJompGKOBiCGStab:  Solving for p, Initial residual = 0.686748, Final residual = 9.2406e-05, No Iterations 449
linear solve p 11599
time step continuity errors : sum local = 1.39218e-06, global = 6.00116e-21, cumulative = 8.42051e-21
ExecutionTime = 458.26 s  ClockTime = 59 s

Time = 0.003

Courant Number mean: 0.0633505 max: 0.801231
nonePBiCGStab:  Solving for Ux, Initial residual = 0.0595592, Final residual = 0.0123943, No Iterations 5
nonePBiCGStab:  Solving for Uy, Initial residual = 0.183568, Final residual = 0.0482889, No Iterations 5
nonePBiCGStab:  Solving for Uz, Initial residual = 0.686486, Final residual = 0.208174, No Iterations 5
linear solve U 382
[OGL LOG] init_host_sparsity_pattern : 200 ms
[OGL LOG] matrix not stored update host matrix
[OGL LOG] update_host_mtx : 107 ms
[OGL LOG] matrix is not yet sorted, sorting host matrix
[OGL LOG] sort_host_mtx_sparsity_pattern : 154 ms
[OGL LOG] sort_host_mtx : 88 ms
[OGL LOG] init_preconditioner : 0 ms
[OGL LOG] solve : 4823 ms
BJompGKOBiCGStab:  Solving for p, Initial residual = 0.756182, Final residual = 9.45789e-05, No Iterations 198
linear solve p 5488
time step continuity errors : sum local = 1.26708e-07, global = 1.41766e-21, cumulative = 9.83817e-21
[OGL LOG] init_host_sparsity_pattern : 192 ms
[OGL LOG] matrix not stored update host matrix
[OGL LOG] update_host_mtx : 107 ms
[OGL LOG] matrix is not yet sorted, sorting host matrix
[OGL LOG] sort_host_mtx_sparsity_pattern : 150 ms
[OGL LOG] sort_host_mtx : 88 ms
[OGL LOG] init_preconditioner : 0 ms
[OGL LOG] solve : 4558 ms
BJompGKOBiCGStab:  Solving for p, Initial residual = 0.685597, Final residual = 9.73431e-05, No Iterations 189
linear solve p 5202
time step continuity errors : sum local = 1.40158e-07, global = 1.107e-21, cumulative = 1.09452e-20
ExecutionTime = 554.11 s  ClockTime = 70 s

Time = 0.004

Courant Number mean: 0.0762422 max: 0.816927
nonePBiCGStab:  Solving for Ux, Initial residual = 0.0364733, Final residual = 0.00790711, No Iterations 5
nonePBiCGStab:  Solving for Uy, Initial residual = 0.127792, Final residual = 0.0358012, No Iterations 5
nonePBiCGStab:  Solving for Uz, Initial residual = 0.432577, Final residual = 0.101572, No Iterations 5
linear solve U 380
[OGL LOG] init_host_sparsity_pattern : 200 ms
[OGL LOG] matrix not stored update host matrix
[OGL LOG] update_host_mtx : 107 ms
[OGL LOG] matrix is not yet sorted, sorting host matrix
[OGL LOG] sort_host_mtx_sparsity_pattern : 150 ms
[OGL LOG] sort_host_mtx : 88 ms
[OGL LOG] init_preconditioner : 0 ms
[OGL LOG] solve : 4484 ms
BJompGKOBiCGStab:  Solving for p, Initial residual = 0.65119, Final residual = 9.73801e-05, No Iterations 184
linear solve p 5142
time step continuity errors : sum local = 1.2709e-07, global = 2.24943e-22, cumulative = 1.11701e-20
[OGL LOG] init_host_sparsity_pattern : 197 ms
[OGL LOG] matrix not stored update host matrix
[OGL LOG] update_host_mtx : 107 ms
[OGL LOG] matrix is not yet sorted, sorting host matrix
[OGL LOG] sort_host_mtx_sparsity_pattern : 154 ms
[OGL LOG] sort_host_mtx : 88 ms
[OGL LOG] init_preconditioner : 0 ms
[OGL LOG] solve : 4467 ms
BJompGKOBiCGStab:  Solving for p, Initial residual = 0.559614, Final residual = 9.39183e-05, No Iterations 185
linear solve p 5129
time step continuity errors : sum local = 1.26945e-07, global = 1.48241e-21, cumulative = 1.26525e-20
ExecutionTime = 645.64 s  ClockTime = 81 s

Time = 0.005

Courant Number mean: 0.0866481 max: 0.82909
nonePBiCGStab:  Solving for Ux, Initial residual = 0.0277524, Final residual = 0.0060871, No Iterations 5
nonePBiCGStab:  Solving for Uy, Initial residual = 0.0827745, Final residual = 0.0258445, No Iterations 5
nonePBiCGStab:  Solving for Uz, Initial residual = 0.24091, Final residual = 0.0594376, No Iterations 5
linear solve U 381
[OGL LOG] init_host_sparsity_pattern : 200 ms
[OGL LOG] matrix not stored update host matrix
[OGL LOG] update_host_mtx : 107 ms
[OGL LOG] matrix is not yet sorted, sorting host matrix
[OGL LOG] sort_host_mtx_sparsity_pattern : 151 ms
[OGL LOG] sort_host_mtx : 88 ms
[OGL LOG] init_preconditioner : 0 ms
[OGL LOG] solve : 4468 ms
BJompGKOBiCGStab:  Solving for p, Initial residual = 0.682388, Final residual = 9.95033e-05, No Iterations 183
linear solve p 5119
time step continuity errors : sum local = 1.17182e-07, global = 1.07965e-20, cumulative = 2.34491e-20
[OGL LOG] init_host_sparsity_pattern : 192 ms
[OGL LOG] matrix not stored update host matrix
[OGL LOG] update_host_mtx : 107 ms
[OGL LOG] matrix is not yet sorted, sorting host matrix
[OGL LOG] sort_host_mtx_sparsity_pattern : 150 ms
[OGL LOG] sort_host_mtx : 88 ms
[OGL LOG] init_preconditioner : 0 ms
[OGL LOG] solve : 4523 ms
BJompGKOBiCGStab:  Solving for p, Initial residual = 0.602219, Final residual = 9.77784e-05, No Iterations 187
linear solve p 5167
time step continuity errors : sum local = 5.12858e-07, global = -9.86891e-22, cumulative = 2.24622e-20
ExecutionTime = 737.55 s  ClockTime = 92 s

Time = 0.006

Courant Number mean: 0.0947347 max: 0.836064
nonePBiCGStab:  Solving for Ux, Initial residual = 0.0207027, Final residual = 0.0046257, No Iterations 5
nonePBiCGStab:  Solving for Uy, Initial residual = 0.0681649, Final residual = 0.0196326, No Iterations 5
nonePBiCGStab:  Solving for Uz, Initial residual = 0.184503, Final residual = 0.0494162, No Iterations 5
linear solve U 380
[OGL LOG] init_host_sparsity_pattern : 200 ms
[OGL LOG] matrix not stored update host matrix
[OGL LOG] update_host_mtx : 107 ms
[OGL LOG] matrix is not yet sorted, sorting host matrix
[OGL LOG] sort_host_mtx_sparsity_pattern : 150 ms
[OGL LOG] sort_host_mtx : 88 ms
[OGL LOG] init_preconditioner : 0 ms
[OGL LOG] solve : 4379 ms
BJompGKOBiCGStab:  Solving for p, Initial residual = 0.602603, Final residual = 9.73662e-05, No Iterations 181
linear solve p 5031
time step continuity errors : sum local = 1.9761e-07, global = 1.31268e-20, cumulative = 3.55889e-20
[OGL LOG] init_host_sparsity_pattern : 197 ms
[OGL LOG] matrix not stored update host matrix
[OGL LOG] update_host_mtx : 107 ms
[OGL LOG] matrix is not yet sorted, sorting host matrix
[OGL LOG] sort_host_mtx_sparsity_pattern : 155 ms
[OGL LOG] sort_host_mtx : 88 ms
[OGL LOG] init_preconditioner : 0 ms
[OGL LOG] solve : 4425 ms
BJompGKOBiCGStab:  Solving for p, Initial residual = 0.516731, Final residual = 9.26007e-05, No Iterations 183
linear solve p 5090
time step continuity errors : sum local = 1.1831e-07, global = 2.33401e-21, cumulative = 3.7923e-20
ExecutionTime = 827.59 s  ClockTime = 103 s

Time = 0.007

Courant Number mean: 0.101602 max: 0.841386
nonePBiCGStab:  Solving for Ux, Initial residual = 0.0179441, Final residual = 0.00386345, No Iterations 5
nonePBiCGStab:  Solving for Uy, Initial residual = 0.0510639, Final residual = 0.0155288, No Iterations 5
nonePBiCGStab:  Solving for Uz, Initial residual = 0.143458, Final residual = 0.0403424, No Iterations 5
linear solve U 382
[OGL LOG] init_host_sparsity_pattern : 200 ms
[OGL LOG] matrix not stored update host matrix
[OGL LOG] update_host_mtx : 108 ms
[OGL LOG] matrix is not yet sorted, sorting host matrix
[OGL LOG] sort_host_mtx_sparsity_pattern : 150 ms
[OGL LOG] sort_host_mtx : 88 ms
[OGL LOG] init_preconditioner : 0 ms
[OGL LOG] solve : 4056 ms
BJompGKOBiCGStab:  Solving for p, Initial residual = 0.636001, Final residual = 8.26482e-05, No Iterations 167
linear solve p 4707
time step continuity errors : sum local = 1.08597e-07, global = 1.48837e-20, cumulative = 5.28067e-20
[OGL LOG] init_host_sparsity_pattern : 193 ms
[OGL LOG] matrix not stored update host matrix
[OGL LOG] update_host_mtx : 107 ms
[OGL LOG] matrix is not yet sorted, sorting host matrix
[OGL LOG] sort_host_mtx_sparsity_pattern : 151 ms
[OGL LOG] sort_host_mtx : 88 ms
[OGL LOG] init_preconditioner : 0 ms
[OGL LOG] solve : 4424 ms
BJompGKOBiCGStab:  Solving for p, Initial residual = 0.551124, Final residual = 9.75758e-05, No Iterations 183
linear solve p 5068
time step continuity errors : sum local = 1.13627e-07, global = 1.44891e-20, cumulative = 6.72957e-20
ExecutionTime = 914.41 s  ClockTime = 114 s

Time = 0.008

Courant Number mean: 0.107401 max: 0.845061
nonePBiCGStab:  Solving for Ux, Initial residual = 0.0145868, Final residual = 0.00326186, No Iterations 5
nonePBiCGStab:  Solving for Uy, Initial residual = 0.0438536, Final residual = 0.0110345, No Iterations 5
nonePBiCGStab:  Solving for Uz, Initial residual = 0.125798, Final residual = 0.0369565, No Iterations 5
linear solve U 382
[OGL LOG] init_host_sparsity_pattern : 200 ms
[OGL LOG] matrix not stored update host matrix
[OGL LOG] update_host_mtx : 107 ms
[OGL LOG] matrix is not yet sorted, sorting host matrix
[OGL LOG] sort_host_mtx_sparsity_pattern : 150 ms
[OGL LOG] sort_host_mtx : 88 ms
[OGL LOG] init_preconditioner : 0 ms
[OGL LOG] solve : 7651 ms
BJompGKOBiCGStab:  Solving for p, Initial residual = 0.572967, Final residual = 8.4724e-05, No Iterations 318
linear solve p 8308
time step continuity errors : sum local = 1.04312e-07, global = -1.72184e-20, cumulative = 5.00773e-20
[OGL LOG] init_host_sparsity_pattern : 197 ms
[OGL LOG] matrix not stored update host matrix
[OGL LOG] update_host_mtx : 108 ms
[OGL LOG] matrix is not yet sorted, sorting host matrix
[OGL LOG] sort_host_mtx_sparsity_pattern : 155 ms
[OGL LOG] sort_host_mtx : 89 ms
[OGL LOG] init_preconditioner : 0 ms
[OGL LOG] solve : 3992 ms
BJompGKOBiCGStab:  Solving for p, Initial residual = 0.489058, Final residual = 9.58854e-05, No Iterations 165
linear solve p 4658
time step continuity errors : sum local = 9.34392e-08, global = 4.40989e-21, cumulative = 5.44872e-20
ExecutionTime = 1032.78 s  ClockTime = 128 s

Time = 0.009

Courant Number mean: 0.112555 max: 0.848146
nonePBiCGStab:  Solving for Ux, Initial residual = 0.0134098, Final residual = 0.00269566, No Iterations 5
nonePBiCGStab:  Solving for Uy, Initial residual = 0.035422, Final residual = 0.00973578, No Iterations 5
nonePBiCGStab:  Solving for Uz, Initial residual = 0.114592, Final residual = 0.0342965, No Iterations 5
linear solve U 382
[OGL LOG] init_host_sparsity_pattern : 200 ms
[OGL LOG] matrix not stored update host matrix
[OGL LOG] update_host_mtx : 107 ms
[OGL LOG] matrix is not yet sorted, sorting host matrix
[OGL LOG] sort_host_mtx_sparsity_pattern : 150 ms
[OGL LOG] sort_host_mtx : 88 ms
[OGL LOG] init_preconditioner : 0 ms
[OGL LOG] solve : 8693 ms
BJompGKOBiCGStab:  Solving for p, Initial residual = 0.606595, Final residual = 9.71385e-05, No Iterations 359
linear solve p 9347
time step continuity errors : sum local = 6.51321e-08, global = -1.62561e-20, cumulative = 3.82311e-20
[OGL LOG] init_host_sparsity_pattern : 193 ms
[OGL LOG] matrix not stored update host matrix
[OGL LOG] update_host_mtx : 108 ms
[OGL LOG] matrix is not yet sorted, sorting host matrix
[OGL LOG] sort_host_mtx_sparsity_pattern : 151 ms
[OGL LOG] sort_host_mtx : 88 ms
[OGL LOG] init_preconditioner : 0 ms
[OGL LOG] solve : 9470 ms
BJompGKOBiCGStab:  Solving for p, Initial residual = 0.52143, Final residual = 9.79516e-05, No Iterations 397
linear solve p 10122
time step continuity errors : sum local = 1.91054e-07, global = 2.14249e-20, cumulative = 5.96559e-20
ExecutionTime = 1216.15 s  ClockTime = 148 s

regIOobject::readIfModified() : 
    Re-reading object controlDict from file "/pfs/data5/home/kit/scc/nq7776/code/OBR/lidDrivenCavity3D/Variation_mesh/90/Variation_matrix_solver/BiCGStab_BJ_OMP/base/system/controlDict"
End

