/*---------------------------------------------------------------------------*\
  =========                 |
  \\      /  F ield         | OpenFOAM: The Open Source CFD Toolbox
   \\    /   O peration     | Website:  https://openfoam.org
    \\  /    A nd           | Version:  8
     \\/     M anipulation  |
\*---------------------------------------------------------------------------*/
Build  : 8-40a5a48f630f
Exec   : icoFoam
Date   : Jul 28 2021
Time   : 01:56:56
Host   : "uc2n550.localdomain"
PID    : 1019406
I/O    : uncollated
Case   : /pfs/data5/home/kit/scc/nq7776/code/OBR/lidDrivenCavity3D/Variation_mesh/40/Variation_matrix_solver/BiCGStab_NoPrecond_OMP/base
nProcs : 1
sigFpe : Enabling floating point exception trapping (FOAM_SIGFPE).
fileModificationChecking : Monitoring run-time modified files using timeStampMaster (fileModificationSkew 10)
allowSystemOperations : Allowing user-supplied system call operations

// * * * * * * * * * * * * * * * * * * * * * * * * * * * * * * * * * * * * * //
Create time

Create mesh for time = 0

Reading transportProperties

Reading field p

Reading field U

Reading/calculating face flux field phi


Starting time loop

Time = 0.001

Courant Number mean: 0 max: 0
nonePBiCGStab:  Solving for Ux, Initial residual = 1, Final residual = 0.0197517, No Iterations 5
nonePBiCGStab:  Solving for Uy, Initial residual = 0, Final residual = 0, No Iterations 0
nonePBiCGStab:  Solving for Uz, Initial residual = 0, Final residual = 0, No Iterations 0
linear solve U 15
[OGL LOG] init_host_sparsity_pattern : 19 ms
[OGL LOG] matrix not stored update host matrix
[OGL LOG] update_host_mtx : 9 ms
[OGL LOG] matrix is not yet sorted, compute sorting idxs
[OGL LOG] compute_sort : 482 ms
[OGL LOG] matrix is not yet sorted, sorting host matrix
[OGL LOG] sort_host_mtx_sparsity_pattern : 13 ms
[OGL LOG] sort_host_mtx : 7 ms
[OGL LOG] init_preconditioner : 0 ms
[OGL LOG] solve : 366 ms
noneompGKOBiCGStab:  Solving for p, Initial residual = 1, Final residual = 8.58855e-05, No Iterations 253
linear solve p 913
time step continuity errors : sum local = 1.25022e-07, global = -1.80073e-20, cumulative = -1.80073e-20
[OGL LOG] init_host_sparsity_pattern : 18 ms
[OGL LOG] matrix not stored update host matrix
[OGL LOG] update_host_mtx : 9 ms
[OGL LOG] matrix is not yet sorted, sorting host matrix
[OGL LOG] sort_host_mtx_sparsity_pattern : 12 ms
[OGL LOG] sort_host_mtx : 6 ms
[OGL LOG] init_preconditioner : 0 ms
[OGL LOG] solve : 369 ms
noneompGKOBiCGStab:  Solving for p, Initial residual = 0.598499, Final residual = 8.91669e-05, No Iterations 251
linear solve p 424
time step continuity errors : sum local = 4.66778e-06, global = 1.4632e-20, cumulative = -3.37531e-21
ExecutionTime = 3.89 s  ClockTime = 2 s

Time = 0.002

Courant Number mean: 0.0210284 max: 0.237017
nonePBiCGStab:  Solving for Ux, Initial residual = 0.177824, Final residual = 0.00673976, No Iterations 5
nonePBiCGStab:  Solving for Uy, Initial residual = 0.294111, Final residual = 0.00819655, No Iterations 5
nonePBiCGStab:  Solving for Uz, Initial residual = 0.910385, Final residual = 0.0347121, No Iterations 5
linear solve U 26
[OGL LOG] init_host_sparsity_pattern : 16 ms
[OGL LOG] matrix not stored update host matrix
[OGL LOG] update_host_mtx : 9 ms
[OGL LOG] matrix is not yet sorted, sorting host matrix
[OGL LOG] sort_host_mtx_sparsity_pattern : 13 ms
[OGL LOG] sort_host_mtx : 6 ms
[OGL LOG] init_preconditioner : 0 ms
[OGL LOG] solve : 350 ms
noneompGKOBiCGStab:  Solving for p, Initial residual = 0.46063, Final residual = 9.75643e-05, No Iterations 236
linear solve p 405
time step continuity errors : sum local = 6.15206e-07, global = -8.07814e-21, cumulative = -1.14535e-20
[OGL LOG] init_host_sparsity_pattern : 17 ms
[OGL LOG] matrix not stored update host matrix
[OGL LOG] update_host_mtx : 8 ms
[OGL LOG] matrix is not yet sorted, sorting host matrix
[OGL LOG] sort_host_mtx_sparsity_pattern : 14 ms
[OGL LOG] sort_host_mtx : 6 ms
[OGL LOG] init_preconditioner : 0 ms
[OGL LOG] solve : 338 ms
noneompGKOBiCGStab:  Solving for p, Initial residual = 0.361844, Final residual = 9.90938e-05, No Iterations 233
linear solve p 393
time step continuity errors : sum local = 2.40847e-06, global = 1.94379e-20, cumulative = 7.98449e-21
ExecutionTime = 6.86 s  ClockTime = 2 s

Time = 0.003

Courant Number mean: 0.0321005 max: 0.305897
nonePBiCGStab:  Solving for Ux, Initial residual = 0.0655492, Final residual = 0.00132079, No Iterations 5
nonePBiCGStab:  Solving for Uy, Initial residual = 0.108705, Final residual = 0.00194615, No Iterations 5
nonePBiCGStab:  Solving for Uz, Initial residual = 0.228628, Final residual = 0.0127043, No Iterations 5
linear solve U 28
[OGL LOG] init_host_sparsity_pattern : 17 ms
[OGL LOG] matrix not stored update host matrix
[OGL LOG] update_host_mtx : 9 ms
[OGL LOG] matrix is not yet sorted, sorting host matrix
[OGL LOG] sort_host_mtx_sparsity_pattern : 12 ms
[OGL LOG] sort_host_mtx : 6 ms
[OGL LOG] init_preconditioner : 0 ms
[OGL LOG] solve : 343 ms
noneompGKOBiCGStab:  Solving for p, Initial residual = 0.169607, Final residual = 6.0081e-05, No Iterations 235
linear solve p 396
time step continuity errors : sum local = 5.11354e-08, global = 2.95189e-20, cumulative = 3.75034e-20
[OGL LOG] init_host_sparsity_pattern : 16 ms
[OGL LOG] matrix not stored update host matrix
[OGL LOG] update_host_mtx : 8 ms
[OGL LOG] matrix is not yet sorted, sorting host matrix
[OGL LOG] sort_host_mtx_sparsity_pattern : 12 ms
[OGL LOG] sort_host_mtx : 6 ms
[OGL LOG] init_preconditioner : 0 ms
[OGL LOG] solve : 319 ms
noneompGKOBiCGStab:  Solving for p, Initial residual = 0.131571, Final residual = 9.59279e-05, No Iterations 219
linear solve p 371
time step continuity errors : sum local = 2.57862e-07, global = -1.1495e-20, cumulative = 2.60085e-20
ExecutionTime = 9.71 s  ClockTime = 3 s

Time = 0.004

Courant Number mean: 0.0386722 max: 0.327543
nonePBiCGStab:  Solving for Ux, Initial residual = 0.0389326, Final residual = 0.000752386, No Iterations 5
nonePBiCGStab:  Solving for Uy, Initial residual = 0.0670935, Final residual = 0.000868556, No Iterations 5
nonePBiCGStab:  Solving for Uz, Initial residual = 0.135728, Final residual = 0.00576816, No Iterations 5
linear solve U 27
[OGL LOG] init_host_sparsity_pattern : 17 ms
[OGL LOG] matrix not stored update host matrix
[OGL LOG] update_host_mtx : 9 ms
[OGL LOG] matrix is not yet sorted, sorting host matrix
[OGL LOG] sort_host_mtx_sparsity_pattern : 12 ms
[OGL LOG] sort_host_mtx : 6 ms
[OGL LOG] init_preconditioner : 0 ms
[OGL LOG] solve : 321 ms
noneompGKOBiCGStab:  Solving for p, Initial residual = 0.0873731, Final residual = 8.17575e-05, No Iterations 221
linear solve p 375
time step continuity errors : sum local = 4.09896e-07, global = 7.48229e-21, cumulative = 3.34907e-20
[OGL LOG] init_host_sparsity_pattern : 17 ms
[OGL LOG] matrix not stored update host matrix
[OGL LOG] update_host_mtx : 9 ms
[OGL LOG] matrix is not yet sorted, sorting host matrix
[OGL LOG] sort_host_mtx_sparsity_pattern : 12 ms
[OGL LOG] sort_host_mtx : 6 ms
[OGL LOG] init_preconditioner : 0 ms
[OGL LOG] solve : 313 ms
noneompGKOBiCGStab:  Solving for p, Initial residual = 0.0675531, Final residual = 8.08582e-05, No Iterations 213
linear solve p 367
time step continuity errors : sum local = 1.01789e-07, global = 3.65423e-20, cumulative = 7.00331e-20
ExecutionTime = 12.45 s  ClockTime = 4 s

Time = 0.005

Courant Number mean: 0.0434732 max: 0.337855
nonePBiCGStab:  Solving for Ux, Initial residual = 0.0270094, Final residual = 0.000370039, No Iterations 5
nonePBiCGStab:  Solving for Uy, Initial residual = 0.046583, Final residual = 0.000407735, No Iterations 5
nonePBiCGStab:  Solving for Uz, Initial residual = 0.0841599, Final residual = 0.00187507, No Iterations 5
linear solve U 27
[OGL LOG] init_host_sparsity_pattern : 17 ms
[OGL LOG] matrix not stored update host matrix
[OGL LOG] update_host_mtx : 9 ms
[OGL LOG] matrix is not yet sorted, sorting host matrix
[OGL LOG] sort_host_mtx_sparsity_pattern : 13 ms
[OGL LOG] sort_host_mtx : 6 ms
[OGL LOG] init_preconditioner : 0 ms
[OGL LOG] solve : 124 ms
noneompGKOBiCGStab:  Solving for p, Initial residual = 0.0443113, Final residual = 9.99949e-05, No Iterations 85
linear solve p 179
time step continuity errors : sum local = 1.21482e-07, global = 1.37713e-20, cumulative = 8.38044e-20
[OGL LOG] init_host_sparsity_pattern : 17 ms
[OGL LOG] matrix not stored update host matrix
[OGL LOG] update_host_mtx : 9 ms
[OGL LOG] matrix is not yet sorted, sorting host matrix
[OGL LOG] sort_host_mtx_sparsity_pattern : 12 ms
[OGL LOG] sort_host_mtx : 6 ms
[OGL LOG] init_preconditioner : 0 ms
[OGL LOG] solve : 129 ms
noneompGKOBiCGStab:  Solving for p, Initial residual = 0.0354076, Final residual = 9.57614e-05, No Iterations 88
linear solve p 182
time step continuity errors : sum local = 1.23314e-07, global = -2.82725e-20, cumulative = 5.55319e-20
ExecutionTime = 13.66 s  ClockTime = 5 s

Time = 0.006

Courant Number mean: 0.0471932 max: 0.344024
nonePBiCGStab:  Solving for Ux, Initial residual = 0.0204113, Final residual = 0.000201277, No Iterations 5
nonePBiCGStab:  Solving for Uy, Initial residual = 0.0356675, Final residual = 0.000275363, No Iterations 5
nonePBiCGStab:  Solving for Uz, Initial residual = 0.0636883, Final residual = 0.000797071, No Iterations 5
linear solve U 27
[OGL LOG] init_host_sparsity_pattern : 17 ms
[OGL LOG] matrix not stored update host matrix
[OGL LOG] update_host_mtx : 9 ms
[OGL LOG] matrix is not yet sorted, sorting host matrix
[OGL LOG] sort_host_mtx_sparsity_pattern : 12 ms
[OGL LOG] sort_host_mtx : 6 ms
[OGL LOG] init_preconditioner : 0 ms
[OGL LOG] solve : 127 ms
noneompGKOBiCGStab:  Solving for p, Initial residual = 0.0297167, Final residual = 9.93164e-05, No Iterations 87
linear solve p 181
time step continuity errors : sum local = 1.24573e-07, global = -2.64541e-20, cumulative = 2.90777e-20
[OGL LOG] init_host_sparsity_pattern : 17 ms
[OGL LOG] matrix not stored update host matrix
[OGL LOG] update_host_mtx : 9 ms
[OGL LOG] matrix is not yet sorted, sorting host matrix
[OGL LOG] sort_host_mtx_sparsity_pattern : 12 ms
[OGL LOG] sort_host_mtx : 6 ms
[OGL LOG] init_preconditioner : 0 ms
[OGL LOG] solve : 123 ms
noneompGKOBiCGStab:  Solving for p, Initial residual = 0.0241778, Final residual = 8.8392e-05, No Iterations 84
linear solve p 177
time step continuity errors : sum local = 2.84866e-07, global = 1.95151e-20, cumulative = 4.85929e-20
ExecutionTime = 14.86 s  ClockTime = 5 s

Time = 0.007

Courant Number mean: 0.0502256 max: 0.34825
nonePBiCGStab:  Solving for Ux, Initial residual = 0.0161366, Final residual = 0.000137881, No Iterations 5
nonePBiCGStab:  Solving for Uy, Initial residual = 0.0286801, Final residual = 0.000153617, No Iterations 5
nonePBiCGStab:  Solving for Uz, Initial residual = 0.0524198, Final residual = 0.000793185, No Iterations 5
linear solve U 26
[OGL LOG] init_host_sparsity_pattern : 17 ms
[OGL LOG] matrix not stored update host matrix
[OGL LOG] update_host_mtx : 9 ms
[OGL LOG] matrix is not yet sorted, sorting host matrix
[OGL LOG] sort_host_mtx_sparsity_pattern : 12 ms
[OGL LOG] sort_host_mtx : 6 ms
[OGL LOG] init_preconditioner : 0 ms
[OGL LOG] solve : 123 ms
noneompGKOBiCGStab:  Solving for p, Initial residual = 0.0242066, Final residual = 9.95566e-05, No Iterations 84
linear solve p 177
time step continuity errors : sum local = 1.36612e-07, global = -1.88e-20, cumulative = 2.97928e-20
[OGL LOG] init_host_sparsity_pattern : 18 ms
[OGL LOG] matrix not stored update host matrix
[OGL LOG] update_host_mtx : 9 ms
[OGL LOG] matrix is not yet sorted, sorting host matrix
[OGL LOG] sort_host_mtx_sparsity_pattern : 12 ms
[OGL LOG] sort_host_mtx : 6 ms
[OGL LOG] init_preconditioner : 0 ms
[OGL LOG] solve : 120 ms
noneompGKOBiCGStab:  Solving for p, Initial residual = 0.0200759, Final residual = 9.38558e-05, No Iterations 82
linear solve p 174
time step continuity errors : sum local = 1.2242e-07, global = -2.10976e-21, cumulative = 2.76831e-20
ExecutionTime = 16.03 s  ClockTime = 5 s

Time = 0.008

Courant Number mean: 0.0527961 max: 0.351362
nonePBiCGStab:  Solving for Ux, Initial residual = 0.0133824, Final residual = 9.30688e-05, No Iterations 5
nonePBiCGStab:  Solving for Uy, Initial residual = 0.0234937, Final residual = 0.000105447, No Iterations 5
nonePBiCGStab:  Solving for Uz, Initial residual = 0.0441412, Final residual = 0.000497025, No Iterations 5
linear solve U 27
[OGL LOG] init_host_sparsity_pattern : 17 ms
[OGL LOG] matrix not stored update host matrix
[OGL LOG] update_host_mtx : 9 ms
[OGL LOG] matrix is not yet sorted, sorting host matrix
[OGL LOG] sort_host_mtx_sparsity_pattern : 12 ms
[OGL LOG] sort_host_mtx : 6 ms
[OGL LOG] init_preconditioner : 0 ms
[OGL LOG] solve : 199 ms
noneompGKOBiCGStab:  Solving for p, Initial residual = 0.0181936, Final residual = 9.99139e-05, No Iterations 137
linear solve p 253
time step continuity errors : sum local = 1.27283e-07, global = -1.76965e-21, cumulative = 2.59134e-20
[OGL LOG] init_host_sparsity_pattern : 17 ms
[OGL LOG] matrix not stored update host matrix
[OGL LOG] update_host_mtx : 9 ms
[OGL LOG] matrix is not yet sorted, sorting host matrix
[OGL LOG] sort_host_mtx_sparsity_pattern : 12 ms
[OGL LOG] sort_host_mtx : 6 ms
[OGL LOG] init_preconditioner : 0 ms
[OGL LOG] solve : 114 ms
noneompGKOBiCGStab:  Solving for p, Initial residual = 0.0153419, Final residual = 9.37645e-05, No Iterations 78
linear solve p 168
time step continuity errors : sum local = 1.31443e-07, global = -2.14928e-20, cumulative = 4.42067e-21
ExecutionTime = 17.49 s  ClockTime = 6 s

Time = 0.009

Courant Number mean: 0.0549841 max: 0.353778
nonePBiCGStab:  Solving for Ux, Initial residual = 0.0111907, Final residual = 6.58554e-05, No Iterations 5
nonePBiCGStab:  Solving for Uy, Initial residual = 0.0199174, Final residual = 9.46228e-05, No Iterations 5
nonePBiCGStab:  Solving for Uz, Initial residual = 0.0377222, Final residual = 0.000447941, No Iterations 5
linear solve U 27
[OGL LOG] init_host_sparsity_pattern : 17 ms
[OGL LOG] matrix not stored update host matrix
[OGL LOG] update_host_mtx : 9 ms
[OGL LOG] matrix is not yet sorted, sorting host matrix
[OGL LOG] sort_host_mtx_sparsity_pattern : 12 ms
[OGL LOG] sort_host_mtx : 6 ms
[OGL LOG] init_preconditioner : 0 ms
[OGL LOG] solve : 116 ms
noneompGKOBiCGStab:  Solving for p, Initial residual = 0.0152483, Final residual = 9.79888e-05, No Iterations 80
linear solve p 170
time step continuity errors : sum local = 1.21295e-07, global = 3.10707e-20, cumulative = 3.54914e-20
[OGL LOG] init_host_sparsity_pattern : 17 ms
[OGL LOG] matrix not stored update host matrix
[OGL LOG] update_host_mtx : 9 ms
[OGL LOG] matrix is not yet sorted, sorting host matrix
[OGL LOG] sort_host_mtx_sparsity_pattern : 12 ms
[OGL LOG] sort_host_mtx : 6 ms
[OGL LOG] init_preconditioner : 0 ms
[OGL LOG] solve : 112 ms
noneompGKOBiCGStab:  Solving for p, Initial residual = 0.0129049, Final residual = 9.61316e-05, No Iterations 77
linear solve p 165
time step continuity errors : sum local = 1.15002e-07, global = -6.8087e-21, cumulative = 2.86827e-20
ExecutionTime = 18.6 s  ClockTime = 6 s

Time = 0.01

Courant Number mean: 0.056867 max: 0.355705
nonePBiCGStab:  Solving for Ux, Initial residual = 0.00953634, Final residual = 4.92322e-05, No Iterations 5
nonePBiCGStab:  Solving for Uy, Initial residual = 0.0171254, Final residual = 6.62121e-05, No Iterations 5
nonePBiCGStab:  Solving for Uz, Initial residual = 0.0328791, Final residual = 0.000204559, No Iterations 5
linear solve U 27
[OGL LOG] init_host_sparsity_pattern : 17 ms
[OGL LOG] matrix not stored update host matrix
[OGL LOG] update_host_mtx : 9 ms
[OGL LOG] matrix is not yet sorted, sorting host matrix
[OGL LOG] sort_host_mtx_sparsity_pattern : 12 ms
[OGL LOG] sort_host_mtx : 6 ms
[OGL LOG] init_preconditioner : 0 ms
[OGL LOG] solve : 125 ms
noneompGKOBiCGStab:  Solving for p, Initial residual = 0.0130356, Final residual = 9.79679e-05, No Iterations 85
linear solve p 179
time step continuity errors : sum local = 1.23589e-07, global = 2.14141e-20, cumulative = 5.00968e-20
[OGL LOG] init_host_sparsity_pattern : 17 ms
[OGL LOG] matrix not stored update host matrix
[OGL LOG] update_host_mtx : 9 ms
[OGL LOG] matrix is not yet sorted, sorting host matrix
[OGL LOG] sort_host_mtx_sparsity_pattern : 12 ms
[OGL LOG] sort_host_mtx : 6 ms
[OGL LOG] init_preconditioner : 0 ms
[OGL LOG] solve : 114 ms
noneompGKOBiCGStab:  Solving for p, Initial residual = 0.0111057, Final residual = 9.34089e-05, No Iterations 78
linear solve p 168
time step continuity errors : sum local = 1.22348e-07, global = 2.41532e-21, cumulative = 5.25121e-20
ExecutionTime = 19.75 s  ClockTime = 7 s

End

