/*---------------------------------------------------------------------------*\
  =========                 |
  \\      /  F ield         | OpenFOAM: The Open Source CFD Toolbox
   \\    /   O peration     | Website:  https://openfoam.org
    \\  /    A nd           | Version:  8
     \\/     M anipulation  |
\*---------------------------------------------------------------------------*/
Build  : 8-40a5a48f630f
Exec   : icoFoam
Date   : Jul 28 2021
Time   : 01:52:39
Host   : "uc2n450.localdomain"
PID    : 357771
I/O    : uncollated
Case   : /pfs/data5/home/kit/scc/nq7776/code/OBR/lidDrivenCavity3D/Variation_mesh/90/Variation_matrix_solver/BiCGStab_BJ_OMP/base
nProcs : 1
sigFpe : Enabling floating point exception trapping (FOAM_SIGFPE).
fileModificationChecking : Monitoring run-time modified files using timeStampMaster (fileModificationSkew 10)
allowSystemOperations : Allowing user-supplied system call operations

// * * * * * * * * * * * * * * * * * * * * * * * * * * * * * * * * * * * * * //
Create time

Create mesh for time = 0

Reading transportProperties

Reading field p

Reading field U

Reading/calculating face flux field phi


Starting time loop

Time = 0.001

Courant Number mean: 0 max: 0
nonePBiCGStab:  Solving for Ux, Initial residual = 1, Final residual = 0.0756268, No Iterations 5
nonePBiCGStab:  Solving for Uy, Initial residual = 0, Final residual = 0, No Iterations 0
nonePBiCGStab:  Solving for Uz, Initial residual = 0, Final residual = 0, No Iterations 0
linear solve U 189
[OGL LOG] init_host_sparsity_pattern : 208 ms
[OGL LOG] matrix not stored update host matrix
[OGL LOG] update_host_mtx : 108 ms
[OGL LOG] matrix is not yet sorted, compute sorting idxs
[OGL LOG] compute_sort : 6542 ms
[OGL LOG] matrix is not yet sorted, sorting host matrix
[OGL LOG] sort_host_mtx_sparsity_pattern : 156 ms
[OGL LOG] sort_host_mtx : 90 ms
[OGL LOG] init_preconditioner : 43 ms
[OGL LOG] solve : 13154 ms
BJompGKOBiCGStab:  Solving for p, Initial residual = 1, Final residual = 8.64788e-05, No Iterations 485
linear solve p 20507
time step continuity errors : sum local = 6.75104e-08, global = -7.35084e-21, cumulative = -7.35084e-21
[OGL LOG] init_host_sparsity_pattern : 208 ms
[OGL LOG] matrix not stored update host matrix
[OGL LOG] update_host_mtx : 109 ms
[OGL LOG] matrix is not yet sorted, sorting host matrix
[OGL LOG] sort_host_mtx_sparsity_pattern : 168 ms
[OGL LOG] sort_host_mtx : 89 ms
[OGL LOG] init_preconditioner : 0 ms
[OGL LOG] solve : 12117 ms
BJompGKOBiCGStab:  Solving for p, Initial residual = 0.701132, Final residual = 9.69855e-05, No Iterations 448
linear solve p 12839
time step continuity errors : sum local = 4.09328e-07, global = 6.69874e-22, cumulative = -6.68097e-21
ExecutionTime = 415.03 s  ClockTime = 37 s

Time = 0.002

Courant Number mean: 0.040101 max: 0.699777
nonePBiCGStab:  Solving for Ux, Initial residual = 0.140413, Final residual = 0.0352795, No Iterations 5
nonePBiCGStab:  Solving for Uy, Initial residual = 0.428667, Final residual = 0.105085, No Iterations 5
nonePBiCGStab:  Solving for Uz, Initial residual = 0.977202, Final residual = 0.282718, No Iterations 5
linear solve U 378
[OGL LOG] init_host_sparsity_pattern : 198 ms
[OGL LOG] matrix not stored update host matrix
[OGL LOG] update_host_mtx : 108 ms
[OGL LOG] matrix is not yet sorted, sorting host matrix
[OGL LOG] sort_host_mtx_sparsity_pattern : 155 ms
[OGL LOG] sort_host_mtx : 89 ms
[OGL LOG] init_preconditioner : 0 ms
[OGL LOG] solve : 11934 ms
BJompGKOBiCGStab:  Solving for p, Initial residual = 0.764186, Final residual = 9.73121e-05, No Iterations 442
linear solve p 12608
time step continuity errors : sum local = 3.78909e-06, global = -1.59233e-20, cumulative = -2.26043e-20
[OGL LOG] init_host_sparsity_pattern : 208 ms
[OGL LOG] matrix not stored update host matrix
[OGL LOG] update_host_mtx : 108 ms
[OGL LOG] matrix is not yet sorted, sorting host matrix
[OGL LOG] sort_host_mtx_sparsity_pattern : 155 ms
[OGL LOG] sort_host_mtx : 89 ms
[OGL LOG] init_preconditioner : 0 ms
[OGL LOG] solve : 12874 ms
BJompGKOBiCGStab:  Solving for p, Initial residual = 0.687279, Final residual = 6.64972e-05, No Iterations 472
linear solve p 13561
time step continuity errors : sum local = 1.78144e-05, global = 2.62467e-21, cumulative = -1.99796e-20
ExecutionTime = 813.12 s  ClockTime = 64 s

Time = 0.003

Courant Number mean: 0.0633495 max: 0.801218
nonePBiCGStab:  Solving for Ux, Initial residual = 0.0595166, Final residual = 0.0127534, No Iterations 5
nonePBiCGStab:  Solving for Uy, Initial residual = 0.1847, Final residual = 0.0490477, No Iterations 5
nonePBiCGStab:  Solving for Uz, Initial residual = 0.630293, Final residual = 0.198736, No Iterations 5
linear solve U 386
[OGL LOG] init_host_sparsity_pattern : 200 ms
[OGL LOG] matrix not stored update host matrix
[OGL LOG] update_host_mtx : 108 ms
[OGL LOG] matrix is not yet sorted, sorting host matrix
[OGL LOG] sort_host_mtx_sparsity_pattern : 156 ms
[OGL LOG] sort_host_mtx : 89 ms
[OGL LOG] init_preconditioner : 0 ms
[OGL LOG] solve : 10986 ms
BJompGKOBiCGStab:  Solving for p, Initial residual = 0.755092, Final residual = 9.85105e-05, No Iterations 405
linear solve p 11662
time step continuity errors : sum local = 7.46517e-08, global = -3.50924e-21, cumulative = -2.34889e-20
[OGL LOG] init_host_sparsity_pattern : 193 ms
[OGL LOG] matrix not stored update host matrix
[OGL LOG] update_host_mtx : 108 ms
[OGL LOG] matrix is not yet sorted, sorting host matrix
[OGL LOG] sort_host_mtx_sparsity_pattern : 151 ms
[OGL LOG] sort_host_mtx : 89 ms
[OGL LOG] init_preconditioner : 0 ms
[OGL LOG] solve : 12467 ms
BJompGKOBiCGStab:  Solving for p, Initial residual = 0.685249, Final residual = 8.54636e-05, No Iterations 457
linear solve p 13124
time step continuity errors : sum local = 5.92145e-08, global = 1.15132e-20, cumulative = -1.19756e-20
ExecutionTime = 1189.66 s  ClockTime = 90 s

Time = 0.004

Courant Number mean: 0.0761793 max: 0.816766
nonePBiCGStab:  Solving for Ux, Initial residual = 0.0368823, Final residual = 0.00840946, No Iterations 5
nonePBiCGStab:  Solving for Uy, Initial residual = 0.128196, Final residual = 0.036456, No Iterations 5
nonePBiCGStab:  Solving for Uz, Initial residual = 0.44673, Final residual = 0.118502, No Iterations 5
linear solve U 378
[OGL LOG] init_host_sparsity_pattern : 201 ms
[OGL LOG] matrix not stored update host matrix
[OGL LOG] update_host_mtx : 108 ms
[OGL LOG] matrix is not yet sorted, sorting host matrix
[OGL LOG] sort_host_mtx_sparsity_pattern : 156 ms
[OGL LOG] sort_host_mtx : 89 ms
[OGL LOG] init_preconditioner : 0 ms
[OGL LOG] solve : 11471 ms
BJompGKOBiCGStab:  Solving for p, Initial residual = 0.650225, Final residual = 9.39487e-05, No Iterations 422
linear solve p 12146
time step continuity errors : sum local = 8.69504e-08, global = 1.7132e-21, cumulative = -1.02624e-20
[OGL LOG] init_host_sparsity_pattern : 193 ms
[OGL LOG] matrix not stored update host matrix
[OGL LOG] update_host_mtx : 109 ms
[OGL LOG] matrix is not yet sorted, sorting host matrix
[OGL LOG] sort_host_mtx_sparsity_pattern : 152 ms
[OGL LOG] sort_host_mtx : 91 ms
[OGL LOG] init_preconditioner : 0 ms
[OGL LOG] solve : 11168 ms
BJompGKOBiCGStab:  Solving for p, Initial residual = 0.558742, Final residual = 5.87543e-05, No Iterations 410
linear solve p 11828
time step continuity errors : sum local = 4.19626e-08, global = 1.43296e-20, cumulative = 4.06713e-21
ExecutionTime = 1553.1 s  ClockTime = 114 s

Time = 0.005

Courant Number mean: 0.0865486 max: 0.829118
nonePBiCGStab:  Solving for Ux, Initial residual = 0.0275619, Final residual = 0.00580825, No Iterations 5
nonePBiCGStab:  Solving for Uy, Initial residual = 0.0824334, Final residual = 0.0267677, No Iterations 5
nonePBiCGStab:  Solving for Uz, Initial residual = 0.277266, Final residual = 0.0752784, No Iterations 5
linear solve U 380
[OGL LOG] init_host_sparsity_pattern : 201 ms
[OGL LOG] matrix not stored update host matrix
[OGL LOG] update_host_mtx : 108 ms
[OGL LOG] matrix is not yet sorted, sorting host matrix
[OGL LOG] sort_host_mtx_sparsity_pattern : 156 ms
[OGL LOG] sort_host_mtx : 89 ms
[OGL LOG] init_preconditioner : 0 ms
[OGL LOG] solve : 4903 ms
BJompGKOBiCGStab:  Solving for p, Initial residual = 0.678242, Final residual = 8.602e-05, No Iterations 180
linear solve p 5578
time step continuity errors : sum local = 9.1692e-08, global = -3.90378e-21, cumulative = 1.63356e-22
[OGL LOG] init_host_sparsity_pattern : 193 ms
[OGL LOG] matrix not stored update host matrix
[OGL LOG] update_host_mtx : 109 ms
[OGL LOG] matrix is not yet sorted, sorting host matrix
[OGL LOG] sort_host_mtx_sparsity_pattern : 153 ms
[OGL LOG] sort_host_mtx : 90 ms
[OGL LOG] init_preconditioner : 0 ms
[OGL LOG] solve : 5021 ms
BJompGKOBiCGStab:  Solving for p, Initial residual = 0.597844, Final residual = 9.30914e-05, No Iterations 184
linear solve p 5676
time step continuity errors : sum local = 8.52416e-08, global = -1.59857e-20, cumulative = -1.58224e-20
ExecutionTime = 1713.82 s  ClockTime = 127 s

Time = 0.006

Courant Number mean: 0.0946834 max: 0.835888
nonePBiCGStab:  Solving for Ux, Initial residual = 0.0211168, Final residual = 0.0045481, No Iterations 5
nonePBiCGStab:  Solving for Uy, Initial residual = 0.0660111, Final residual = 0.0183875, No Iterations 5
nonePBiCGStab:  Solving for Uz, Initial residual = 0.227714, Final residual = 0.0605622, No Iterations 5
linear solve U 377
[OGL LOG] init_host_sparsity_pattern : 201 ms
[OGL LOG] matrix not stored update host matrix
[OGL LOG] update_host_mtx : 108 ms
[OGL LOG] matrix is not yet sorted, sorting host matrix
[OGL LOG] sort_host_mtx_sparsity_pattern : 152 ms
[OGL LOG] sort_host_mtx : 89 ms
[OGL LOG] init_preconditioner : 0 ms
[OGL LOG] solve : 10389 ms
BJompGKOBiCGStab:  Solving for p, Initial residual = 0.592158, Final residual = 9.87241e-05, No Iterations 383
linear solve p 11053
time step continuity errors : sum local = 1.63968e-07, global = -7.45925e-21, cumulative = -2.32816e-20
[OGL LOG] init_host_sparsity_pattern : 199 ms
[OGL LOG] matrix not stored update host matrix
[OGL LOG] update_host_mtx : 108 ms
[OGL LOG] matrix is not yet sorted, sorting host matrix
[OGL LOG] sort_host_mtx_sparsity_pattern : 155 ms
[OGL LOG] sort_host_mtx : 89 ms
[OGL LOG] init_preconditioner : 0 ms
[OGL LOG] solve : 5087 ms
BJompGKOBiCGStab:  Solving for p, Initial residual = 0.507077, Final residual = 9.92256e-05, No Iterations 188
linear solve p 5761
time step continuity errors : sum local = 1.22595e-07, global = 2.23033e-21, cumulative = -2.10513e-20
ExecutionTime = 1963.07 s  ClockTime = 144 s

Time = 0.007

Courant Number mean: 0.101714 max: 0.841366
nonePBiCGStab:  Solving for Ux, Initial residual = 0.0172682, Final residual = 0.00368268, No Iterations 5
nonePBiCGStab:  Solving for Uy, Initial residual = 0.0512403, Final residual = 0.0152728, No Iterations 5
nonePBiCGStab:  Solving for Uz, Initial residual = 0.195337, Final residual = 0.0616514, No Iterations 5
linear solve U 379
[OGL LOG] init_host_sparsity_pattern : 201 ms
[OGL LOG] matrix not stored update host matrix
[OGL LOG] update_host_mtx : 109 ms
[OGL LOG] matrix is not yet sorted, sorting host matrix
[OGL LOG] sort_host_mtx_sparsity_pattern : 152 ms
[OGL LOG] sort_host_mtx : 89 ms
[OGL LOG] init_preconditioner : 0 ms
[OGL LOG] solve : 11696 ms
BJompGKOBiCGStab:  Solving for p, Initial residual = 0.625211, Final residual = 9.53913e-05, No Iterations 428
linear solve p 12362
time step continuity errors : sum local = 8.79385e-08, global = 3.6668e-21, cumulative = -1.73845e-20
[OGL LOG] init_host_sparsity_pattern : 194 ms
[OGL LOG] matrix not stored update host matrix
[OGL LOG] update_host_mtx : 108 ms
[OGL LOG] matrix is not yet sorted, sorting host matrix
[OGL LOG] sort_host_mtx_sparsity_pattern : 151 ms
[OGL LOG] sort_host_mtx : 89 ms
[OGL LOG] init_preconditioner : 0 ms
[OGL LOG] solve : 9022 ms
BJompGKOBiCGStab:  Solving for p, Initial residual = 0.541172, Final residual = 8.35905e-05, No Iterations 333
linear solve p 9679
time step continuity errors : sum local = 4.75805e-08, global = -5.17135e-21, cumulative = -2.25558e-20
ExecutionTime = 2295.94 s  ClockTime = 167 s

Time = 0.008

Courant Number mean: 0.107613 max: 0.845103
nonePBiCGStab:  Solving for Ux, Initial residual = 0.0146299, Final residual = 0.00315581, No Iterations 5
nonePBiCGStab:  Solving for Uy, Initial residual = 0.0434021, Final residual = 0.0120744, No Iterations 5
nonePBiCGStab:  Solving for Uz, Initial residual = 0.157025, Final residual = 0.0402381, No Iterations 5
linear solve U 379
[OGL LOG] init_host_sparsity_pattern : 201 ms
[OGL LOG] matrix not stored update host matrix
[OGL LOG] update_host_mtx : 109 ms
[OGL LOG] matrix is not yet sorted, sorting host matrix
[OGL LOG] sort_host_mtx_sparsity_pattern : 157 ms
[OGL LOG] sort_host_mtx : 89 ms
[OGL LOG] init_preconditioner : 0 ms
[OGL LOG] solve : 11317 ms
BJompGKOBiCGStab:  Solving for p, Initial residual = 0.5679, Final residual = 9.77748e-05, No Iterations 419
linear solve p 11995
time step continuity errors : sum local = 8.47441e-08, global = 1.91538e-20, cumulative = -3.40201e-21
[OGL LOG] init_host_sparsity_pattern : 193 ms
[OGL LOG] matrix not stored update host matrix
[OGL LOG] update_host_mtx : 109 ms
[OGL LOG] matrix is not yet sorted, sorting host matrix
[OGL LOG] sort_host_mtx_sparsity_pattern : 152 ms
[OGL LOG] sort_host_mtx : 89 ms
[OGL LOG] init_preconditioner : 0 ms
[OGL LOG] solve : 10357 ms
BJompGKOBiCGStab:  Solving for p, Initial residual = 0.485245, Final residual = 7.85806e-05, No Iterations 404
linear solve p 11017
time step continuity errors : sum local = 4.877e-08, global = -8.37374e-21, cumulative = -1.17757e-20
ExecutionTime = 2643.03 s  ClockTime = 191 s

Time = 0.009

Courant Number mean: 0.112778 max: 0.848185
nonePBiCGStab:  Solving for Ux, Initial residual = 0.012661, Final residual = 0.00258046, No Iterations 5
nonePBiCGStab:  Solving for Uy, Initial residual = 0.0364417, Final residual = 0.0100963, No Iterations 5
nonePBiCGStab:  Solving for Uz, Initial residual = 0.125216, Final residual = 0.0382384, No Iterations 5
linear solve U 405
[OGL LOG] init_host_sparsity_pattern : 206 ms
[OGL LOG] matrix not stored update host matrix
[OGL LOG] update_host_mtx : 109 ms
[OGL LOG] matrix is not yet sorted, sorting host matrix
[OGL LOG] sort_host_mtx_sparsity_pattern : 157 ms
[OGL LOG] sort_host_mtx : 90 ms
[OGL LOG] init_preconditioner : 0 ms
[OGL LOG] solve : 10297 ms
BJompGKOBiCGStab:  Solving for p, Initial residual = 0.598368, Final residual = 9.99429e-05, No Iterations 400
linear solve p 10993
time step continuity errors : sum local = 5.72237e-08, global = 9.59244e-21, cumulative = -2.1833e-21
[OGL LOG] init_host_sparsity_pattern : 204 ms
[OGL LOG] matrix not stored update host matrix
[OGL LOG] update_host_mtx : 109 ms
[OGL LOG] matrix is not yet sorted, sorting host matrix
[OGL LOG] sort_host_mtx_sparsity_pattern : 163 ms
[OGL LOG] sort_host_mtx : 97 ms
[OGL LOG] init_preconditioner : 0 ms
[OGL LOG] solve : 8549 ms
BJompGKOBiCGStab:  Solving for p, Initial residual = 0.513799, Final residual = 2.50121e-05, No Iterations 349
linear solve p 9266
time step continuity errors : sum local = 1.59418e-06, global = 7.30901e-21, cumulative = 5.12571e-21
ExecutionTime = 2945.51 s  ClockTime = 212 s

Time = 0.01

Courant Number mean: 0.117323 max: 0.850651
nonePBiCGStab:  Solving for Ux, Initial residual = 0.0108701, Final residual = 0.00251645, No Iterations 5
nonePBiCGStab:  Solving for Uy, Initial residual = 0.0324872, Final residual = 0.0087181, No Iterations 5
nonePBiCGStab:  Solving for Uz, Initial residual = 0.10876, Final residual = 0.032552, No Iterations 5
linear solve U 394
[OGL LOG] init_host_sparsity_pattern : 203 ms
[OGL LOG] matrix not stored update host matrix
[OGL LOG] update_host_mtx : 110 ms
[OGL LOG] matrix is not yet sorted, sorting host matrix
[OGL LOG] sort_host_mtx_sparsity_pattern : 158 ms
[OGL LOG] sort_host_mtx : 90 ms
[OGL LOG] init_preconditioner : 0 ms
[OGL LOG] solve : 3693 ms
BJompGKOBiCGStab:  Solving for p, Initial residual = 0.557465, Final residual = 8.29647e-05, No Iterations 151
linear solve p 4379
time step continuity errors : sum local = 1.79261e-07, global = -3.91932e-22, cumulative = 4.73378e-21
[OGL LOG] init_host_sparsity_pattern : 193 ms
[OGL LOG] matrix not stored update host matrix
[OGL LOG] update_host_mtx : 109 ms
[OGL LOG] matrix is not yet sorted, sorting host matrix
[OGL LOG] sort_host_mtx_sparsity_pattern : 152 ms
[OGL LOG] sort_host_mtx : 90 ms
[OGL LOG] init_preconditioner : 0 ms
[OGL LOG] solve : 3875 ms
BJompGKOBiCGStab:  Solving for p, Initial residual = 0.476179, Final residual = 9.98688e-05, No Iterations 157
linear solve p 4540
time step continuity errors : sum local = 9.54625e-08, global = -6.97633e-21, cumulative = -2.24255e-21
ExecutionTime = 3068.74 s  ClockTime = 222 s

End

