/*---------------------------------------------------------------------------*\
  =========                 |
  \\      /  F ield         | OpenFOAM: The Open Source CFD Toolbox
   \\    /   O peration     | Website:  https://openfoam.org
    \\  /    A nd           | Version:  8
     \\/     M anipulation  |
\*---------------------------------------------------------------------------*/
Build  : 8-40a5a48f630f
Exec   : icoFoam
Date   : Jul 28 2021
Time   : 02:26:39
Host   : "uc2n476.localdomain"
PID    : 1920651
I/O    : uncollated
Case   : /pfs/data5/home/kit/scc/nq7776/code/OBR/lidDrivenCavity3D/Variation_mesh/65/Variation_matrix_solver/BiCGStab_NoPrecond_Serial/base
nProcs : 1
sigFpe : Enabling floating point exception trapping (FOAM_SIGFPE).
fileModificationChecking : Monitoring run-time modified files using timeStampMaster (fileModificationSkew 10)
allowSystemOperations : Allowing user-supplied system call operations

// * * * * * * * * * * * * * * * * * * * * * * * * * * * * * * * * * * * * * //
Create time

Create mesh for time = 0

Reading transportProperties

Reading field p

Reading field U

Reading/calculating face flux field phi


Starting time loop

Time = 0.001

Courant Number mean: 0 max: 0
nonePBiCGStab:  Solving for Ux, Initial residual = 1, Final residual = 0.053017, No Iterations 5
nonePBiCGStab:  Solving for Uy, Initial residual = 0, Final residual = 0, No Iterations 0
nonePBiCGStab:  Solving for Uz, Initial residual = 0, Final residual = 0, No Iterations 0
linear solve U 69
nonePBiCGStab:  Solving for p, Initial residual = 1, Final residual = 9.70066e-05, No Iterations 466
linear solve p 3203
time step continuity errors : sum local = 9.23723e-08, global = -1.45315e-21, cumulative = -1.45315e-21
nonePBiCGStab:  Solving for p, Initial residual = 0.673952, Final residual = 7.85373e-05, No Iterations 406
linear solve p 2784
time step continuity errors : sum local = 1.07347e-07, global = -6.86606e-21, cumulative = -8.31921e-21
ExecutionTime = 7.21 s  ClockTime = 7 s

Time = 0.002

Courant Number mean: 0.032684 max: 0.468251
nonePBiCGStab:  Solving for Ux, Initial residual = 0.151775, Final residual = 0.0210841, No Iterations 5
nonePBiCGStab:  Solving for Uy, Initial residual = 0.364872, Final residual = 0.0451081, No Iterations 5
nonePBiCGStab:  Solving for Uz, Initial residual = 0.974323, Final residual = 0.153418, No Iterations 5
linear solve U 149
nonePBiCGStab:  Solving for p, Initial residual = 0.65651, Final residual = 9.91373e-05, No Iterations 390
linear solve p 2694
time step continuity errors : sum local = 1.68661e-07, global = 1.80221e-21, cumulative = -6.51701e-21
nonePBiCGStab:  Solving for p, Initial residual = 0.575111, Final residual = 9.32683e-05, No Iterations 173
linear solve p 1199
time step continuity errors : sum local = 8.34873e-08, global = 3.16417e-21, cumulative = -3.35284e-21
ExecutionTime = 11.41 s  ClockTime = 12 s

Time = 0.003

Courant Number mean: 0.0502554 max: 0.556617
nonePBiCGStab:  Solving for Ux, Initial residual = 0.055038, Final residual = 0.00590064, No Iterations 5
nonePBiCGStab:  Solving for Uy, Initial residual = 0.125532, Final residual = 0.0163881, No Iterations 5
nonePBiCGStab:  Solving for Uz, Initial residual = 0.359416, Final residual = 0.056007, No Iterations 5
linear solve U 151
nonePBiCGStab:  Solving for p, Initial residual = 0.557924, Final residual = 9.94246e-05, No Iterations 329
linear solve p 2274
time step continuity errors : sum local = 1.09953e-07, global = 1.09983e-20, cumulative = 7.64549e-21
nonePBiCGStab:  Solving for p, Initial residual = 0.492196, Final residual = 8.35753e-05, No Iterations 167
linear solve p 1158
time step continuity errors : sum local = 5.68279e-08, global = -1.78455e-20, cumulative = -1.02e-20
ExecutionTime = 15.15 s  ClockTime = 15 s

Time = 0.004

Courant Number mean: 0.0602938 max: 0.575003
nonePBiCGStab:  Solving for Ux, Initial residual = 0.033281, Final residual = 0.00307008, No Iterations 5
nonePBiCGStab:  Solving for Uy, Initial residual = 0.0804601, Final residual = 0.00695016, No Iterations 5
nonePBiCGStab:  Solving for Uz, Initial residual = 0.227575, Final residual = 0.0291439, No Iterations 5
linear solve U 150
nonePBiCGStab:  Solving for p, Initial residual = 0.354322, Final residual = 9.73279e-05, No Iterations 369
linear solve p 2545
time step continuity errors : sum local = 7.76119e-08, global = -4.62994e-20, cumulative = -5.64994e-20
nonePBiCGStab:  Solving for p, Initial residual = 0.293475, Final residual = 9.77888e-05, No Iterations 355
linear solve p 2438
time step continuity errors : sum local = 1.01234e-07, global = -9.34941e-21, cumulative = -6.58489e-20
ExecutionTime = 20.44 s  ClockTime = 21 s

Time = 0.005

Courant Number mean: 0.0682786 max: 0.585608
nonePBiCGStab:  Solving for Ux, Initial residual = 0.023532, Final residual = 0.00196426, No Iterations 5
nonePBiCGStab:  Solving for Uy, Initial residual = 0.0536701, Final residual = 0.00387042, No Iterations 5
nonePBiCGStab:  Solving for Uz, Initial residual = 0.136186, Final residual = 0.0204964, No Iterations 5
linear solve U 148
nonePBiCGStab:  Solving for p, Initial residual = 0.274948, Final residual = 9.99586e-05, No Iterations 317
linear solve p 2189
time step continuity errors : sum local = 8.47966e-08, global = 8.39276e-21, cumulative = -5.74561e-20
nonePBiCGStab:  Solving for p, Initial residual = 0.233618, Final residual = 9.95491e-05, No Iterations 313
linear solve p 2147
time step continuity errors : sum local = 9.3392e-08, global = 1.01286e-20, cumulative = -4.73275e-20
ExecutionTime = 25.07 s  ClockTime = 25 s

Time = 0.006

Courant Number mean: 0.0745578 max: 0.592197
nonePBiCGStab:  Solving for Ux, Initial residual = 0.0179424, Final residual = 0.00126875, No Iterations 5
nonePBiCGStab:  Solving for Uy, Initial residual = 0.0397612, Final residual = 0.00214088, No Iterations 5
nonePBiCGStab:  Solving for Uz, Initial residual = 0.115997, Final residual = 0.0188231, No Iterations 5
linear solve U 148
nonePBiCGStab:  Solving for p, Initial residual = 0.185893, Final residual = 8.31458e-05, No Iterations 372
linear solve p 2568
time step continuity errors : sum local = 4.12592e-08, global = -5.32855e-21, cumulative = -5.2656e-20
nonePBiCGStab:  Solving for p, Initial residual = 0.154933, Final residual = 9.54547e-05, No Iterations 372
linear solve p 2568
time step continuity errors : sum local = 4.98424e-08, global = -9.91897e-21, cumulative = -6.2575e-20
ExecutionTime = 30.51 s  ClockTime = 31 s

Time = 0.007

Courant Number mean: 0.0797616 max: 0.59668
nonePBiCGStab:  Solving for Ux, Initial residual = 0.0140555, Final residual = 0.00084897, No Iterations 5
nonePBiCGStab:  Solving for Uy, Initial residual = 0.0317378, Final residual = 0.00146935, No Iterations 5
nonePBiCGStab:  Solving for Uz, Initial residual = 0.0860938, Final residual = 0.00944121, No Iterations 5
linear solve U 148
nonePBiCGStab:  Solving for p, Initial residual = 0.136952, Final residual = 9.38096e-05, No Iterations 297
linear solve p 2056
time step continuity errors : sum local = 8.38008e-08, global = -2.03639e-20, cumulative = -8.29389e-20
nonePBiCGStab:  Solving for p, Initial residual = 0.114899, Final residual = 9.06176e-05, No Iterations 146
linear solve p 1015
time step continuity errors : sum local = 6.57003e-08, global = -9.15205e-21, cumulative = -9.20909e-20
ExecutionTime = 33.88 s  ClockTime = 34 s

Time = 0.008

Courant Number mean: 0.0841266 max: 0.600095
nonePBiCGStab:  Solving for Ux, Initial residual = 0.0115574, Final residual = 0.000718468, No Iterations 5
nonePBiCGStab:  Solving for Uy, Initial residual = 0.0254255, Final residual = 0.00111998, No Iterations 5
nonePBiCGStab:  Solving for Uz, Initial residual = 0.0737914, Final residual = 0.0112762, No Iterations 5
linear solve U 148
nonePBiCGStab:  Solving for p, Initial residual = 0.100924, Final residual = 9.9033e-05, No Iterations 353
linear solve p 2440
time step continuity errors : sum local = 5.16086e-08, global = -1.98631e-20, cumulative = -1.11954e-19
nonePBiCGStab:  Solving for p, Initial residual = 0.0849238, Final residual = 9.7059e-05, No Iterations 355
linear solve p 2458
time step continuity errors : sum local = 4.73527e-08, global = -1.89906e-21, cumulative = -1.13853e-19
ExecutionTime = 39.08 s  ClockTime = 39 s

Time = 0.009

Courant Number mean: 0.0878747 max: 0.60266
nonePBiCGStab:  Solving for Ux, Initial residual = 0.00962077, Final residual = 0.000489356, No Iterations 5
nonePBiCGStab:  Solving for Uy, Initial residual = 0.0216678, Final residual = 0.000776331, No Iterations 5
nonePBiCGStab:  Solving for Uz, Initial residual = 0.0626581, Final residual = 0.00613097, No Iterations 5
linear solve U 149
nonePBiCGStab:  Solving for p, Initial residual = 0.07596, Final residual = 9.59161e-05, No Iterations 292
linear solve p 2017
time step continuity errors : sum local = 8.35593e-08, global = -1.44285e-20, cumulative = -1.28282e-19
nonePBiCGStab:  Solving for p, Initial residual = 0.0639144, Final residual = 9.63074e-05, No Iterations 137
linear solve p 950
time step continuity errors : sum local = 5.60523e-08, global = -2.46166e-21, cumulative = -1.30743e-19
ExecutionTime = 42.35 s  ClockTime = 43 s

Time = 0.01

Courant Number mean: 0.0911301 max: 0.604787
nonePBiCGStab:  Solving for Ux, Initial residual = 0.00822297, Final residual = 0.000457784, No Iterations 5
nonePBiCGStab:  Solving for Uy, Initial residual = 0.018188, Final residual = 0.000709872, No Iterations 5
nonePBiCGStab:  Solving for Uz, Initial residual = 0.0542763, Final residual = 0.00799196, No Iterations 5
linear solve U 149
nonePBiCGStab:  Solving for p, Initial residual = 0.0609322, Final residual = 9.99099e-05, No Iterations 325
linear solve p 2251
time step continuity errors : sum local = 4.80968e-08, global = 3.05595e-21, cumulative = -1.27687e-19
nonePBiCGStab:  Solving for p, Initial residual = 0.0517156, Final residual = 9.9524e-05, No Iterations 304
linear solve p 2111
time step continuity errors : sum local = 6.85177e-08, global = -1.20459e-20, cumulative = -1.39733e-19
ExecutionTime = 47.02 s  ClockTime = 47 s

End

