/*---------------------------------------------------------------------------*\
  =========                 |
  \\      /  F ield         | OpenFOAM: The Open Source CFD Toolbox
   \\    /   O peration     | Website:  https://openfoam.org
    \\  /    A nd           | Version:  8
     \\/     M anipulation  |
\*---------------------------------------------------------------------------*/
Build  : 8-40a5a48f630f
Exec   : icoFoam
Date   : Jul 28 2021
Time   : 03:11:17
Host   : "uc2n450.localdomain"
PID    : 365514
I/O    : uncollated
Case   : /pfs/data5/home/kit/scc/nq7776/code/OBR/lidDrivenCavity3D/Variation_mesh/65/Variation_matrix_solver/IR_NoPrecond_OMP/base
nProcs : 1
sigFpe : Enabling floating point exception trapping (FOAM_SIGFPE).
fileModificationChecking : Monitoring run-time modified files using timeStampMaster (fileModificationSkew 10)
allowSystemOperations : Allowing user-supplied system call operations

// * * * * * * * * * * * * * * * * * * * * * * * * * * * * * * * * * * * * * //
Create time

Create mesh for time = 0

Reading transportProperties

Reading field p

Reading field U

Reading/calculating face flux field phi


Starting time loop

Time = 0.001

Courant Number mean: 0 max: 0
nonePBiCGStab:  Solving for Ux, Initial residual = 1, Final residual = 0.053017, No Iterations 5
nonePBiCGStab:  Solving for Uy, Initial residual = 0, Final residual = 0, No Iterations 0
nonePBiCGStab:  Solving for Uz, Initial residual = 0, Final residual = 0, No Iterations 0
linear solve U 69
[OGL LOG] init_host_sparsity_pattern : 78 ms
[OGL LOG] matrix not stored update host matrix
[OGL LOG] update_host_mtx : 40 ms
[OGL LOG] matrix is not yet sorted, compute sorting idxs
[OGL LOG] compute_sort : 2375 ms
[OGL LOG] matrix is not yet sorted, sorting host matrix
[OGL LOG] sort_host_mtx_sparsity_pattern : 56 ms
[OGL LOG] sort_host_mtx : 32 ms
[OGL LOG] init_preconditioner : 0 ms
[OGL LOG] solve : 66985 ms
noneompGKOIR:  Solving for p, Initial residual = 1, Final residual = 1.3009e-05, No Iterations 3
linear solve p 69655
time step continuity errors : sum local = 6.29925e-09, global = -8.63922e-22, cumulative = -8.63922e-22
[OGL LOG] init_host_sparsity_pattern : 75 ms
[OGL LOG] matrix not stored update host matrix
[OGL LOG] update_host_mtx : 40 ms
[OGL LOG] matrix is not yet sorted, sorting host matrix
[OGL LOG] sort_host_mtx_sparsity_pattern : 58 ms
[OGL LOG] sort_host_mtx : 27 ms
[OGL LOG] init_preconditioner : 0 ms
[OGL LOG] solve : 1544 ms
noneompGKOIR:  Solving for p, Initial residual = 0.674219, Final residual = 6.56168e-06, No Iterations 3
linear solve p 1792
time step continuity errors : sum local = 4.51112e-09, global = 3.29008e-21, cumulative = 2.42616e-21
ExecutionTime = 976.28 s  ClockTime = 73 s

Time = 0.002

Courant Number mean: 0.0326827 max: 0.468252
nonePBiCGStab:  Solving for Ux, Initial residual = 0.151756, Final residual = 0.0210783, No Iterations 5
nonePBiCGStab:  Solving for Uy, Initial residual = 0.36489, Final residual = 0.0451026, No Iterations 5
nonePBiCGStab:  Solving for Uz, Initial residual = 0.979962, Final residual = 0.154126, No Iterations 5
linear solve U 143
[OGL LOG] init_host_sparsity_pattern : 72 ms
[OGL LOG] matrix not stored update host matrix
[OGL LOG] update_host_mtx : 38 ms
[OGL LOG] matrix is not yet sorted, sorting host matrix
[OGL LOG] sort_host_mtx_sparsity_pattern : 56 ms
[OGL LOG] sort_host_mtx : 27 ms
[OGL LOG] init_preconditioner : 0 ms
[OGL LOG] solve : 1565 ms
noneompGKOIR:  Solving for p, Initial residual = 0.656707, Final residual = 3.1765e-06, No Iterations 3
linear solve p 1798
time step continuity errors : sum local = 2.72698e-09, global = -5.30119e-21, cumulative = -2.87503e-21
[OGL LOG] init_host_sparsity_pattern : 78 ms
[OGL LOG] matrix not stored update host matrix
[OGL LOG] update_host_mtx : 41 ms
[OGL LOG] matrix is not yet sorted, sorting host matrix
[OGL LOG] sort_host_mtx_sparsity_pattern : 56 ms
[OGL LOG] sort_host_mtx : 27 ms
[OGL LOG] init_preconditioner : 0 ms
[OGL LOG] solve : 1563 ms
noneompGKOIR:  Solving for p, Initial residual = 0.574981, Final residual = 2.49098e-06, No Iterations 3
linear solve p 1806
time step continuity errors : sum local = 2.19258e-09, global = -8.20566e-21, cumulative = -1.10807e-20
ExecutionTime = 1027.3 s  ClockTime = 77 s

Time = 0.003

Courant Number mean: 0.0502554 max: 0.556612
nonePBiCGStab:  Solving for Ux, Initial residual = 0.0551702, Final residual = 0.0059258, No Iterations 5
nonePBiCGStab:  Solving for Uy, Initial residual = 0.124789, Final residual = 0.0163168, No Iterations 5
nonePBiCGStab:  Solving for Uz, Initial residual = 0.34234, Final residual = 0.0518142, No Iterations 5
linear solve U 147
[OGL LOG] init_host_sparsity_pattern : 73 ms
[OGL LOG] matrix not stored update host matrix
[OGL LOG] update_host_mtx : 42 ms
[OGL LOG] matrix is not yet sorted, sorting host matrix
[OGL LOG] sort_host_mtx_sparsity_pattern : 56 ms
[OGL LOG] sort_host_mtx : 28 ms
[OGL LOG] init_preconditioner : 0 ms
[OGL LOG] solve : 1471 ms
noneompGKOIR:  Solving for p, Initial residual = 0.556831, Final residual = 2.11625e-06, No Iterations 3
linear solve p 1707
time step continuity errors : sum local = 1.21915e-09, global = 4.87073e-21, cumulative = -6.20995e-21
[OGL LOG] init_host_sparsity_pattern : 72 ms
[OGL LOG] matrix not stored update host matrix
[OGL LOG] update_host_mtx : 40 ms
[OGL LOG] matrix is not yet sorted, sorting host matrix
[OGL LOG] sort_host_mtx_sparsity_pattern : 56 ms
[OGL LOG] sort_host_mtx : 28 ms
[OGL LOG] init_preconditioner : 0 ms
[OGL LOG] solve : 1509 ms
noneompGKOIR:  Solving for p, Initial residual = 0.49136, Final residual = 1.85524e-06, No Iterations 3
linear solve p 1744
time step continuity errors : sum local = 1.0378e-09, global = 1.80051e-20, cumulative = 1.17951e-20
ExecutionTime = 1075.96 s  ClockTime = 80 s

Time = 0.004

Courant Number mean: 0.0602926 max: 0.575006
nonePBiCGStab:  Solving for Ux, Initial residual = 0.0331616, Final residual = 0.00304842, No Iterations 5
nonePBiCGStab:  Solving for Uy, Initial residual = 0.0805117, Final residual = 0.00691214, No Iterations 5
nonePBiCGStab:  Solving for Uz, Initial residual = 0.203686, Final residual = 0.0242625, No Iterations 5
linear solve U 146
[OGL LOG] init_host_sparsity_pattern : 72 ms
[OGL LOG] matrix not stored update host matrix
[OGL LOG] update_host_mtx : 40 ms
[OGL LOG] matrix is not yet sorted, sorting host matrix
[OGL LOG] sort_host_mtx_sparsity_pattern : 56 ms
[OGL LOG] sort_host_mtx : 27 ms
[OGL LOG] init_preconditioner : 0 ms
[OGL LOG] solve : 1584 ms
noneompGKOIR:  Solving for p, Initial residual = 0.352216, Final residual = 1.17713e-06, No Iterations 3
linear solve p 1817
time step continuity errors : sum local = 6.38929e-10, global = -1.19281e-20, cumulative = -1.32961e-22
[OGL LOG] init_host_sparsity_pattern : 72 ms
[OGL LOG] matrix not stored update host matrix
[OGL LOG] update_host_mtx : 38 ms
[OGL LOG] matrix is not yet sorted, sorting host matrix
[OGL LOG] sort_host_mtx_sparsity_pattern : 56 ms
[OGL LOG] sort_host_mtx : 27 ms
[OGL LOG] init_preconditioner : 0 ms
[OGL LOG] solve : 684 ms
noneompGKOIR:  Solving for p, Initial residual = 0.291656, Final residual = 8.64426e-05, No Iterations 2
linear solve p 916
time step continuity errors : sum local = 5.4203e-08, global = 2.15928e-21, cumulative = 2.02632e-21
ExecutionTime = 1113.25 s  ClockTime = 84 s

Time = 0.005

Courant Number mean: 0.0682798 max: 0.585618
nonePBiCGStab:  Solving for Ux, Initial residual = 0.0235469, Final residual = 0.00193572, No Iterations 5
nonePBiCGStab:  Solving for Uy, Initial residual = 0.0529864, Final residual = 0.00378556, No Iterations 5
nonePBiCGStab:  Solving for Uz, Initial residual = 0.106205, Final residual = 0.0122827, No Iterations 5
linear solve U 147
[OGL LOG] init_host_sparsity_pattern : 72 ms
[OGL LOG] matrix not stored update host matrix
[OGL LOG] update_host_mtx : 40 ms
[OGL LOG] matrix is not yet sorted, sorting host matrix
[OGL LOG] sort_host_mtx_sparsity_pattern : 56 ms
[OGL LOG] sort_host_mtx : 28 ms
[OGL LOG] init_preconditioner : 0 ms
[OGL LOG] solve : 1252 ms
noneompGKOIR:  Solving for p, Initial residual = 0.271243, Final residual = 8.9524e-05, No Iterations 2
linear solve p 1486
time step continuity errors : sum local = 4.20992e-08, global = -2.03542e-21, cumulative = -9.10499e-24
[OGL LOG] init_host_sparsity_pattern : 72 ms
[OGL LOG] matrix not stored update host matrix
[OGL LOG] update_host_mtx : 40 ms
[OGL LOG] matrix is not yet sorted, sorting host matrix
[OGL LOG] sort_host_mtx_sparsity_pattern : 56 ms
[OGL LOG] sort_host_mtx : 28 ms
[OGL LOG] init_preconditioner : 0 ms
[OGL LOG] solve : 742 ms
noneompGKOIR:  Solving for p, Initial residual = 0.230427, Final residual = 6.72818e-05, No Iterations 2
linear solve p 977
time step continuity errors : sum local = 3.78882e-08, global = -2.50489e-21, cumulative = -2.51399e-21
ExecutionTime = 1146.17 s  ClockTime = 86 s

Time = 0.006

Courant Number mean: 0.0745601 max: 0.592188
nonePBiCGStab:  Solving for Ux, Initial residual = 0.0176958, Final residual = 0.00111182, No Iterations 5
nonePBiCGStab:  Solving for Uy, Initial residual = 0.0395931, Final residual = 0.00184658, No Iterations 5
nonePBiCGStab:  Solving for Uz, Initial residual = 0.0863378, Final residual = 0.00918555, No Iterations 5
linear solve U 146
[OGL LOG] init_host_sparsity_pattern : 72 ms
[OGL LOG] matrix not stored update host matrix
[OGL LOG] update_host_mtx : 40 ms
[OGL LOG] matrix is not yet sorted, sorting host matrix
[OGL LOG] sort_host_mtx_sparsity_pattern : 56 ms
[OGL LOG] sort_host_mtx : 27 ms
[OGL LOG] init_preconditioner : 0 ms
[OGL LOG] solve : 1199 ms
noneompGKOIR:  Solving for p, Initial residual = 0.176095, Final residual = 5.23862e-05, No Iterations 2
linear solve p 1433
time step continuity errors : sum local = 2.44663e-08, global = 2.38623e-20, cumulative = 2.13483e-20
[OGL LOG] init_host_sparsity_pattern : 72 ms
[OGL LOG] matrix not stored update host matrix
[OGL LOG] update_host_mtx : 38 ms
[OGL LOG] matrix is not yet sorted, sorting host matrix
[OGL LOG] sort_host_mtx_sparsity_pattern : 56 ms
[OGL LOG] sort_host_mtx : 27 ms
[OGL LOG] init_preconditioner : 0 ms
[OGL LOG] solve : 1199 ms
noneompGKOIR:  Solving for p, Initial residual = 0.146086, Final residual = 4.29291e-05, No Iterations 2
linear solve p 1431
time step continuity errors : sum local = 2.01243e-08, global = -1.0913e-21, cumulative = 2.0257e-20
ExecutionTime = 1185.53 s  ClockTime = 90 s

Time = 0.007

Courant Number mean: 0.079773 max: 0.596673
nonePBiCGStab:  Solving for Ux, Initial residual = 0.0139543, Final residual = 0.000744735, No Iterations 5
nonePBiCGStab:  Solving for Uy, Initial residual = 0.0312432, Final residual = 0.00141548, No Iterations 5
nonePBiCGStab:  Solving for Uz, Initial residual = 0.0648527, Final residual = 0.00453034, No Iterations 5
linear solve U 147
[OGL LOG] init_host_sparsity_pattern : 72 ms
[OGL LOG] matrix not stored update host matrix
[OGL LOG] update_host_mtx : 40 ms
[OGL LOG] matrix is not yet sorted, sorting host matrix
[OGL LOG] sort_host_mtx_sparsity_pattern : 57 ms
[OGL LOG] sort_host_mtx : 27 ms
[OGL LOG] init_preconditioner : 0 ms
[OGL LOG] solve : 1198 ms
noneompGKOIR:  Solving for p, Initial residual = 0.127884, Final residual = 3.33405e-05, No Iterations 2
linear solve p 1432
time step continuity errors : sum local = 1.47845e-08, global = 1.7791e-20, cumulative = 3.80481e-20
[OGL LOG] init_host_sparsity_pattern : 74 ms
[OGL LOG] matrix not stored update host matrix
[OGL LOG] update_host_mtx : 40 ms
[OGL LOG] matrix is not yet sorted, sorting host matrix
[OGL LOG] sort_host_mtx_sparsity_pattern : 56 ms
[OGL LOG] sort_host_mtx : 28 ms
[OGL LOG] init_preconditioner : 0 ms
[OGL LOG] solve : 1200 ms
noneompGKOIR:  Solving for p, Initial residual = 0.107223, Final residual = 2.75038e-05, No Iterations 2
linear solve p 1437
time step continuity errors : sum local = 1.21846e-08, global = 4.56903e-21, cumulative = 4.26171e-20
ExecutionTime = 1224.9 s  ClockTime = 93 s

Time = 0.008

Courant Number mean: 0.0841437 max: 0.600056
nonePBiCGStab:  Solving for Ux, Initial residual = 0.0113958, Final residual = 0.000499777, No Iterations 5
nonePBiCGStab:  Solving for Uy, Initial residual = 0.0252559, Final residual = 0.000815005, No Iterations 5
nonePBiCGStab:  Solving for Uz, Initial residual = 0.0529352, Final residual = 0.00391243, No Iterations 5
linear solve U 145
[OGL LOG] init_host_sparsity_pattern : 73 ms
[OGL LOG] matrix not stored update host matrix
[OGL LOG] update_host_mtx : 40 ms
[OGL LOG] matrix is not yet sorted, sorting host matrix
[OGL LOG] sort_host_mtx_sparsity_pattern : 56 ms
[OGL LOG] sort_host_mtx : 27 ms
[OGL LOG] init_preconditioner : 0 ms
[OGL LOG] solve : 1150 ms
noneompGKOIR:  Solving for p, Initial residual = 0.0861267, Final residual = 2.19354e-05, No Iterations 2
linear solve p 1385
time step continuity errors : sum local = 9.6157e-09, global = 2.84851e-21, cumulative = 4.54656e-20
[OGL LOG] init_host_sparsity_pattern : 72 ms
[OGL LOG] matrix not stored update host matrix
[OGL LOG] update_host_mtx : 38 ms
[OGL LOG] matrix is not yet sorted, sorting host matrix
[OGL LOG] sort_host_mtx_sparsity_pattern : 56 ms
[OGL LOG] sort_host_mtx : 27 ms
[OGL LOG] init_preconditioner : 0 ms
[OGL LOG] solve : 1167 ms
noneompGKOIR:  Solving for p, Initial residual = 0.0719015, Final residual = 1.76038e-05, No Iterations 2
linear solve p 1399
time step continuity errors : sum local = 7.72849e-09, global = 1.8537e-20, cumulative = 6.40026e-20
ExecutionTime = 1262.98 s  ClockTime = 96 s

Time = 0.009

Courant Number mean: 0.0878973 max: 0.602634
nonePBiCGStab:  Solving for Ux, Initial residual = 0.00950363, Final residual = 0.000405759, No Iterations 5
nonePBiCGStab:  Solving for Uy, Initial residual = 0.021252, Final residual = 0.000642694, No Iterations 5
nonePBiCGStab:  Solving for Uz, Initial residual = 0.0444528, Final residual = 0.00233334, No Iterations 5
linear solve U 147
[OGL LOG] init_host_sparsity_pattern : 72 ms
[OGL LOG] matrix not stored update host matrix
[OGL LOG] update_host_mtx : 40 ms
[OGL LOG] matrix is not yet sorted, sorting host matrix
[OGL LOG] sort_host_mtx_sparsity_pattern : 56 ms
[OGL LOG] sort_host_mtx : 28 ms
[OGL LOG] init_preconditioner : 0 ms
[OGL LOG] solve : 722 ms
noneompGKOIR:  Solving for p, Initial residual = 0.0617541, Final residual = 1.27812e-05, No Iterations 2
linear solve p 956
time step continuity errors : sum local = 6.46881e-09, global = 6.45495e-21, cumulative = 7.04576e-20
[OGL LOG] init_host_sparsity_pattern : 72 ms
[OGL LOG] matrix not stored update host matrix
[OGL LOG] update_host_mtx : 40 ms
[OGL LOG] matrix is not yet sorted, sorting host matrix
[OGL LOG] sort_host_mtx_sparsity_pattern : 56 ms
[OGL LOG] sort_host_mtx : 27 ms
[OGL LOG] init_preconditioner : 0 ms
[OGL LOG] solve : 715 ms
noneompGKOIR:  Solving for p, Initial residual = 0.0520599, Final residual = 1.00979e-05, No Iterations 2
linear solve p 948
time step continuity errors : sum local = 4.68169e-09, global = -9.37897e-21, cumulative = 6.10786e-20
ExecutionTime = 1287 s  ClockTime = 98 s

Time = 0.01

Courant Number mean: 0.0911609 max: 0.604744
nonePBiCGStab:  Solving for Ux, Initial residual = 0.0080898, Final residual = 0.000295776, No Iterations 5
nonePBiCGStab:  Solving for Uy, Initial residual = 0.0179955, Final residual = 0.000445861, No Iterations 5
nonePBiCGStab:  Solving for Uz, Initial residual = 0.0377342, Final residual = 0.00204809, No Iterations 5
linear solve U 145
[OGL LOG] init_host_sparsity_pattern : 72 ms
[OGL LOG] matrix not stored update host matrix
[OGL LOG] update_host_mtx : 40 ms
[OGL LOG] matrix is not yet sorted, sorting host matrix
[OGL LOG] sort_host_mtx_sparsity_pattern : 56 ms
[OGL LOG] sort_host_mtx : 27 ms
[OGL LOG] init_preconditioner : 0 ms
[OGL LOG] solve : 1195 ms
noneompGKOIR:  Solving for p, Initial residual = 0.0431045, Final residual = 9.61144e-06, No Iterations 2
linear solve p 1429
time step continuity errors : sum local = 4.10843e-09, global = -2.3291e-21, cumulative = 5.87495e-20
[OGL LOG] init_host_sparsity_pattern : 72 ms
[OGL LOG] matrix not stored update host matrix
[OGL LOG] update_host_mtx : 38 ms
[OGL LOG] matrix is not yet sorted, sorting host matrix
[OGL LOG] sort_host_mtx_sparsity_pattern : 56 ms
[OGL LOG] sort_host_mtx : 27 ms
[OGL LOG] init_preconditioner : 0 ms
[OGL LOG] solve : 1199 ms
noneompGKOIR:  Solving for p, Initial residual = 0.0364627, Final residual = 8.00637e-06, No Iterations 2
linear solve p 1430
time step continuity errors : sum local = 3.42588e-09, global = 1.40509e-20, cumulative = 7.28004e-20
ExecutionTime = 1326.29 s  ClockTime = 101 s

End

