/*---------------------------------------------------------------------------*\
  =========                 |
  \\      /  F ield         | OpenFOAM: The Open Source CFD Toolbox
   \\    /   O peration     | Website:  https://openfoam.org
    \\  /    A nd           | Version:  8
     \\/     M anipulation  |
\*---------------------------------------------------------------------------*/
Build  : 8-40a5a48f630f
Exec   : icoFoam
Date   : Jul 28 2021
Time   : 02:23:14
Host   : "uc2n476.localdomain"
PID    : 1920349
I/O    : uncollated
Case   : /pfs/data5/home/kit/scc/nq7776/code/OBR/lidDrivenCavity3D/Variation_mesh/25/Variation_matrix_solver/BiCGStab_DIC_Serial/base
nProcs : 1
sigFpe : Enabling floating point exception trapping (FOAM_SIGFPE).
fileModificationChecking : Monitoring run-time modified files using timeStampMaster (fileModificationSkew 10)
allowSystemOperations : Allowing user-supplied system call operations

// * * * * * * * * * * * * * * * * * * * * * * * * * * * * * * * * * * * * * //
Create time

Create mesh for time = 0

Reading transportProperties

Reading field p

Reading field U

Reading/calculating face flux field phi


Starting time loop

Time = 0.001

Courant Number mean: 0 max: 0
nonePBiCGStab:  Solving for Ux, Initial residual = 1, Final residual = 0.00310183, No Iterations 5
nonePBiCGStab:  Solving for Uy, Initial residual = 0, Final residual = 0, No Iterations 0
nonePBiCGStab:  Solving for Uz, Initial residual = 0, Final residual = 0, No Iterations 0
linear solve U 2
DICPBiCGStab:  Solving for p, Initial residual = 1, Final residual = 6.56806e-05, No Iterations 44
linear solve p 23
time step continuity errors : sum local = 5.07938e-08, global = -2.22305e-20, cumulative = -2.22305e-20
DICPBiCGStab:  Solving for p, Initial residual = 0.480477, Final residual = 6.21633e-05, No Iterations 45
linear solve p 22
time step continuity errors : sum local = 5.9475e-08, global = 8.79699e-21, cumulative = -1.34335e-20
ExecutionTime = 0.14 s  ClockTime = 0 s

Time = 0.002

Courant Number mean: 0.0119701 max: 0.106554
nonePBiCGStab:  Solving for Ux, Initial residual = 0.210678, Final residual = 0.000695062, No Iterations 5
nonePBiCGStab:  Solving for Uy, Initial residual = 0.284677, Final residual = 0.000644272, No Iterations 5
nonePBiCGStab:  Solving for Uz, Initial residual = 0.888032, Final residual = 0.00331704, No Iterations 5
linear solve U 5
DICPBiCGStab:  Solving for p, Initial residual = 0.285861, Final residual = 3.88082e-05, No Iterations 44
linear solve p 22
time step continuity errors : sum local = 5.99624e-08, global = -7.50816e-21, cumulative = -2.09417e-20
DICPBiCGStab:  Solving for p, Initial residual = 0.189093, Final residual = 6.56927e-05, No Iterations 43
linear solve p 22
time step continuity errors : sum local = 7.05946e-08, global = 1.08022e-20, cumulative = -1.01395e-20
ExecutionTime = 0.2 s  ClockTime = 0 s

Time = 0.003

Courant Number mean: 0.0188464 max: 0.153562
nonePBiCGStab:  Solving for Ux, Initial residual = 0.0901607, Final residual = 0.000292443, No Iterations 5
nonePBiCGStab:  Solving for Uy, Initial residual = 0.124518, Final residual = 0.000198478, No Iterations 5
nonePBiCGStab:  Solving for Uz, Initial residual = 0.255276, Final residual = 0.00065433, No Iterations 5
linear solve U 5
DICPBiCGStab:  Solving for p, Initial residual = 0.10204, Final residual = 9.87627e-05, No Iterations 42
linear solve p 21
time step continuity errors : sum local = 9.03206e-08, global = 1.97303e-21, cumulative = -8.16647e-21
DICPBiCGStab:  Solving for p, Initial residual = 0.0695255, Final residual = 9.95836e-05, No Iterations 42
linear solve p 21
time step continuity errors : sum local = 1.11838e-07, global = -4.93868e-21, cumulative = -1.31052e-20
ExecutionTime = 0.26 s  ClockTime = 0 s

Time = 0.004

Courant Number mean: 0.0233146 max: 0.175119
nonePBiCGStab:  Solving for Ux, Initial residual = 0.0520632, Final residual = 0.00010289, No Iterations 5
nonePBiCGStab:  Solving for Uy, Initial residual = 0.0744013, Final residual = 6.99999e-05, No Iterations 5
nonePBiCGStab:  Solving for Uz, Initial residual = 0.135193, Final residual = 0.000271879, No Iterations 5
linear solve U 5
DICPBiCGStab:  Solving for p, Initial residual = 0.0553568, Final residual = 8.94434e-05, No Iterations 17
linear solve p 8
time step continuity errors : sum local = 7.31094e-08, global = -2.82648e-21, cumulative = -1.59316e-20
DICPBiCGStab:  Solving for p, Initial residual = 0.0371878, Final residual = 9.34549e-05, No Iterations 16
linear solve p 8
time step continuity errors : sum local = 1.03133e-07, global = -1.53231e-20, cumulative = -3.12548e-20
ExecutionTime = 0.29 s  ClockTime = 0 s

Time = 0.005

Courant Number mean: 0.0264938 max: 0.186505
nonePBiCGStab:  Solving for Ux, Initial residual = 0.0351461, Final residual = 3.76349e-05, No Iterations 5
nonePBiCGStab:  Solving for Uy, Initial residual = 0.0508217, Final residual = 2.36605e-05, No Iterations 5
nonePBiCGStab:  Solving for Uz, Initial residual = 0.0918696, Final residual = 0.000112091, No Iterations 5
linear solve U 5
DICPBiCGStab:  Solving for p, Initial residual = 0.0352156, Final residual = 9.83194e-05, No Iterations 16
linear solve p 8
time step continuity errors : sum local = 8.84632e-08, global = -2.14715e-21, cumulative = -3.34019e-20
DICPBiCGStab:  Solving for p, Initial residual = 0.0234091, Final residual = 6.5146e-05, No Iterations 16
linear solve p 8
time step continuity errors : sum local = 6.71151e-08, global = 2.27361e-20, cumulative = -1.06658e-20
ExecutionTime = 0.31 s  ClockTime = 0 s

Time = 0.006

Courant Number mean: 0.0288955 max: 0.193336
nonePBiCGStab:  Solving for Ux, Initial residual = 0.0259515, Final residual = 1.43033e-05, No Iterations 5
nonePBiCGStab:  Solving for Uy, Initial residual = 0.0380021, Final residual = 1.61547e-05, No Iterations 5
nonePBiCGStab:  Solving for Uz, Initial residual = 0.0707815, Final residual = 6.66959e-05, No Iterations 5
linear solve U 5
DICPBiCGStab:  Solving for p, Initial residual = 0.0245672, Final residual = 8.5096e-05, No Iterations 16
linear solve p 8
time step continuity errors : sum local = 7.99022e-08, global = -3.87469e-21, cumulative = -1.45405e-20
DICPBiCGStab:  Solving for p, Initial residual = 0.0165029, Final residual = 5.06047e-05, No Iterations 16
linear solve p 8
time step continuity errors : sum local = 4.66326e-08, global = -6.45945e-21, cumulative = -2.1e-20
ExecutionTime = 0.35 s  ClockTime = 0 s

Time = 0.007

Courant Number mean: 0.0308311 max: 0.197891
nonePBiCGStab:  Solving for Ux, Initial residual = 0.0203702, Final residual = 7.01907e-06, No Iterations 5
nonePBiCGStab:  Solving for Uy, Initial residual = 0.0300247, Final residual = 9.56207e-06, No Iterations 5
nonePBiCGStab:  Solving for Uz, Initial residual = 0.0574147, Final residual = 4.37944e-05, No Iterations 5
linear solve U 5
DICPBiCGStab:  Solving for p, Initial residual = 0.0187331, Final residual = 7.51898e-05, No Iterations 16
linear solve p 8
time step continuity errors : sum local = 7.60799e-08, global = -3.57986e-20, cumulative = -5.67986e-20
DICPBiCGStab:  Solving for p, Initial residual = 0.0127078, Final residual = 9.66901e-05, No Iterations 15
linear solve p 8
time step continuity errors : sum local = 8.48507e-08, global = 2.47909e-21, cumulative = -5.43195e-20
ExecutionTime = 0.38 s  ClockTime = 0 s

Time = 0.008

Courant Number mean: 0.0324766 max: 0.201172
nonePBiCGStab:  Solving for Ux, Initial residual = 0.0165227, Final residual = 4.91836e-06, No Iterations 5
nonePBiCGStab:  Solving for Uy, Initial residual = 0.0246286, Final residual = 6.19975e-06, No Iterations 5
nonePBiCGStab:  Solving for Uz, Initial residual = 0.0480443, Final residual = 3.17784e-05, No Iterations 5
linear solve U 5
DICPBiCGStab:  Solving for p, Initial residual = 0.0150783, Final residual = 6.78048e-05, No Iterations 16
linear solve p 8
time step continuity errors : sum local = 7.22944e-08, global = -2.50683e-20, cumulative = -7.93878e-20
DICPBiCGStab:  Solving for p, Initial residual = 0.0102908, Final residual = 9.10251e-05, No Iterations 15
linear solve p 7
time step continuity errors : sum local = 8.56871e-08, global = -2.73574e-20, cumulative = -1.06745e-19
ExecutionTime = 0.41 s  ClockTime = 0 s

Time = 0.009

Courant Number mean: 0.0338808 max: 0.203668
nonePBiCGStab:  Solving for Ux, Initial residual = 0.0137902, Final residual = 3.14033e-06, No Iterations 5
nonePBiCGStab:  Solving for Uy, Initial residual = 0.0206927, Final residual = 4.08074e-06, No Iterations 5
nonePBiCGStab:  Solving for Uz, Initial residual = 0.0409249, Final residual = 2.0539e-05, No Iterations 5
linear solve U 5
DICPBiCGStab:  Solving for p, Initial residual = 0.0124593, Final residual = 6.20041e-05, No Iterations 16
linear solve p 8
time step continuity errors : sum local = 7.09557e-08, global = -6.9629e-21, cumulative = -1.13708e-19
DICPBiCGStab:  Solving for p, Initial residual = 0.00855612, Final residual = 8.05274e-05, No Iterations 15
linear solve p 7
time step continuity errors : sum local = 8.14912e-08, global = 3.11513e-20, cumulative = -8.25568e-20
ExecutionTime = 0.43 s  ClockTime = 0 s

Time = 0.01

Courant Number mean: 0.0350921 max: 0.205643
nonePBiCGStab:  Solving for Ux, Initial residual = 0.0117245, Final residual = 2.16436e-06, No Iterations 5
nonePBiCGStab:  Solving for Uy, Initial residual = 0.0177143, Final residual = 2.95847e-06, No Iterations 5
nonePBiCGStab:  Solving for Uz, Initial residual = 0.0353867, Final residual = 1.55411e-05, No Iterations 5
linear solve U 5
DICPBiCGStab:  Solving for p, Initial residual = 0.0105089, Final residual = 5.71207e-05, No Iterations 16
linear solve p 8
time step continuity errors : sum local = 6.94405e-08, global = -1.47729e-20, cumulative = -9.73297e-20
DICPBiCGStab:  Solving for p, Initial residual = 0.00725024, Final residual = 7.18331e-05, No Iterations 15
linear solve p 7
time step continuity errors : sum local = 7.77887e-08, global = 3.33445e-20, cumulative = -6.39852e-20
ExecutionTime = 0.46 s  ClockTime = 0 s

End

