/*---------------------------------------------------------------------------*\
  =========                 |
  \\      /  F ield         | OpenFOAM: The Open Source CFD Toolbox
   \\    /   O peration     | Website:  https://openfoam.org
    \\  /    A nd           | Version:  8
     \\/     M anipulation  |
\*---------------------------------------------------------------------------*/
Build  : 8-40a5a48f630f
Exec   : icoFoam
Date   : Jul 28 2021
Time   : 03:23:08
Host   : "uc2n462.localdomain"
PID    : 3696228
I/O    : uncollated
Case   : /pfs/data5/home/kit/scc/nq7776/code/OBR/lidDrivenCavity3D/Variation_mesh/70/Variation_matrix_solver/BiCGStab_BJ_OMP/base
nProcs : 1
sigFpe : Enabling floating point exception trapping (FOAM_SIGFPE).
fileModificationChecking : Monitoring run-time modified files using timeStampMaster (fileModificationSkew 10)
allowSystemOperations : Allowing user-supplied system call operations

// * * * * * * * * * * * * * * * * * * * * * * * * * * * * * * * * * * * * * //
Create time

Create mesh for time = 0

Reading transportProperties

Reading field p

Reading field U

Reading/calculating face flux field phi


Starting time loop

Time = 0.001

Courant Number mean: 0 max: 0
nonePBiCGStab:  Solving for Ux, Initial residual = 1, Final residual = 0.0584718, No Iterations 5
nonePBiCGStab:  Solving for Uy, Initial residual = 0, Final residual = 0, No Iterations 0
nonePBiCGStab:  Solving for Uz, Initial residual = 0, Final residual = 0, No Iterations 0
linear solve U 87
[OGL LOG] init_host_sparsity_pattern : 98 ms
[OGL LOG] matrix not stored update host matrix
[OGL LOG] update_host_mtx : 51 ms
[OGL LOG] matrix is not yet sorted, compute sorting idxs
[OGL LOG] compute_sort : 2983 ms
[OGL LOG] matrix is not yet sorted, sorting host matrix
[OGL LOG] sort_host_mtx_sparsity_pattern : 71 ms
[OGL LOG] sort_host_mtx : 42 ms
[OGL LOG] init_preconditioner : 20 ms
[OGL LOG] solve : 3882 ms
BJompGKOBiCGStab:  Solving for p, Initial residual = 1, Final residual = 7.96565e-05, No Iterations 341
linear solve p 7248
time step continuity errors : sum local = 1.4214e-07, global = -1.37226e-20, cumulative = -1.37226e-20
[OGL LOG] init_host_sparsity_pattern : 101 ms
[OGL LOG] matrix not stored update host matrix
[OGL LOG] update_host_mtx : 51 ms
[OGL LOG] matrix is not yet sorted, sorting host matrix
[OGL LOG] sort_host_mtx_sparsity_pattern : 80 ms
[OGL LOG] sort_host_mtx : 34 ms
[OGL LOG] init_preconditioner : 0 ms
[OGL LOG] solve : 3929 ms
BJompGKOBiCGStab:  Solving for p, Initial residual = 0.681328, Final residual = 1.24667e-05, No Iterations 347
linear solve p 4258
time step continuity errors : sum local = 7.17584e-07, global = -5.5028e-21, cumulative = -1.92254e-20
ExecutionTime = 161.1 s  ClockTime = 14 s

Time = 0.002

Courant Number mean: 0.0344595 max: 0.514721
nonePBiCGStab:  Solving for Ux, Initial residual = 0.148674, Final residual = 0.0241939, No Iterations 5
nonePBiCGStab:  Solving for Uy, Initial residual = 0.378744, Final residual = 0.0567289, No Iterations 5
nonePBiCGStab:  Solving for Uz, Initial residual = 0.968374, Final residual = 0.182286, No Iterations 5
linear solve U 178
[OGL LOG] init_host_sparsity_pattern : 93 ms
[OGL LOG] matrix not stored update host matrix
[OGL LOG] update_host_mtx : 51 ms
[OGL LOG] matrix is not yet sorted, sorting host matrix
[OGL LOG] sort_host_mtx_sparsity_pattern : 72 ms
[OGL LOG] sort_host_mtx : 35 ms
[OGL LOG] init_preconditioner : 0 ms
[OGL LOG] solve : 3933 ms
BJompGKOBiCGStab:  Solving for p, Initial residual = 0.684733, Final residual = 7.94628e-05, No Iterations 354
linear solve p 4234
time step continuity errors : sum local = 2.4849e-07, global = -2.40138e-21, cumulative = -2.16268e-20
[OGL LOG] init_host_sparsity_pattern : 94 ms
[OGL LOG] matrix not stored update host matrix
[OGL LOG] update_host_mtx : 52 ms
[OGL LOG] matrix is not yet sorted, sorting host matrix
[OGL LOG] sort_host_mtx_sparsity_pattern : 72 ms
[OGL LOG] sort_host_mtx : 34 ms
[OGL LOG] init_preconditioner : 0 ms
[OGL LOG] solve : 3701 ms
BJompGKOBiCGStab:  Solving for p, Initial residual = 0.603895, Final residual = 9.52006e-05, No Iterations 341
linear solve p 4005
time step continuity errors : sum local = 5.2585e-07, global = -5.55746e-21, cumulative = -2.71843e-20
ExecutionTime = 314.54 s  ClockTime = 22 s

Time = 0.003

Courant Number mean: 0.0532468 max: 0.605889
nonePBiCGStab:  Solving for Ux, Initial residual = 0.0556304, Final residual = 0.00748822, No Iterations 5
nonePBiCGStab:  Solving for Uy, Initial residual = 0.136077, Final residual = 0.0236094, No Iterations 5
nonePBiCGStab:  Solving for Uz, Initial residual = 0.471295, Final residual = 0.0957269, No Iterations 5
linear solve U 174
[OGL LOG] init_host_sparsity_pattern : 93 ms
[OGL LOG] matrix not stored update host matrix
[OGL LOG] update_host_mtx : 50 ms
[OGL LOG] matrix is not yet sorted, sorting host matrix
[OGL LOG] sort_host_mtx_sparsity_pattern : 72 ms
[OGL LOG] sort_host_mtx : 34 ms
[OGL LOG] init_preconditioner : 0 ms
[OGL LOG] solve : 3732 ms
BJompGKOBiCGStab:  Solving for p, Initial residual = 0.613165, Final residual = 9.40589e-05, No Iterations 332
linear solve p 4031
time step continuity errors : sum local = 1.45396e-07, global = -1.36508e-20, cumulative = -4.0835e-20
[OGL LOG] init_host_sparsity_pattern : 94 ms
[OGL LOG] matrix not stored update host matrix
[OGL LOG] update_host_mtx : 50 ms
[OGL LOG] matrix is not yet sorted, sorting host matrix
[OGL LOG] sort_host_mtx_sparsity_pattern : 72 ms
[OGL LOG] sort_host_mtx : 34 ms
[OGL LOG] init_preconditioner : 0 ms
[OGL LOG] solve : 1712 ms
BJompGKOBiCGStab:  Solving for p, Initial residual = 0.546023, Final residual = 9.58203e-05, No Iterations 155
linear solve p 2012
time step continuity errors : sum local = 1.13208e-07, global = -3.75477e-21, cumulative = -4.45898e-20
ExecutionTime = 424.39 s  ClockTime = 29 s

Time = 0.004

Courant Number mean: 0.0638216 max: 0.623654
nonePBiCGStab:  Solving for Ux, Initial residual = 0.0336163, Final residual = 0.00394349, No Iterations 5
nonePBiCGStab:  Solving for Uy, Initial residual = 0.0887955, Final residual = 0.011069, No Iterations 5
nonePBiCGStab:  Solving for Uz, Initial residual = 0.269055, Final residual = 0.0409718, No Iterations 5
linear solve U 174
[OGL LOG] init_host_sparsity_pattern : 93 ms
[OGL LOG] matrix not stored update host matrix
[OGL LOG] update_host_mtx : 50 ms
[OGL LOG] matrix is not yet sorted, sorting host matrix
[OGL LOG] sort_host_mtx_sparsity_pattern : 72 ms
[OGL LOG] sort_host_mtx : 35 ms
[OGL LOG] init_preconditioner : 0 ms
[OGL LOG] solve : 3326 ms
BJompGKOBiCGStab:  Solving for p, Initial residual = 0.428499, Final residual = 9.87901e-05, No Iterations 298
linear solve p 3617
time step continuity errors : sum local = 6.93742e-08, global = -9.57514e-21, cumulative = -5.41649e-20
[OGL LOG] init_host_sparsity_pattern : 94 ms
[OGL LOG] matrix not stored update host matrix
[OGL LOG] update_host_mtx : 50 ms
[OGL LOG] matrix is not yet sorted, sorting host matrix
[OGL LOG] sort_host_mtx_sparsity_pattern : 70 ms
[OGL LOG] sort_host_mtx : 34 ms
[OGL LOG] init_preconditioner : 0 ms
[OGL LOG] solve : 3410 ms
BJompGKOBiCGStab:  Solving for p, Initial residual = 0.358972, Final residual = 9.63776e-05, No Iterations 305
linear solve p 3703
time step continuity errors : sum local = 5.85982e-08, global = 5.20839e-21, cumulative = -4.89565e-20
ExecutionTime = 560.02 s  ClockTime = 37 s

Time = 0.005

Courant Number mean: 0.0724519 max: 0.63465
nonePBiCGStab:  Solving for Ux, Initial residual = 0.0241374, Final residual = 0.00251413, No Iterations 5
nonePBiCGStab:  Solving for Uy, Initial residual = 0.0574536, Final residual = 0.00638968, No Iterations 5
nonePBiCGStab:  Solving for Uz, Initial residual = 0.140955, Final residual = 0.0237058, No Iterations 5
linear solve U 174
[OGL LOG] init_host_sparsity_pattern : 93 ms
[OGL LOG] matrix not stored update host matrix
[OGL LOG] update_host_mtx : 51 ms
[OGL LOG] matrix is not yet sorted, sorting host matrix
[OGL LOG] sort_host_mtx_sparsity_pattern : 72 ms
[OGL LOG] sort_host_mtx : 34 ms
[OGL LOG] init_preconditioner : 0 ms
[OGL LOG] solve : 2384 ms
BJompGKOBiCGStab:  Solving for p, Initial residual = 0.375503, Final residual = 9.96142e-05, No Iterations 216
linear solve p 2680
time step continuity errors : sum local = 1.26439e-07, global = -4.34558e-21, cumulative = -5.33021e-20
[OGL LOG] init_host_sparsity_pattern : 97 ms
[OGL LOG] matrix not stored update host matrix
[OGL LOG] update_host_mtx : 50 ms
[OGL LOG] matrix is not yet sorted, sorting host matrix
[OGL LOG] sort_host_mtx_sparsity_pattern : 72 ms
[OGL LOG] sort_host_mtx : 36 ms
[OGL LOG] init_preconditioner : 0 ms
[OGL LOG] solve : 1292 ms
BJompGKOBiCGStab:  Solving for p, Initial residual = 0.322186, Final residual = 9.99624e-05, No Iterations 117
linear solve p 1588
time step continuity errors : sum local = 6.36585e-08, global = 1.24635e-20, cumulative = -4.08386e-20
ExecutionTime = 634.66 s  ClockTime = 41 s

Time = 0.006

Courant Number mean: 0.0792132 max: 0.641415
nonePBiCGStab:  Solving for Ux, Initial residual = 0.0179489, Final residual = 0.00153215, No Iterations 5
nonePBiCGStab:  Solving for Uy, Initial residual = 0.0429343, Final residual = 0.00325905, No Iterations 5
nonePBiCGStab:  Solving for Uz, Initial residual = 0.110833, Final residual = 0.0171667, No Iterations 5
linear solve U 174
[OGL LOG] init_host_sparsity_pattern : 93 ms
[OGL LOG] matrix not stored update host matrix
[OGL LOG] update_host_mtx : 50 ms
[OGL LOG] matrix is not yet sorted, sorting host matrix
[OGL LOG] sort_host_mtx_sparsity_pattern : 69 ms
[OGL LOG] sort_host_mtx : 34 ms
[OGL LOG] init_preconditioner : 0 ms
[OGL LOG] solve : 3525 ms
BJompGKOBiCGStab:  Solving for p, Initial residual = 0.269063, Final residual = 8.24712e-05, No Iterations 326
linear solve p 3816
time step continuity errors : sum local = 6.24425e-08, global = 1.14127e-20, cumulative = -2.94259e-20
[OGL LOG] init_host_sparsity_pattern : 94 ms
[OGL LOG] matrix not stored update host matrix
[OGL LOG] update_host_mtx : 50 ms
[OGL LOG] matrix is not yet sorted, sorting host matrix
[OGL LOG] sort_host_mtx_sparsity_pattern : 69 ms
[OGL LOG] sort_host_mtx : 34 ms
[OGL LOG] init_preconditioner : 0 ms
[OGL LOG] solve : 3178 ms
BJompGKOBiCGStab:  Solving for p, Initial residual = 0.225691, Final residual = 9.3785e-05, No Iterations 296
linear solve p 3474
time step continuity errors : sum local = 2.75313e-07, global = 1.44551e-20, cumulative = -1.49708e-20
ExecutionTime = 769.63 s  ClockTime = 49 s

Time = 0.007

Courant Number mean: 0.0849122 max: 0.646004
nonePBiCGStab:  Solving for Ux, Initial residual = 0.0140536, Final residual = 0.00101463, No Iterations 5
nonePBiCGStab:  Solving for Uy, Initial residual = 0.033766, Final residual = 0.0025044, No Iterations 5
nonePBiCGStab:  Solving for Uz, Initial residual = 0.0835304, Final residual = 0.0112046, No Iterations 5
linear solve U 173
[OGL LOG] init_host_sparsity_pattern : 93 ms
[OGL LOG] matrix not stored update host matrix
[OGL LOG] update_host_mtx : 50 ms
[OGL LOG] matrix is not yet sorted, sorting host matrix
[OGL LOG] sort_host_mtx_sparsity_pattern : 72 ms
[OGL LOG] sort_host_mtx : 35 ms
[OGL LOG] init_preconditioner : 0 ms
[OGL LOG] solve : 3108 ms
BJompGKOBiCGStab:  Solving for p, Initial residual = 0.223805, Final residual = 9.031e-05, No Iterations 291
linear solve p 3400
time step continuity errors : sum local = 3.99661e-08, global = 2.38254e-21, cumulative = -1.25883e-20
[OGL LOG] init_host_sparsity_pattern : 94 ms
[OGL LOG] matrix not stored update host matrix
[OGL LOG] update_host_mtx : 50 ms
[OGL LOG] matrix is not yet sorted, sorting host matrix
[OGL LOG] sort_host_mtx_sparsity_pattern : 69 ms
[OGL LOG] sort_host_mtx : 34 ms
[OGL LOG] init_preconditioner : 0 ms
[OGL LOG] solve : 3768 ms
BJompGKOBiCGStab:  Solving for p, Initial residual = 0.189249, Final residual = 9.92544e-05, No Iterations 353
linear solve p 4058
time step continuity errors : sum local = 4.39246e-08, global = -1.40347e-20, cumulative = -2.6623e-20
ExecutionTime = 908.09 s  ClockTime = 57 s

Time = 0.008

Courant Number mean: 0.0896917 max: 0.649498
nonePBiCGStab:  Solving for Ux, Initial residual = 0.0116106, Final residual = 0.00073856, No Iterations 5
nonePBiCGStab:  Solving for Uy, Initial residual = 0.0269709, Final residual = 0.00131844, No Iterations 5
nonePBiCGStab:  Solving for Uz, Initial residual = 0.0710066, Final residual = 0.00850646, No Iterations 5
linear solve U 173
[OGL LOG] init_host_sparsity_pattern : 93 ms
[OGL LOG] matrix not stored update host matrix
[OGL LOG] update_host_mtx : 50 ms
[OGL LOG] matrix is not yet sorted, sorting host matrix
[OGL LOG] sort_host_mtx_sparsity_pattern : 70 ms
[OGL LOG] sort_host_mtx : 34 ms
[OGL LOG] init_preconditioner : 0 ms
[OGL LOG] solve : 1373 ms
BJompGKOBiCGStab:  Solving for p, Initial residual = 0.163908, Final residual = 8.54038e-05, No Iterations 129
linear solve p 1662
time step continuity errors : sum local = 9.51194e-08, global = 3.0585e-21, cumulative = -2.35645e-20
[OGL LOG] init_host_sparsity_pattern : 94 ms
[OGL LOG] matrix not stored update host matrix
[OGL LOG] update_host_mtx : 50 ms
[OGL LOG] matrix is not yet sorted, sorting host matrix
[OGL LOG] sort_host_mtx_sparsity_pattern : 70 ms
[OGL LOG] sort_host_mtx : 34 ms
[OGL LOG] init_preconditioner : 0 ms
[OGL LOG] solve : 1294 ms
BJompGKOBiCGStab:  Solving for p, Initial residual = 0.137689, Final residual = 6.33492e-05, No Iterations 121
linear solve p 1584
time step continuity errors : sum local = 8.23455e-08, global = 7.98076e-21, cumulative = -1.55838e-20
ExecutionTime = 962.58 s  ClockTime = 60 s

Time = 0.009

Courant Number mean: 0.0938252 max: 0.652207
nonePBiCGStab:  Solving for Ux, Initial residual = 0.00945764, Final residual = 0.000572221, No Iterations 5
nonePBiCGStab:  Solving for Uy, Initial residual = 0.0231256, Final residual = 0.00114099, No Iterations 5
nonePBiCGStab:  Solving for Uz, Initial residual = 0.0563612, Final residual = 0.0058934, No Iterations 5
linear solve U 173
[OGL LOG] init_host_sparsity_pattern : 93 ms
[OGL LOG] matrix not stored update host matrix
[OGL LOG] update_host_mtx : 50 ms
[OGL LOG] matrix is not yet sorted, sorting host matrix
[OGL LOG] sort_host_mtx_sparsity_pattern : 69 ms
[OGL LOG] sort_host_mtx : 34 ms
[OGL LOG] init_preconditioner : 0 ms
[OGL LOG] solve : 1299 ms
BJompGKOBiCGStab:  Solving for p, Initial residual = 0.136652, Final residual = 9.98165e-05, No Iterations 121
linear solve p 1587
time step continuity errors : sum local = 8.3589e-08, global = 1.36308e-20, cumulative = -1.95292e-21
[OGL LOG] init_host_sparsity_pattern : 94 ms
[OGL LOG] matrix not stored update host matrix
[OGL LOG] update_host_mtx : 50 ms
[OGL LOG] matrix is not yet sorted, sorting host matrix
[OGL LOG] sort_host_mtx_sparsity_pattern : 69 ms
[OGL LOG] sort_host_mtx : 34 ms
[OGL LOG] init_preconditioner : 0 ms
[OGL LOG] solve : 1321 ms
BJompGKOBiCGStab:  Solving for p, Initial residual = 0.115996, Final residual = 9.26097e-05, No Iterations 124
linear solve p 1611
time step continuity errors : sum local = 6.44617e-08, global = 1.55684e-20, cumulative = 1.36154e-20
ExecutionTime = 1016.14 s  ClockTime = 64 s

Time = 0.01

Courant Number mean: 0.0974036 max: 0.654386
nonePBiCGStab:  Solving for Ux, Initial residual = 0.00824707, Final residual = 0.000478398, No Iterations 5
nonePBiCGStab:  Solving for Uy, Initial residual = 0.0190047, Final residual = 0.000878466, No Iterations 5
nonePBiCGStab:  Solving for Uz, Initial residual = 0.0560308, Final residual = 0.00766462, No Iterations 5
linear solve U 173
[OGL LOG] init_host_sparsity_pattern : 93 ms
[OGL LOG] matrix not stored update host matrix
[OGL LOG] update_host_mtx : 50 ms
[OGL LOG] matrix is not yet sorted, sorting host matrix
[OGL LOG] sort_host_mtx_sparsity_pattern : 70 ms
[OGL LOG] sort_host_mtx : 35 ms
[OGL LOG] init_preconditioner : 0 ms
[OGL LOG] solve : 3366 ms
BJompGKOBiCGStab:  Solving for p, Initial residual = 0.108598, Final residual = 1.2406e-05, No Iterations 324
linear solve p 3658
time step continuity errors : sum local = 7.82011e-08, global = 2.58965e-21, cumulative = 1.62051e-20
[OGL LOG] init_host_sparsity_pattern : 94 ms
[OGL LOG] matrix not stored update host matrix
[OGL LOG] update_host_mtx : 50 ms
[OGL LOG] matrix is not yet sorted, sorting host matrix
[OGL LOG] sort_host_mtx_sparsity_pattern : 69 ms
[OGL LOG] sort_host_mtx : 34 ms
[OGL LOG] init_preconditioner : 0 ms
[OGL LOG] solve : 3490 ms
BJompGKOBiCGStab:  Solving for p, Initial residual = 0.0920126, Final residual = 9.9726e-05, No Iterations 323
linear solve p 3788
time step continuity errors : sum local = 4.21138e-08, global = 4.55586e-21, cumulative = 2.07609e-20
ExecutionTime = 1154.16 s  ClockTime = 72 s

End

