/*---------------------------------------------------------------------------*\
  =========                 |
  \\      /  F ield         | OpenFOAM: The Open Source CFD Toolbox
   \\    /   O peration     | Website:  https://openfoam.org
    \\  /    A nd           | Version:  8
     \\/     M anipulation  |
\*---------------------------------------------------------------------------*/
Build  : 8-40a5a48f630f
Exec   : icoFoam
Date   : Jul 28 2021
Time   : 02:15:39
Host   : "uc2n530.localdomain"
PID    : 2384767
I/O    : uncollated
Case   : /pfs/data5/home/kit/scc/nq7776/code/OBR/lidDrivenCavity3D/Variation_mesh/25/Variation_matrix_solver/BiCGStab_NoPrecond_OMP/base
nProcs : 1
sigFpe : Enabling floating point exception trapping (FOAM_SIGFPE).
fileModificationChecking : Monitoring run-time modified files using timeStampMaster (fileModificationSkew 10)
allowSystemOperations : Allowing user-supplied system call operations

// * * * * * * * * * * * * * * * * * * * * * * * * * * * * * * * * * * * * * //
Create time

Create mesh for time = 0

Reading transportProperties

Reading field p

Reading field U

Reading/calculating face flux field phi


Starting time loop

Time = 0.001

Courant Number mean: 0 max: 0
nonePBiCGStab:  Solving for Ux, Initial residual = 1, Final residual = 0.00310183, No Iterations 5
nonePBiCGStab:  Solving for Uy, Initial residual = 0, Final residual = 0, No Iterations 0
nonePBiCGStab:  Solving for Uz, Initial residual = 0, Final residual = 0, No Iterations 0
linear solve U 3
[OGL LOG] init_host_sparsity_pattern : 4 ms
[OGL LOG] matrix not stored update host matrix
[OGL LOG] update_host_mtx : 2 ms
[OGL LOG] matrix is not yet sorted, compute sorting idxs
[OGL LOG] compute_sort : 114 ms
[OGL LOG] matrix is not yet sorted, sorting host matrix
[OGL LOG] sort_host_mtx_sparsity_pattern : 3 ms
[OGL LOG] sort_host_mtx : 2 ms
[OGL LOG] init_preconditioner : 0 ms
[OGL LOG] solve : 94 ms
noneompGKOBiCGStab:  Solving for p, Initial residual = 1, Final residual = 7.67433e-05, No Iterations 160
linear solve p 226
time step continuity errors : sum local = 1.49115e-07, global = -1.89375e-20, cumulative = -1.89375e-20
[OGL LOG] init_host_sparsity_pattern : 4 ms
[OGL LOG] matrix not stored update host matrix
[OGL LOG] update_host_mtx : 2 ms
[OGL LOG] matrix is not yet sorted, sorting host matrix
[OGL LOG] sort_host_mtx_sparsity_pattern : 3 ms
[OGL LOG] sort_host_mtx : 1 ms
[OGL LOG] init_preconditioner : 0 ms
[OGL LOG] solve : 94 ms
noneompGKOBiCGStab:  Solving for p, Initial residual = 0.480772, Final residual = 9.14798e-05, No Iterations 161
linear solve p 108
time step continuity errors : sum local = 2.83712e-07, global = 2.30983e-20, cumulative = 4.16087e-21
ExecutionTime = 0.63 s  ClockTime = 1 s

Time = 0.002

Courant Number mean: 0.0119709 max: 0.106554
nonePBiCGStab:  Solving for Ux, Initial residual = 0.210816, Final residual = 0.000695328, No Iterations 5
nonePBiCGStab:  Solving for Uy, Initial residual = 0.284549, Final residual = 0.000646862, No Iterations 5
nonePBiCGStab:  Solving for Uz, Initial residual = 0.879162, Final residual = 0.00338671, No Iterations 5
linear solve U 5
[OGL LOG] init_host_sparsity_pattern : 4 ms
[OGL LOG] matrix not stored update host matrix
[OGL LOG] update_host_mtx : 2 ms
[OGL LOG] matrix is not yet sorted, sorting host matrix
[OGL LOG] sort_host_mtx_sparsity_pattern : 3 ms
[OGL LOG] sort_host_mtx : 1 ms
[OGL LOG] init_preconditioner : 0 ms
[OGL LOG] solve : 90 ms
noneompGKOBiCGStab:  Solving for p, Initial residual = 0.286109, Final residual = 9.43849e-05, No Iterations 153
linear solve p 104
time step continuity errors : sum local = 3.20698e-06, global = -7.67076e-21, cumulative = -3.50988e-21
[OGL LOG] init_host_sparsity_pattern : 4 ms
[OGL LOG] matrix not stored update host matrix
[OGL LOG] update_host_mtx : 2 ms
[OGL LOG] matrix is not yet sorted, sorting host matrix
[OGL LOG] sort_host_mtx_sparsity_pattern : 3 ms
[OGL LOG] sort_host_mtx : 1 ms
[OGL LOG] init_preconditioner : 0 ms
[OGL LOG] solve : 85 ms
noneompGKOBiCGStab:  Solving for p, Initial residual = 0.192151, Final residual = 8.55975e-05, No Iterations 146
linear solve p 99
time step continuity errors : sum local = 4.13498e-07, global = 2.75017e-21, cumulative = -7.59714e-22
ExecutionTime = 1.04 s  ClockTime = 1 s

Time = 0.003

Courant Number mean: 0.0188465 max: 0.153564
nonePBiCGStab:  Solving for Ux, Initial residual = 0.089997, Final residual = 0.000292378, No Iterations 5
nonePBiCGStab:  Solving for Uy, Initial residual = 0.12492, Final residual = 0.000200451, No Iterations 5
nonePBiCGStab:  Solving for Uz, Initial residual = 0.276795, Final residual = 0.00133517, No Iterations 5
linear solve U 6
[OGL LOG] init_host_sparsity_pattern : 4 ms
[OGL LOG] matrix not stored update host matrix
[OGL LOG] update_host_mtx : 2 ms
[OGL LOG] matrix is not yet sorted, sorting host matrix
[OGL LOG] sort_host_mtx_sparsity_pattern : 3 ms
[OGL LOG] sort_host_mtx : 1 ms
[OGL LOG] init_preconditioner : 0 ms
[OGL LOG] solve : 80 ms
noneompGKOBiCGStab:  Solving for p, Initial residual = 0.104311, Final residual = 9.6395e-05, No Iterations 137
linear solve p 93
time step continuity errors : sum local = 2.36043e-07, global = 1.78009e-21, cumulative = 1.02038e-21
[OGL LOG] init_host_sparsity_pattern : 4 ms
[OGL LOG] matrix not stored update host matrix
[OGL LOG] update_host_mtx : 2 ms
[OGL LOG] matrix is not yet sorted, sorting host matrix
[OGL LOG] sort_host_mtx_sparsity_pattern : 3 ms
[OGL LOG] sort_host_mtx : 1 ms
[OGL LOG] init_preconditioner : 0 ms
[OGL LOG] solve : 77 ms
noneompGKOBiCGStab:  Solving for p, Initial residual = 0.0707479, Final residual = 9.86124e-05, No Iterations 132
linear solve p 91
time step continuity errors : sum local = 1.78973e-07, global = -9.7688e-21, cumulative = -8.74842e-21
ExecutionTime = 1.4 s  ClockTime = 1 s

Time = 0.004

Courant Number mean: 0.0233144 max: 0.175118
nonePBiCGStab:  Solving for Ux, Initial residual = 0.0520968, Final residual = 0.000101732, No Iterations 5
nonePBiCGStab:  Solving for Uy, Initial residual = 0.0743105, Final residual = 6.2809e-05, No Iterations 5
nonePBiCGStab:  Solving for Uz, Initial residual = 0.130962, Final residual = 0.000227912, No Iterations 5
linear solve U 6
[OGL LOG] init_host_sparsity_pattern : 4 ms
[OGL LOG] matrix not stored update host matrix
[OGL LOG] update_host_mtx : 2 ms
[OGL LOG] matrix is not yet sorted, sorting host matrix
[OGL LOG] sort_host_mtx_sparsity_pattern : 3 ms
[OGL LOG] sort_host_mtx : 1 ms
[OGL LOG] init_preconditioner : 0 ms
[OGL LOG] solve : 33 ms
noneompGKOBiCGStab:  Solving for p, Initial residual = 0.0553361, Final residual = 7.56643e-05, No Iterations 56
linear solve p 47
time step continuity errors : sum local = 9.88521e-08, global = 1.93964e-20, cumulative = 1.06479e-20
[OGL LOG] init_host_sparsity_pattern : 4 ms
[OGL LOG] matrix not stored update host matrix
[OGL LOG] update_host_mtx : 2 ms
[OGL LOG] matrix is not yet sorted, sorting host matrix
[OGL LOG] sort_host_mtx_sparsity_pattern : 3 ms
[OGL LOG] sort_host_mtx : 1 ms
[OGL LOG] init_preconditioner : 0 ms
[OGL LOG] solve : 29 ms
noneompGKOBiCGStab:  Solving for p, Initial residual = 0.0371152, Final residual = 9.78654e-05, No Iterations 50
linear solve p 43
time step continuity errors : sum local = 1.4029e-07, global = 8.88749e-21, cumulative = 1.95354e-20
ExecutionTime = 1.58 s  ClockTime = 1 s

Time = 0.005

Courant Number mean: 0.0264936 max: 0.186504
nonePBiCGStab:  Solving for Ux, Initial residual = 0.0351201, Final residual = 3.73689e-05, No Iterations 5
nonePBiCGStab:  Solving for Uy, Initial residual = 0.0508555, Final residual = 2.64971e-05, No Iterations 5
nonePBiCGStab:  Solving for Uz, Initial residual = 0.09186, Final residual = 0.000147679, No Iterations 5
linear solve U 5
[OGL LOG] init_host_sparsity_pattern : 4 ms
[OGL LOG] matrix not stored update host matrix
[OGL LOG] update_host_mtx : 2 ms
[OGL LOG] matrix is not yet sorted, sorting host matrix
[OGL LOG] sort_host_mtx_sparsity_pattern : 3 ms
[OGL LOG] sort_host_mtx : 1 ms
[OGL LOG] init_preconditioner : 0 ms
[OGL LOG] solve : 31 ms
noneompGKOBiCGStab:  Solving for p, Initial residual = 0.0351689, Final residual = 8.36432e-05, No Iterations 53
linear solve p 45
time step continuity errors : sum local = 9.72514e-08, global = -2.95264e-20, cumulative = -9.991e-21
[OGL LOG] init_host_sparsity_pattern : 4 ms
[OGL LOG] matrix not stored update host matrix
[OGL LOG] update_host_mtx : 2 ms
[OGL LOG] matrix is not yet sorted, sorting host matrix
[OGL LOG] sort_host_mtx_sparsity_pattern : 3 ms
[OGL LOG] sort_host_mtx : 1 ms
[OGL LOG] init_preconditioner : 0 ms
[OGL LOG] solve : 28 ms
noneompGKOBiCGStab:  Solving for p, Initial residual = 0.0233169, Final residual = 9.77674e-05, No Iterations 47
linear solve p 42
time step continuity errors : sum local = 1.72189e-07, global = -2.06022e-20, cumulative = -3.05932e-20
ExecutionTime = 1.75 s  ClockTime = 1 s

Time = 0.006

Courant Number mean: 0.0288951 max: 0.193336
nonePBiCGStab:  Solving for Ux, Initial residual = 0.025923, Final residual = 1.39976e-05, No Iterations 5
nonePBiCGStab:  Solving for Uy, Initial residual = 0.0380404, Final residual = 1.50547e-05, No Iterations 5
nonePBiCGStab:  Solving for Uz, Initial residual = 0.0709879, Final residual = 6.7477e-05, No Iterations 5
linear solve U 5
[OGL LOG] init_host_sparsity_pattern : 4 ms
[OGL LOG] matrix not stored update host matrix
[OGL LOG] update_host_mtx : 2 ms
[OGL LOG] matrix is not yet sorted, sorting host matrix
[OGL LOG] sort_host_mtx_sparsity_pattern : 3 ms
[OGL LOG] sort_host_mtx : 1 ms
[OGL LOG] init_preconditioner : 0 ms
[OGL LOG] solve : 30 ms
noneompGKOBiCGStab:  Solving for p, Initial residual = 0.0245808, Final residual = 8.00042e-05, No Iterations 51
linear solve p 44
time step continuity errors : sum local = 1.08131e-07, global = 2.01894e-20, cumulative = -1.04038e-20
[OGL LOG] init_host_sparsity_pattern : 4 ms
[OGL LOG] matrix not stored update host matrix
[OGL LOG] update_host_mtx : 2 ms
[OGL LOG] matrix is not yet sorted, sorting host matrix
[OGL LOG] sort_host_mtx_sparsity_pattern : 3 ms
[OGL LOG] sort_host_mtx : 1 ms
[OGL LOG] init_preconditioner : 0 ms
[OGL LOG] solve : 29 ms
noneompGKOBiCGStab:  Solving for p, Initial residual = 0.016491, Final residual = 7.39051e-05, No Iterations 49
linear solve p 43
time step continuity errors : sum local = 1.44054e-07, global = -4.64669e-21, cumulative = -1.50505e-20
ExecutionTime = 1.91 s  ClockTime = 2 s

Time = 0.007

Courant Number mean: 0.0308306 max: 0.197891
nonePBiCGStab:  Solving for Ux, Initial residual = 0.0203313, Final residual = 6.95358e-06, No Iterations 5
nonePBiCGStab:  Solving for Uy, Initial residual = 0.0300733, Final residual = 9.48238e-06, No Iterations 5
nonePBiCGStab:  Solving for Uz, Initial residual = 0.057518, Final residual = 4.40392e-05, No Iterations 5
linear solve U 5
[OGL LOG] init_host_sparsity_pattern : 4 ms
[OGL LOG] matrix not stored update host matrix
[OGL LOG] update_host_mtx : 2 ms
[OGL LOG] matrix is not yet sorted, sorting host matrix
[OGL LOG] sort_host_mtx_sparsity_pattern : 3 ms
[OGL LOG] sort_host_mtx : 1 ms
[OGL LOG] init_preconditioner : 0 ms
[OGL LOG] solve : 31 ms
noneompGKOBiCGStab:  Solving for p, Initial residual = 0.0187692, Final residual = 9.74864e-05, No Iterations 54
linear solve p 45
time step continuity errors : sum local = 8.61365e-08, global = -1.06767e-20, cumulative = -2.57272e-20
[OGL LOG] init_host_sparsity_pattern : 4 ms
[OGL LOG] matrix not stored update host matrix
[OGL LOG] update_host_mtx : 2 ms
[OGL LOG] matrix is not yet sorted, sorting host matrix
[OGL LOG] sort_host_mtx_sparsity_pattern : 3 ms
[OGL LOG] sort_host_mtx : 1 ms
[OGL LOG] init_preconditioner : 0 ms
[OGL LOG] solve : 29 ms
noneompGKOBiCGStab:  Solving for p, Initial residual = 0.0126978, Final residual = 7.67972e-05, No Iterations 50
linear solve p 43
time step continuity errors : sum local = 1.00815e-07, global = -4.69107e-21, cumulative = -3.04183e-20
ExecutionTime = 2.09 s  ClockTime = 2 s

Time = 0.008

Courant Number mean: 0.0324763 max: 0.201171
nonePBiCGStab:  Solving for Ux, Initial residual = 0.0165386, Final residual = 4.8686e-06, No Iterations 5
nonePBiCGStab:  Solving for Uy, Initial residual = 0.0246068, Final residual = 6.29015e-06, No Iterations 5
nonePBiCGStab:  Solving for Uz, Initial residual = 0.0480972, Final residual = 3.12858e-05, No Iterations 5
linear solve U 5
[OGL LOG] init_host_sparsity_pattern : 4 ms
[OGL LOG] matrix not stored update host matrix
[OGL LOG] update_host_mtx : 2 ms
[OGL LOG] matrix is not yet sorted, sorting host matrix
[OGL LOG] sort_host_mtx_sparsity_pattern : 3 ms
[OGL LOG] sort_host_mtx : 1 ms
[OGL LOG] init_preconditioner : 0 ms
[OGL LOG] solve : 30 ms
noneompGKOBiCGStab:  Solving for p, Initial residual = 0.0150263, Final residual = 9.50546e-05, No Iterations 52
linear solve p 44
time step continuity errors : sum local = 9.04435e-08, global = -9.23527e-21, cumulative = -3.96536e-20
[OGL LOG] init_host_sparsity_pattern : 4 ms
[OGL LOG] matrix not stored update host matrix
[OGL LOG] update_host_mtx : 2 ms
[OGL LOG] matrix is not yet sorted, sorting host matrix
[OGL LOG] sort_host_mtx_sparsity_pattern : 3 ms
[OGL LOG] sort_host_mtx : 1 ms
[OGL LOG] init_preconditioner : 0 ms
[OGL LOG] solve : 28 ms
noneompGKOBiCGStab:  Solving for p, Initial residual = 0.010273, Final residual = 9.07283e-05, No Iterations 49
linear solve p 42
time step continuity errors : sum local = 8.40399e-08, global = 5.64602e-21, cumulative = -3.40075e-20
ExecutionTime = 2.25 s  ClockTime = 2 s

Time = 0.009

Courant Number mean: 0.0338806 max: 0.203668
nonePBiCGStab:  Solving for Ux, Initial residual = 0.0137945, Final residual = 3.2184e-06, No Iterations 5
nonePBiCGStab:  Solving for Uy, Initial residual = 0.020689, Final residual = 4.35031e-06, No Iterations 5
nonePBiCGStab:  Solving for Uz, Initial residual = 0.0409495, Final residual = 2.13463e-05, No Iterations 5
linear solve U 6
[OGL LOG] init_host_sparsity_pattern : 4 ms
[OGL LOG] matrix not stored update host matrix
[OGL LOG] update_host_mtx : 2 ms
[OGL LOG] matrix is not yet sorted, sorting host matrix
[OGL LOG] sort_host_mtx_sparsity_pattern : 3 ms
[OGL LOG] sort_host_mtx : 1 ms
[OGL LOG] init_preconditioner : 0 ms
[OGL LOG] solve : 30 ms
noneompGKOBiCGStab:  Solving for p, Initial residual = 0.0124405, Final residual = 9.21684e-05, No Iterations 51
linear solve p 44
time step continuity errors : sum local = 9.35935e-08, global = -2.00626e-20, cumulative = -5.40702e-20
[OGL LOG] init_host_sparsity_pattern : 4 ms
[OGL LOG] matrix not stored update host matrix
[OGL LOG] update_host_mtx : 2 ms
[OGL LOG] matrix is not yet sorted, sorting host matrix
[OGL LOG] sort_host_mtx_sparsity_pattern : 3 ms
[OGL LOG] sort_host_mtx : 1 ms
[OGL LOG] init_preconditioner : 0 ms
[OGL LOG] solve : 28 ms
noneompGKOBiCGStab:  Solving for p, Initial residual = 0.00856256, Final residual = 5.52555e-05, No Iterations 48
linear solve p 42
time step continuity errors : sum local = 4.96344e-08, global = 1.76286e-20, cumulative = -3.64416e-20
ExecutionTime = 2.43 s  ClockTime = 2 s

Time = 0.01

Courant Number mean: 0.0350919 max: 0.205643
nonePBiCGStab:  Solving for Ux, Initial residual = 0.0117309, Final residual = 2.19272e-06, No Iterations 5
nonePBiCGStab:  Solving for Uy, Initial residual = 0.0177061, Final residual = 3.13994e-06, No Iterations 5
nonePBiCGStab:  Solving for Uz, Initial residual = 0.0353987, Final residual = 1.58101e-05, No Iterations 5
linear solve U 5
[OGL LOG] init_host_sparsity_pattern : 4 ms
[OGL LOG] matrix not stored update host matrix
[OGL LOG] update_host_mtx : 2 ms
[OGL LOG] matrix is not yet sorted, sorting host matrix
[OGL LOG] sort_host_mtx_sparsity_pattern : 3 ms
[OGL LOG] sort_host_mtx : 1 ms
[OGL LOG] init_preconditioner : 0 ms
[OGL LOG] solve : 27 ms
noneompGKOBiCGStab:  Solving for p, Initial residual = 0.0105056, Final residual = 9.73736e-05, No Iterations 47
linear solve p 41
time step continuity errors : sum local = 1.24338e-07, global = -1.18026e-20, cumulative = -4.82442e-20
[OGL LOG] init_host_sparsity_pattern : 4 ms
[OGL LOG] matrix not stored update host matrix
[OGL LOG] update_host_mtx : 2 ms
[OGL LOG] matrix is not yet sorted, sorting host matrix
[OGL LOG] sort_host_mtx_sparsity_pattern : 3 ms
[OGL LOG] sort_host_mtx : 1 ms
[OGL LOG] init_preconditioner : 0 ms
[OGL LOG] solve : 27 ms
noneompGKOBiCGStab:  Solving for p, Initial residual = 0.0072583, Final residual = 9.09467e-05, No Iterations 45
linear solve p 41
time step continuity errors : sum local = 8.05293e-08, global = 2.17983e-21, cumulative = -4.60643e-20
ExecutionTime = 2.58 s  ClockTime = 2 s

End

