/*---------------------------------------------------------------------------*\
  =========                 |
  \\      /  F ield         | OpenFOAM: The Open Source CFD Toolbox
   \\    /   O peration     | Website:  https://openfoam.org
    \\  /    A nd           | Version:  8
     \\/     M anipulation  |
\*---------------------------------------------------------------------------*/
Build  : 8-40a5a48f630f
Exec   : icoFoam
Date   : Jul 27 2021
Time   : 21:34:50
Host   : "uc2n481.localdomain"
PID    : 91378
I/O    : uncollated
Case   : /pfs/data5/home/kit/scc/nq7776/code/OBR/lidDrivenCavity3D/Variation_mesh/5/Variation_matrix_solver/BiCGStab_NoPrecond_CUDA/base
nProcs : 1
sigFpe : Enabling floating point exception trapping (FOAM_SIGFPE).
fileModificationChecking : Monitoring run-time modified files using timeStampMaster (fileModificationSkew 10)
allowSystemOperations : Allowing user-supplied system call operations

// * * * * * * * * * * * * * * * * * * * * * * * * * * * * * * * * * * * * * //
Create time

Create mesh for time = 0

Reading transportProperties

Reading field p

Reading field U

Reading/calculating face flux field phi


Starting time loop

Time = 0.001

Courant Number mean: 0 max: 0
nonePBiCGStab:  Solving for Ux, Initial residual = 1, Final residual = 2.34893e-07, No Iterations 3
nonePBiCGStab:  Solving for Uy, Initial residual = 0, Final residual = 0, No Iterations 0
nonePBiCGStab:  Solving for Uz, Initial residual = 0, Final residual = 0, No Iterations 0
linear solve U 0
[OGL LOG] init_host_sparsity_pattern : 0 ms
[OGL LOG] matrix not stored update host matrix
[OGL LOG] update_host_mtx : 0 ms
[OGL LOG] matrix is not yet sorted, compute sorting idxs
[OGL LOG] compute_sort : 0 ms
[OGL LOG] matrix is not yet sorted, sorting host matrix
[OGL LOG] sort_host_mtx_sparsity_pattern : 0 ms
[OGL LOG] sort_host_mtx : 0 ms
[OGL LOG] init_preconditioner : 0 ms
[OGL LOG] solve : 8 ms
nonecudaGKOBiCGStab:  Solving for p, Initial residual = 1, Final residual = 7.38526e-05, No Iterations 23
linear solve p 764
time step continuity errors : sum local = 2.75901e-08, global = -3.27564e-21, cumulative = -3.27564e-21
[OGL LOG] init_host_sparsity_pattern : 0 ms
[OGL LOG] matrix not stored update host matrix
[OGL LOG] update_host_mtx : 0 ms
[OGL LOG] matrix is not yet sorted, sorting host matrix
[OGL LOG] sort_host_mtx_sparsity_pattern : 0 ms
[OGL LOG] sort_host_mtx : 0 ms
[OGL LOG] init_preconditioner : 0 ms
[OGL LOG] solve : 6 ms
nonecudaGKOBiCGStab:  Solving for p, Initial residual = 0.0545096, Final residual = 6.2311e-05, No Iterations 20
linear solve p 7
time step continuity errors : sum local = 4.64827e-08, global = -3.99115e-21, cumulative = -7.26678e-21
ExecutionTime = 0.79 s  ClockTime = 1 s

Time = 0.002

Courant Number mean: 0.000593169 max: 0.0013735
nonePBiCGStab:  Solving for Ux, Initial residual = 0.290561, Final residual = 5.20336e-07, No Iterations 3
nonePBiCGStab:  Solving for Uy, Initial residual = 0.317552, Final residual = 8.89475e-08, No Iterations 3
nonePBiCGStab:  Solving for Uz, Initial residual = 0.341861, Final residual = 5.63889e-07, No Iterations 3
linear solve U 0
[OGL LOG] init_host_sparsity_pattern : 0 ms
[OGL LOG] matrix not stored update host matrix
[OGL LOG] update_host_mtx : 0 ms
[OGL LOG] matrix is not yet sorted, sorting host matrix
[OGL LOG] sort_host_mtx_sparsity_pattern : 0 ms
[OGL LOG] sort_host_mtx : 0 ms
[OGL LOG] init_preconditioner : 0 ms
[OGL LOG] solve : 5 ms
nonecudaGKOBiCGStab:  Solving for p, Initial residual = 0.110324, Final residual = 9.79007e-05, No Iterations 18
linear solve p 6
time step continuity errors : sum local = 7.87097e-08, global = -4.58196e-21, cumulative = -1.18487e-20
[OGL LOG] init_host_sparsity_pattern : 0 ms
[OGL LOG] matrix not stored update host matrix
[OGL LOG] update_host_mtx : 0 ms
[OGL LOG] matrix is not yet sorted, sorting host matrix
[OGL LOG] sort_host_mtx_sparsity_pattern : 0 ms
[OGL LOG] sort_host_mtx : 0 ms
[OGL LOG] init_preconditioner : 0 ms
[OGL LOG] solve : 2 ms
nonecudaGKOBiCGStab:  Solving for p, Initial residual = 0.0028913, Final residual = 9.5312e-05, No Iterations 5
linear solve p 2
time step continuity errors : sum local = 7.51049e-08, global = 8.34956e-21, cumulative = -3.49918e-21
ExecutionTime = 0.8 s  ClockTime = 1 s

Time = 0.003

Courant Number mean: 0.00113048 max: 0.00263293
nonePBiCGStab:  Solving for Ux, Initial residual = 0.161956, Final residual = 2.72966e-07, No Iterations 3
nonePBiCGStab:  Solving for Uy, Initial residual = 0.186583, Final residual = 5.50553e-08, No Iterations 3
nonePBiCGStab:  Solving for Uz, Initial residual = 0.22463, Final residual = 1.3763e-07, No Iterations 3
linear solve U 0
[OGL LOG] init_host_sparsity_pattern : 0 ms
[OGL LOG] matrix not stored update host matrix
[OGL LOG] update_host_mtx : 0 ms
[OGL LOG] matrix is not yet sorted, sorting host matrix
[OGL LOG] sort_host_mtx_sparsity_pattern : 0 ms
[OGL LOG] sort_host_mtx : 0 ms
[OGL LOG] init_preconditioner : 0 ms
[OGL LOG] solve : 5 ms
nonecudaGKOBiCGStab:  Solving for p, Initial residual = 0.0561868, Final residual = 9.67164e-05, No Iterations 15
linear solve p 5
time step continuity errors : sum local = 9.09548e-08, global = -7.3069e-21, cumulative = -1.08061e-20
[OGL LOG] init_host_sparsity_pattern : 0 ms
[OGL LOG] matrix not stored update host matrix
[OGL LOG] update_host_mtx : 0 ms
[OGL LOG] matrix is not yet sorted, sorting host matrix
[OGL LOG] sort_host_mtx_sparsity_pattern : 0 ms
[OGL LOG] sort_host_mtx : 0 ms
[OGL LOG] init_preconditioner : 0 ms
[OGL LOG] solve : 1 ms
nonecudaGKOBiCGStab:  Solving for p, Initial residual = 0.00152774, Final residual = 9.66528e-05, No Iterations 4
linear solve p 2
time step continuity errors : sum local = 8.88373e-08, global = 2.23173e-21, cumulative = -8.57435e-21
ExecutionTime = 0.81 s  ClockTime = 1 s

Time = 0.004

Courant Number mean: 0.00161825 max: 0.00379119
nonePBiCGStab:  Solving for Ux, Initial residual = 0.108851, Final residual = 1.6954e-07, No Iterations 3
nonePBiCGStab:  Solving for Uy, Initial residual = 0.129127, Final residual = 8.08327e-07, No Iterations 2
nonePBiCGStab:  Solving for Uz, Initial residual = 0.173119, Final residual = 1.03883e-07, No Iterations 3
linear solve U 0
[OGL LOG] init_host_sparsity_pattern : 0 ms
[OGL LOG] matrix not stored update host matrix
[OGL LOG] update_host_mtx : 0 ms
[OGL LOG] matrix is not yet sorted, sorting host matrix
[OGL LOG] sort_host_mtx_sparsity_pattern : 0 ms
[OGL LOG] sort_host_mtx : 0 ms
[OGL LOG] init_preconditioner : 0 ms
[OGL LOG] solve : 5 ms
nonecudaGKOBiCGStab:  Solving for p, Initial residual = 0.0347131, Final residual = 7.31908e-05, No Iterations 16
linear solve p 5
time step continuity errors : sum local = 7.51475e-08, global = -4.00769e-21, cumulative = -1.2582e-20
[OGL LOG] init_host_sparsity_pattern : 0 ms
[OGL LOG] matrix not stored update host matrix
[OGL LOG] update_host_mtx : 0 ms
[OGL LOG] matrix is not yet sorted, sorting host matrix
[OGL LOG] sort_host_mtx_sparsity_pattern : 0 ms
[OGL LOG] sort_host_mtx : 0 ms
[OGL LOG] init_preconditioner : 0 ms
[OGL LOG] solve : 1 ms
nonecudaGKOBiCGStab:  Solving for p, Initial residual = 0.00100833, Final residual = 9.36658e-05, No Iterations 3
linear solve p 2
time step continuity errors : sum local = 8.24053e-08, global = -1.71309e-20, cumulative = -2.97129e-20
ExecutionTime = 0.82 s  ClockTime = 1 s

Time = 0.005

Courant Number mean: 0.0020619 max: 0.00485799
nonePBiCGStab:  Solving for Ux, Initial residual = 0.0800505, Final residual = 1.13823e-07, No Iterations 3
nonePBiCGStab:  Solving for Uy, Initial residual = 0.096707, Final residual = 5.81378e-07, No Iterations 2
nonePBiCGStab:  Solving for Uz, Initial residual = 0.141182, Final residual = 6.89257e-08, No Iterations 3
linear solve U 0
[OGL LOG] init_host_sparsity_pattern : 0 ms
[OGL LOG] matrix not stored update host matrix
[OGL LOG] update_host_mtx : 0 ms
[OGL LOG] matrix is not yet sorted, sorting host matrix
[OGL LOG] sort_host_mtx_sparsity_pattern : 0 ms
[OGL LOG] sort_host_mtx : 0 ms
[OGL LOG] init_preconditioner : 0 ms
[OGL LOG] solve : 4 ms
nonecudaGKOBiCGStab:  Solving for p, Initial residual = 0.0235639, Final residual = 9.89917e-05, No Iterations 14
linear solve p 5
time step continuity errors : sum local = 1.07454e-07, global = 2.53117e-22, cumulative = -2.94598e-20
[OGL LOG] init_host_sparsity_pattern : 0 ms
[OGL LOG] matrix not stored update host matrix
[OGL LOG] update_host_mtx : 0 ms
[OGL LOG] matrix is not yet sorted, sorting host matrix
[OGL LOG] sort_host_mtx_sparsity_pattern : 0 ms
[OGL LOG] sort_host_mtx : 0 ms
[OGL LOG] init_preconditioner : 0 ms
[OGL LOG] solve : 1 ms
nonecudaGKOBiCGStab:  Solving for p, Initial residual = 0.000756513, Final residual = 9.71857e-05, No Iterations 4
linear solve p 2
time step continuity errors : sum local = 1.02914e-07, global = -3.08373e-21, cumulative = -3.25436e-20
ExecutionTime = 0.83 s  ClockTime = 1 s

Time = 0.006

Courant Number mean: 0.0024662 max: 0.00584197
nonePBiCGStab:  Solving for Ux, Initial residual = 0.0620523, Final residual = 8.00167e-08, No Iterations 3
nonePBiCGStab:  Solving for Uy, Initial residual = 0.0759702, Final residual = 4.33777e-07, No Iterations 2
nonePBiCGStab:  Solving for Uz, Initial residual = 0.11772, Final residual = 9.95775e-07, No Iterations 2
linear solve U 0
[OGL LOG] init_host_sparsity_pattern : 0 ms
[OGL LOG] matrix not stored update host matrix
[OGL LOG] update_host_mtx : 0 ms
[OGL LOG] matrix is not yet sorted, sorting host matrix
[OGL LOG] sort_host_mtx_sparsity_pattern : 0 ms
[OGL LOG] sort_host_mtx : 0 ms
[OGL LOG] init_preconditioner : 0 ms
[OGL LOG] solve : 5 ms
nonecudaGKOBiCGStab:  Solving for p, Initial residual = 0.017257, Final residual = 7.27809e-05, No Iterations 16
linear solve p 5
time step continuity errors : sum local = 8.19027e-08, global = -2.34042e-20, cumulative = -5.59478e-20
[OGL LOG] init_host_sparsity_pattern : 0 ms
[OGL LOG] matrix not stored update host matrix
[OGL LOG] update_host_mtx : 0 ms
[OGL LOG] matrix is not yet sorted, sorting host matrix
[OGL LOG] sort_host_mtx_sparsity_pattern : 0 ms
[OGL LOG] sort_host_mtx : 0 ms
[OGL LOG] init_preconditioner : 0 ms
[OGL LOG] solve : 1 ms
nonecudaGKOBiCGStab:  Solving for p, Initial residual = 0.000606983, Final residual = 7.56965e-05, No Iterations 3
linear solve p 2
time step continuity errors : sum local = 7.79228e-08, global = -1.45501e-20, cumulative = -7.04979e-20
ExecutionTime = 0.83 s  ClockTime = 1 s

Time = 0.007

Courant Number mean: 0.00283513 max: 0.00675071
nonePBiCGStab:  Solving for Ux, Initial residual = 0.049768, Final residual = 9.31972e-07, No Iterations 2
nonePBiCGStab:  Solving for Uy, Initial residual = 0.0616553, Final residual = 3.31718e-07, No Iterations 2
nonePBiCGStab:  Solving for Uz, Initial residual = 0.100341, Final residual = 8.302e-07, No Iterations 2
linear solve U 0
[OGL LOG] init_host_sparsity_pattern : 0 ms
[OGL LOG] matrix not stored update host matrix
[OGL LOG] update_host_mtx : 0 ms
[OGL LOG] matrix is not yet sorted, sorting host matrix
[OGL LOG] sort_host_mtx_sparsity_pattern : 0 ms
[OGL LOG] sort_host_mtx : 0 ms
[OGL LOG] init_preconditioner : 0 ms
[OGL LOG] solve : 4 ms
nonecudaGKOBiCGStab:  Solving for p, Initial residual = 0.0132832, Final residual = 9.85057e-05, No Iterations 14
linear solve p 5
time step continuity errors : sum local = 1.143e-07, global = -1.3172e-20, cumulative = -8.36699e-20
[OGL LOG] init_host_sparsity_pattern : 0 ms
[OGL LOG] matrix not stored update host matrix
[OGL LOG] update_host_mtx : 0 ms
[OGL LOG] matrix is not yet sorted, sorting host matrix
[OGL LOG] sort_host_mtx_sparsity_pattern : 0 ms
[OGL LOG] sort_host_mtx : 0 ms
[OGL LOG] init_preconditioner : 0 ms
[OGL LOG] solve : 1 ms
nonecudaGKOBiCGStab:  Solving for p, Initial residual = 0.000516005, Final residual = 9.39729e-05, No Iterations 3
linear solve p 2
time step continuity errors : sum local = 1.06617e-07, global = 1.62508e-20, cumulative = -6.74191e-20
ExecutionTime = 0.84 s  ClockTime = 1 s

Time = 0.008

Courant Number mean: 0.00317234 max: 0.00759081
nonePBiCGStab:  Solving for Ux, Initial residual = 0.0409139, Final residual = 7.07909e-07, No Iterations 2
nonePBiCGStab:  Solving for Uy, Initial residual = 0.0511998, Final residual = 2.59041e-07, No Iterations 2
nonePBiCGStab:  Solving for Uz, Initial residual = 0.0869858, Final residual = 6.95682e-07, No Iterations 2
linear solve U 0
[OGL LOG] init_host_sparsity_pattern : 0 ms
[OGL LOG] matrix not stored update host matrix
[OGL LOG] update_host_mtx : 0 ms
[OGL LOG] matrix is not yet sorted, sorting host matrix
[OGL LOG] sort_host_mtx_sparsity_pattern : 0 ms
[OGL LOG] sort_host_mtx : 0 ms
[OGL LOG] init_preconditioner : 0 ms
[OGL LOG] solve : 5 ms
nonecudaGKOBiCGStab:  Solving for p, Initial residual = 0.0106207, Final residual = 9.24229e-05, No Iterations 15
linear solve p 5
time step continuity errors : sum local = 1.09839e-07, global = -2.81771e-20, cumulative = -9.55962e-20
[OGL LOG] init_host_sparsity_pattern : 0 ms
[OGL LOG] matrix not stored update host matrix
[OGL LOG] update_host_mtx : 0 ms
[OGL LOG] matrix is not yet sorted, sorting host matrix
[OGL LOG] sort_host_mtx_sparsity_pattern : 0 ms
[OGL LOG] sort_host_mtx : 0 ms
[OGL LOG] init_preconditioner : 0 ms
[OGL LOG] solve : 1 ms
nonecudaGKOBiCGStab:  Solving for p, Initial residual = 0.000464008, Final residual = 9.54231e-05, No Iterations 3
linear solve p 1
time step continuity errors : sum local = 1.06199e-07, global = -1.76057e-20, cumulative = -1.13202e-19
ExecutionTime = 0.85 s  ClockTime = 1 s

Time = 0.009

Courant Number mean: 0.00348093 max: 0.00836828
nonePBiCGStab:  Solving for Ux, Initial residual = 0.0342331, Final residual = 5.43641e-07, No Iterations 2
nonePBiCGStab:  Solving for Uy, Initial residual = 0.0432951, Final residual = 2.05011e-07, No Iterations 2
nonePBiCGStab:  Solving for Uz, Initial residual = 0.0758045, Final residual = 5.74676e-07, No Iterations 2
linear solve U 0
[OGL LOG] init_host_sparsity_pattern : 0 ms
[OGL LOG] matrix not stored update host matrix
[OGL LOG] update_host_mtx : 0 ms
[OGL LOG] matrix is not yet sorted, sorting host matrix
[OGL LOG] sort_host_mtx_sparsity_pattern : 0 ms
[OGL LOG] sort_host_mtx : 0 ms
[OGL LOG] init_preconditioner : 0 ms
[OGL LOG] solve : 5 ms
nonecudaGKOBiCGStab:  Solving for p, Initial residual = 0.00873174, Final residual = 8.23333e-05, No Iterations 15
linear solve p 5
time step continuity errors : sum local = 9.95947e-08, global = 1.26989e-20, cumulative = -1.00503e-19
[OGL LOG] init_host_sparsity_pattern : 0 ms
[OGL LOG] matrix not stored update host matrix
[OGL LOG] update_host_mtx : 0 ms
[OGL LOG] matrix is not yet sorted, sorting host matrix
[OGL LOG] sort_host_mtx_sparsity_pattern : 0 ms
[OGL LOG] sort_host_mtx : 0 ms
[OGL LOG] init_preconditioner : 0 ms
[OGL LOG] solve : 1 ms
nonecudaGKOBiCGStab:  Solving for p, Initial residual = 0.000417256, Final residual = 8.46711e-05, No Iterations 3
linear solve p 1
time step continuity errors : sum local = 9.60544e-08, global = -5.97224e-21, cumulative = -1.06475e-19
ExecutionTime = 0.86 s  ClockTime = 1 s

Time = 0.01

Courant Number mean: 0.00376373 max: 0.00908825
nonePBiCGStab:  Solving for Ux, Initial residual = 0.0290517, Final residual = 4.21013e-07, No Iterations 2
nonePBiCGStab:  Solving for Uy, Initial residual = 0.0371211, Final residual = 1.64372e-07, No Iterations 2
nonePBiCGStab:  Solving for Uz, Initial residual = 0.0677638, Final residual = 5.08303e-07, No Iterations 2
linear solve U 0
[OGL LOG] init_host_sparsity_pattern : 0 ms
[OGL LOG] matrix not stored update host matrix
[OGL LOG] update_host_mtx : 0 ms
[OGL LOG] matrix is not yet sorted, sorting host matrix
[OGL LOG] sort_host_mtx_sparsity_pattern : 0 ms
[OGL LOG] sort_host_mtx : 0 ms
[OGL LOG] init_preconditioner : 0 ms
[OGL LOG] solve : 4 ms
nonecudaGKOBiCGStab:  Solving for p, Initial residual = 0.00733489, Final residual = 9.73067e-05, No Iterations 14
linear solve p 5
time step continuity errors : sum local = 1.19349e-07, global = -1.13786e-20, cumulative = -1.17854e-19
[OGL LOG] init_host_sparsity_pattern : 0 ms
[OGL LOG] matrix not stored update host matrix
[OGL LOG] update_host_mtx : 0 ms
[OGL LOG] matrix is not yet sorted, sorting host matrix
[OGL LOG] sort_host_mtx_sparsity_pattern : 0 ms
[OGL LOG] sort_host_mtx : 0 ms
[OGL LOG] init_preconditioner : 0 ms
[OGL LOG] solve : 1 ms
nonecudaGKOBiCGStab:  Solving for p, Initial residual = 0.000386033, Final residual = 9.31658e-05, No Iterations 3
linear solve p 1
time step continuity errors : sum local = 1.12339e-07, global = 9.30072e-21, cumulative = -1.08553e-19
ExecutionTime = 0.86 s  ClockTime = 1 s

End

