/*---------------------------------------------------------------------------*\
  =========                 |
  \\      /  F ield         | OpenFOAM: The Open Source CFD Toolbox
   \\    /   O peration     | Website:  https://openfoam.org
    \\  /    A nd           | Version:  8
     \\/     M anipulation  |
\*---------------------------------------------------------------------------*/
Build  : 8-40a5a48f630f
Exec   : icoFoam
Date   : Jul 28 2021
Time   : 02:07:46
Host   : "uc2n462.localdomain"
PID    : 3687010
I/O    : uncollated
Case   : /pfs/data5/home/kit/scc/nq7776/code/OBR/lidDrivenCavity3D/Variation_mesh/25/Variation_matrix_solver/CG_NoPrecond_OMP/base
nProcs : 1
sigFpe : Enabling floating point exception trapping (FOAM_SIGFPE).
fileModificationChecking : Monitoring run-time modified files using timeStampMaster (fileModificationSkew 10)
allowSystemOperations : Allowing user-supplied system call operations

// * * * * * * * * * * * * * * * * * * * * * * * * * * * * * * * * * * * * * //
Create time

Create mesh for time = 0

Reading transportProperties

Reading field p

Reading field U

Reading/calculating face flux field phi


Starting time loop

Time = 0.001

Courant Number mean: 0 max: 0
nonePBiCGStab:  Solving for Ux, Initial residual = 1, Final residual = 0.00310183, No Iterations 5
nonePBiCGStab:  Solving for Uy, Initial residual = 0, Final residual = 0, No Iterations 0
nonePBiCGStab:  Solving for Uz, Initial residual = 0, Final residual = 0, No Iterations 0
linear solve U 3
[OGL LOG] init_host_sparsity_pattern : 4 ms
[OGL LOG] matrix not stored update host matrix
[OGL LOG] update_host_mtx : 2 ms
[OGL LOG] matrix is not yet sorted, compute sorting idxs
[OGL LOG] compute_sort : 106 ms
[OGL LOG] matrix is not yet sorted, sorting host matrix
[OGL LOG] sort_host_mtx_sparsity_pattern : 3 ms
[OGL LOG] sort_host_mtx : 1 ms
[OGL LOG] init_preconditioner : 0 ms
[OGL LOG] solve : 48 ms
noneompGKOCG:  Solving for p, Initial residual = 1, Final residual = 9.37899e-05, No Iterations 191
linear solve p 180
time step continuity errors : sum local = 4.79627e-08, global = -1.7248e-20, cumulative = -1.7248e-20
[OGL LOG] init_host_sparsity_pattern : 4 ms
[OGL LOG] matrix not stored update host matrix
[OGL LOG] update_host_mtx : 2 ms
[OGL LOG] matrix is not yet sorted, sorting host matrix
[OGL LOG] sort_host_mtx_sparsity_pattern : 3 ms
[OGL LOG] sort_host_mtx : 1 ms
[OGL LOG] init_preconditioner : 0 ms
[OGL LOG] solve : 46 ms
noneompGKOCG:  Solving for p, Initial residual = 0.480526, Final residual = 8.54608e-05, No Iterations 187
linear solve p 60
time step continuity errors : sum local = 7.06718e-08, global = 4.95017e-21, cumulative = -1.22978e-20
ExecutionTime = 2.4 s  ClockTime = 1 s

Time = 0.002

Courant Number mean: 0.01197 max: 0.106554
nonePBiCGStab:  Solving for Ux, Initial residual = 0.210695, Final residual = 0.000695049, No Iterations 5
nonePBiCGStab:  Solving for Uy, Initial residual = 0.284647, Final residual = 0.000644148, No Iterations 5
nonePBiCGStab:  Solving for Uz, Initial residual = 0.89022, Final residual = 0.00332684, No Iterations 5
linear solve U 6
[OGL LOG] init_host_sparsity_pattern : 4 ms
[OGL LOG] matrix not stored update host matrix
[OGL LOG] update_host_mtx : 2 ms
[OGL LOG] matrix is not yet sorted, sorting host matrix
[OGL LOG] sort_host_mtx_sparsity_pattern : 3 ms
[OGL LOG] sort_host_mtx : 1 ms
[OGL LOG] init_preconditioner : 0 ms
[OGL LOG] solve : 45 ms
noneompGKOCG:  Solving for p, Initial residual = 0.285782, Final residual = 9.6209e-05, No Iterations 183
linear solve p 59
time step continuity errors : sum local = 7.45797e-08, global = -2.8332e-21, cumulative = -1.5131e-20
[OGL LOG] init_host_sparsity_pattern : 4 ms
[OGL LOG] matrix not stored update host matrix
[OGL LOG] update_host_mtx : 2 ms
[OGL LOG] matrix is not yet sorted, sorting host matrix
[OGL LOG] sort_host_mtx_sparsity_pattern : 3 ms
[OGL LOG] sort_host_mtx : 1 ms
[OGL LOG] init_preconditioner : 0 ms
[OGL LOG] solve : 43 ms
noneompGKOCG:  Solving for p, Initial residual = 0.189101, Final residual = 9.79949e-05, No Iterations 179
linear solve p 57
time step continuity errors : sum local = 8.06018e-08, global = -8.9823e-21, cumulative = -2.41133e-20
ExecutionTime = 4.41 s  ClockTime = 1 s

Time = 0.003

Courant Number mean: 0.0188463 max: 0.153562
nonePBiCGStab:  Solving for Ux, Initial residual = 0.0901229, Final residual = 0.000292361, No Iterations 5
nonePBiCGStab:  Solving for Uy, Initial residual = 0.124564, Final residual = 0.000198161, No Iterations 5
nonePBiCGStab:  Solving for Uz, Initial residual = 0.251702, Final residual = 0.000636706, No Iterations 5
linear solve U 6
[OGL LOG] init_host_sparsity_pattern : 4 ms
[OGL LOG] matrix not stored update host matrix
[OGL LOG] update_host_mtx : 2 ms
[OGL LOG] matrix is not yet sorted, sorting host matrix
[OGL LOG] sort_host_mtx_sparsity_pattern : 3 ms
[OGL LOG] sort_host_mtx : 1 ms
[OGL LOG] init_preconditioner : 0 ms
[OGL LOG] solve : 43 ms
noneompGKOCG:  Solving for p, Initial residual = 0.101977, Final residual = 9.42096e-05, No Iterations 175
linear solve p 56
time step continuity errors : sum local = 7.28591e-08, global = 1.18131e-20, cumulative = -1.23002e-20
[OGL LOG] init_host_sparsity_pattern : 4 ms
[OGL LOG] matrix not stored update host matrix
[OGL LOG] update_host_mtx : 2 ms
[OGL LOG] matrix is not yet sorted, sorting host matrix
[OGL LOG] sort_host_mtx_sparsity_pattern : 3 ms
[OGL LOG] sort_host_mtx : 1 ms
[OGL LOG] init_preconditioner : 0 ms
[OGL LOG] solve : 41 ms
noneompGKOCG:  Solving for p, Initial residual = 0.069482, Final residual = 9.40247e-05, No Iterations 170
linear solve p 55
time step continuity errors : sum local = 7.48202e-08, global = 1.90613e-20, cumulative = 6.76105e-21
ExecutionTime = 6.34 s  ClockTime = 1 s

Time = 0.004

Courant Number mean: 0.0233146 max: 0.175119
nonePBiCGStab:  Solving for Ux, Initial residual = 0.0520909, Final residual = 0.000102882, No Iterations 5
nonePBiCGStab:  Solving for Uy, Initial residual = 0.0743229, Final residual = 6.93e-05, No Iterations 5
nonePBiCGStab:  Solving for Uz, Initial residual = 0.129589, Final residual = 0.0002195, No Iterations 5
linear solve U 6
[OGL LOG] init_host_sparsity_pattern : 4 ms
[OGL LOG] matrix not stored update host matrix
[OGL LOG] update_host_mtx : 2 ms
[OGL LOG] matrix is not yet sorted, sorting host matrix
[OGL LOG] sort_host_mtx_sparsity_pattern : 3 ms
[OGL LOG] sort_host_mtx : 1 ms
[OGL LOG] init_preconditioner : 0 ms
[OGL LOG] solve : 42 ms
noneompGKOCG:  Solving for p, Initial residual = 0.0551884, Final residual = 9.21462e-05, No Iterations 170
linear solve p 55
time step continuity errors : sum local = 7.32381e-08, global = 2.07241e-20, cumulative = 2.74851e-20
[OGL LOG] init_host_sparsity_pattern : 4 ms
[OGL LOG] matrix not stored update host matrix
[OGL LOG] update_host_mtx : 2 ms
[OGL LOG] matrix is not yet sorted, sorting host matrix
[OGL LOG] sort_host_mtx_sparsity_pattern : 3 ms
[OGL LOG] sort_host_mtx : 1 ms
[OGL LOG] init_preconditioner : 0 ms
[OGL LOG] solve : 41 ms
noneompGKOCG:  Solving for p, Initial residual = 0.0370386, Final residual = 9.08432e-05, No Iterations 166
linear solve p 55
time step continuity errors : sum local = 7.36865e-08, global = 1.1664e-20, cumulative = 3.91491e-20
ExecutionTime = 8.25 s  ClockTime = 1 s

Time = 0.005

Courant Number mean: 0.026494 max: 0.186504
nonePBiCGStab:  Solving for Ux, Initial residual = 0.0351737, Final residual = 3.75571e-05, No Iterations 5
nonePBiCGStab:  Solving for Uy, Initial residual = 0.050774, Final residual = 2.20224e-05, No Iterations 5
nonePBiCGStab:  Solving for Uz, Initial residual = 0.0911227, Final residual = 0.000119546, No Iterations 5
linear solve U 6
[OGL LOG] init_host_sparsity_pattern : 4 ms
[OGL LOG] matrix not stored update host matrix
[OGL LOG] update_host_mtx : 2 ms
[OGL LOG] matrix is not yet sorted, sorting host matrix
[OGL LOG] sort_host_mtx_sparsity_pattern : 3 ms
[OGL LOG] sort_host_mtx : 1 ms
[OGL LOG] init_preconditioner : 0 ms
[OGL LOG] solve : 42 ms
noneompGKOCG:  Solving for p, Initial residual = 0.0348579, Final residual = 9.28889e-05, No Iterations 167
linear solve p 55
time step continuity errors : sum local = 7.57878e-08, global = -1.25601e-20, cumulative = 2.6589e-20
[OGL LOG] init_host_sparsity_pattern : 4 ms
[OGL LOG] matrix not stored update host matrix
[OGL LOG] update_host_mtx : 2 ms
[OGL LOG] matrix is not yet sorted, sorting host matrix
[OGL LOG] sort_host_mtx_sparsity_pattern : 3 ms
[OGL LOG] sort_host_mtx : 1 ms
[OGL LOG] init_preconditioner : 0 ms
[OGL LOG] solve : 39 ms
noneompGKOCG:  Solving for p, Initial residual = 0.0230736, Final residual = 9.01325e-05, No Iterations 164
linear solve p 53
time step continuity errors : sum local = 7.44481e-08, global = -2.20411e-20, cumulative = 4.54787e-21
ExecutionTime = 10.12 s  ClockTime = 1 s

Time = 0.006

Courant Number mean: 0.0288956 max: 0.193336
nonePBiCGStab:  Solving for Ux, Initial residual = 0.0259745, Final residual = 1.33446e-05, No Iterations 5
nonePBiCGStab:  Solving for Uy, Initial residual = 0.0379623, Final residual = 1.54528e-05, No Iterations 5
nonePBiCGStab:  Solving for Uz, Initial residual = 0.0705706, Final residual = 7.04365e-05, No Iterations 5
linear solve U 6
[OGL LOG] init_host_sparsity_pattern : 4 ms
[OGL LOG] matrix not stored update host matrix
[OGL LOG] update_host_mtx : 2 ms
[OGL LOG] matrix is not yet sorted, sorting host matrix
[OGL LOG] sort_host_mtx_sparsity_pattern : 3 ms
[OGL LOG] sort_host_mtx : 1 ms
[OGL LOG] init_preconditioner : 0 ms
[OGL LOG] solve : 40 ms
noneompGKOCG:  Solving for p, Initial residual = 0.0243393, Final residual = 8.69618e-05, No Iterations 166
linear solve p 53
time step continuity errors : sum local = 7.22115e-08, global = -3.94436e-21, cumulative = 6.03515e-22
[OGL LOG] init_host_sparsity_pattern : 4 ms
[OGL LOG] matrix not stored update host matrix
[OGL LOG] update_host_mtx : 2 ms
[OGL LOG] matrix is not yet sorted, sorting host matrix
[OGL LOG] sort_host_mtx_sparsity_pattern : 3 ms
[OGL LOG] sort_host_mtx : 1 ms
[OGL LOG] init_preconditioner : 0 ms
[OGL LOG] solve : 38 ms
noneompGKOCG:  Solving for p, Initial residual = 0.0162727, Final residual = 8.61924e-05, No Iterations 162
linear solve p 52
time step continuity errors : sum local = 7.2143e-08, global = -1.53775e-20, cumulative = -1.4774e-20
ExecutionTime = 11.93 s  ClockTime = 1 s

Time = 0.007

Courant Number mean: 0.0308312 max: 0.197891
nonePBiCGStab:  Solving for Ux, Initial residual = 0.0203866, Final residual = 6.63096e-06, No Iterations 5
nonePBiCGStab:  Solving for Uy, Initial residual = 0.0299963, Final residual = 9.38955e-06, No Iterations 5
nonePBiCGStab:  Solving for Uz, Initial residual = 0.0572779, Final residual = 4.11174e-05, No Iterations 5
linear solve U 6
[OGL LOG] init_host_sparsity_pattern : 4 ms
[OGL LOG] matrix not stored update host matrix
[OGL LOG] update_host_mtx : 2 ms
[OGL LOG] matrix is not yet sorted, sorting host matrix
[OGL LOG] sort_host_mtx_sparsity_pattern : 3 ms
[OGL LOG] sort_host_mtx : 1 ms
[OGL LOG] init_preconditioner : 0 ms
[OGL LOG] solve : 18 ms
noneompGKOCG:  Solving for p, Initial residual = 0.0185583, Final residual = 9.92143e-05, No Iterations 78
linear solve p 31
time step continuity errors : sum local = 1.05543e-07, global = -2.01106e-20, cumulative = -3.48847e-20
[OGL LOG] init_host_sparsity_pattern : 4 ms
[OGL LOG] matrix not stored update host matrix
[OGL LOG] update_host_mtx : 2 ms
[OGL LOG] matrix is not yet sorted, sorting host matrix
[OGL LOG] sort_host_mtx_sparsity_pattern : 3 ms
[OGL LOG] sort_host_mtx : 1 ms
[OGL LOG] init_preconditioner : 0 ms
[OGL LOG] solve : 17 ms
noneompGKOCG:  Solving for p, Initial residual = 0.0125558, Final residual = 8.83315e-05, No Iterations 71
linear solve p 30
time step continuity errors : sum local = 8.40664e-08, global = 6.78671e-21, cumulative = -2.80979e-20
ExecutionTime = 12.85 s  ClockTime = 2 s

Time = 0.008

Courant Number mean: 0.0324768 max: 0.201172
nonePBiCGStab:  Solving for Ux, Initial residual = 0.0165464, Final residual = 5.022e-06, No Iterations 5
nonePBiCGStab:  Solving for Uy, Initial residual = 0.024589, Final residual = 6.33911e-06, No Iterations 5
nonePBiCGStab:  Solving for Uz, Initial residual = 0.0478318, Final residual = 3.28452e-05, No Iterations 5
linear solve U 6
[OGL LOG] init_host_sparsity_pattern : 4 ms
[OGL LOG] matrix not stored update host matrix
[OGL LOG] update_host_mtx : 2 ms
[OGL LOG] matrix is not yet sorted, sorting host matrix
[OGL LOG] sort_host_mtx_sparsity_pattern : 3 ms
[OGL LOG] sort_host_mtx : 1 ms
[OGL LOG] init_preconditioner : 0 ms
[OGL LOG] solve : 18 ms
noneompGKOCG:  Solving for p, Initial residual = 0.0149058, Final residual = 9.75867e-05, No Iterations 74
linear solve p 31
time step continuity errors : sum local = 1.05942e-07, global = 1.35655e-20, cumulative = -1.45324e-20
[OGL LOG] init_host_sparsity_pattern : 4 ms
[OGL LOG] matrix not stored update host matrix
[OGL LOG] update_host_mtx : 2 ms
[OGL LOG] matrix is not yet sorted, sorting host matrix
[OGL LOG] sort_host_mtx_sparsity_pattern : 3 ms
[OGL LOG] sort_host_mtx : 1 ms
[OGL LOG] init_preconditioner : 0 ms
[OGL LOG] solve : 16 ms
noneompGKOCG:  Solving for p, Initial residual = 0.0101493, Final residual = 9.44303e-05, No Iterations 69
linear solve p 30
time step continuity errors : sum local = 9.49226e-08, global = -1.77769e-20, cumulative = -3.23094e-20
ExecutionTime = 13.79 s  ClockTime = 2 s

Time = 0.009

Courant Number mean: 0.033881 max: 0.203668
nonePBiCGStab:  Solving for Ux, Initial residual = 0.0138064, Final residual = 3.22671e-06, No Iterations 5
nonePBiCGStab:  Solving for Uy, Initial residual = 0.0206663, Final residual = 4.16846e-06, No Iterations 5
nonePBiCGStab:  Solving for Uz, Initial residual = 0.0407253, Final residual = 2.11707e-05, No Iterations 5
linear solve U 5
[OGL LOG] init_host_sparsity_pattern : 4 ms
[OGL LOG] matrix not stored update host matrix
[OGL LOG] update_host_mtx : 2 ms
[OGL LOG] matrix is not yet sorted, sorting host matrix
[OGL LOG] sort_host_mtx_sparsity_pattern : 3 ms
[OGL LOG] sort_host_mtx : 1 ms
[OGL LOG] init_preconditioner : 0 ms
[OGL LOG] solve : 17 ms
noneompGKOCG:  Solving for p, Initial residual = 0.0123407, Final residual = 9.94811e-05, No Iterations 73
linear solve p 30
time step continuity errors : sum local = 1.10801e-07, global = -1.43281e-20, cumulative = -4.66375e-20
[OGL LOG] init_host_sparsity_pattern : 4 ms
[OGL LOG] matrix not stored update host matrix
[OGL LOG] update_host_mtx : 2 ms
[OGL LOG] matrix is not yet sorted, sorting host matrix
[OGL LOG] sort_host_mtx_sparsity_pattern : 3 ms
[OGL LOG] sort_host_mtx : 1 ms
[OGL LOG] init_preconditioner : 0 ms
[OGL LOG] solve : 16 ms
noneompGKOCG:  Solving for p, Initial residual = 0.00845519, Final residual = 9.53615e-05, No Iterations 68
linear solve p 30
time step continuity errors : sum local = 1.00334e-07, global = -1.47202e-20, cumulative = -6.13577e-20
ExecutionTime = 14.69 s  ClockTime = 2 s

Time = 0.01

Courant Number mean: 0.0350922 max: 0.205643
nonePBiCGStab:  Solving for Ux, Initial residual = 0.011739, Final residual = 2.26057e-06, No Iterations 5
nonePBiCGStab:  Solving for Uy, Initial residual = 0.0176903, Final residual = 3.0798e-06, No Iterations 5
nonePBiCGStab:  Solving for Uz, Initial residual = 0.0352163, Final residual = 1.63274e-05, No Iterations 5
linear solve U 6
[OGL LOG] init_host_sparsity_pattern : 4 ms
[OGL LOG] matrix not stored update host matrix
[OGL LOG] update_host_mtx : 2 ms
[OGL LOG] matrix is not yet sorted, sorting host matrix
[OGL LOG] sort_host_mtx_sparsity_pattern : 3 ms
[OGL LOG] sort_host_mtx : 1 ms
[OGL LOG] init_preconditioner : 0 ms
[OGL LOG] solve : 17 ms
noneompGKOCG:  Solving for p, Initial residual = 0.0104186, Final residual = 9.99368e-05, No Iterations 72
linear solve p 30
time step continuity errors : sum local = 1.13728e-07, global = -3.97883e-20, cumulative = -1.01146e-19
[OGL LOG] init_host_sparsity_pattern : 4 ms
[OGL LOG] matrix not stored update host matrix
[OGL LOG] update_host_mtx : 2 ms
[OGL LOG] matrix is not yet sorted, sorting host matrix
[OGL LOG] sort_host_mtx_sparsity_pattern : 3 ms
[OGL LOG] sort_host_mtx : 1 ms
[OGL LOG] init_preconditioner : 0 ms
[OGL LOG] solve : 16 ms
noneompGKOCG:  Solving for p, Initial residual = 0.00717633, Final residual = 9.9643e-05, No Iterations 67
linear solve p 30
time step continuity errors : sum local = 1.07726e-07, global = -3.44577e-20, cumulative = -1.35604e-19
ExecutionTime = 15.58 s  ClockTime = 2 s

End

