/*---------------------------------------------------------------------------*\
  =========                 |
  \\      /  F ield         | OpenFOAM: The Open Source CFD Toolbox
   \\    /   O peration     | Website:  https://openfoam.org
    \\  /    A nd           | Version:  8
     \\/     M anipulation  |
\*---------------------------------------------------------------------------*/
Build  : 8-40a5a48f630f
Exec   : icoFoam
Date   : Jul 27 2021
Time   : 23:10:10
Host   : "uc2n481.localdomain"
PID    : 178790
I/O    : uncollated
Case   : /pfs/data5/home/kit/scc/nq7776/code/OBR/lidDrivenCavity3D/Variation_mesh/50/Variation_matrix_solver/CG_BJ_CUDA/base
nProcs : 1
sigFpe : Enabling floating point exception trapping (FOAM_SIGFPE).
fileModificationChecking : Monitoring run-time modified files using timeStampMaster (fileModificationSkew 10)
allowSystemOperations : Allowing user-supplied system call operations

// * * * * * * * * * * * * * * * * * * * * * * * * * * * * * * * * * * * * * //
Create time

Create mesh for time = 0

Reading transportProperties

Reading field p

Reading field U

Reading/calculating face flux field phi


Starting time loop

Time = 0.001

Courant Number mean: 0 max: 0
nonePBiCGStab:  Solving for Ux, Initial residual = 1, Final residual = 0.0338394, No Iterations 5
nonePBiCGStab:  Solving for Uy, Initial residual = 0, Final residual = 0, No Iterations 0
nonePBiCGStab:  Solving for Uz, Initial residual = 0, Final residual = 0, No Iterations 0
linear solve U 31
[OGL LOG] init_host_sparsity_pattern : 34 ms
[OGL LOG] matrix not stored update host matrix
[OGL LOG] update_host_mtx : 18 ms
[OGL LOG] matrix is not yet sorted, compute sorting idxs
[OGL LOG] compute_sort : 1013 ms
[OGL LOG] matrix is not yet sorted, sorting host matrix
[OGL LOG] sort_host_mtx_sparsity_pattern : 25 ms
[OGL LOG] sort_host_mtx : 12 ms
[OGL LOG] init_preconditioner : 16 ms
 CG create  precond 
[OGL LOG] solve : 68 ms
BJcudaGKOCG:  Solving for p, Initial residual = 1, Final residual = 9.8872e-05, No Iterations 331
linear solve p 1971
time step continuity errors : sum local = 5.16595e-08, global = 7.80628e-21, cumulative = 7.80628e-21
[OGL LOG] init_host_sparsity_pattern : 34 ms
[OGL LOG] matrix not stored update host matrix
[OGL LOG] update_host_mtx : 18 ms
[OGL LOG] matrix is not yet sorted, sorting host matrix
[OGL LOG] sort_host_mtx_sparsity_pattern : 25 ms
[OGL LOG] sort_host_mtx : 12 ms
[OGL LOG] init_preconditioner : 0 ms
 CG create  precond 
[OGL LOG] solve : 60 ms
BJcudaGKOCG:  Solving for p, Initial residual = 0.639093, Final residual = 9.86727e-05, No Iterations 311
linear solve p 160
time step continuity errors : sum local = 7.51408e-08, global = -3.09963e-21, cumulative = 4.70666e-21
ExecutionTime = 2.68 s  ClockTime = 3 s

Time = 0.002

Courant Number mean: 0.0262808 max: 0.328896
nonePBiCGStab:  Solving for Ux, Initial residual = 0.164689, Final residual = 0.0120168, No Iterations 5
nonePBiCGStab:  Solving for Uy, Initial residual = 0.322485, Final residual = 0.0187817, No Iterations 5
nonePBiCGStab:  Solving for Uz, Initial residual = 0.970709, Final residual = 0.0788856, No Iterations 5
linear solve U 62
[OGL LOG] init_host_sparsity_pattern : 34 ms
[OGL LOG] matrix not stored update host matrix
[OGL LOG] update_host_mtx : 16 ms
[OGL LOG] matrix is not yet sorted, sorting host matrix
[OGL LOG] sort_host_mtx_sparsity_pattern : 23 ms
[OGL LOG] sort_host_mtx : 12 ms
[OGL LOG] init_preconditioner : 0 ms
 CG create  precond 
[OGL LOG] solve : 61 ms
BJcudaGKOCG:  Solving for p, Initial residual = 0.548811, Final residual = 9.41021e-05, No Iterations 307
linear solve p 157
time step continuity errors : sum local = 7.61949e-08, global = -2.56578e-20, cumulative = -2.09512e-20
[OGL LOG] init_host_sparsity_pattern : 33 ms
[OGL LOG] matrix not stored update host matrix
[OGL LOG] update_host_mtx : 16 ms
[OGL LOG] matrix is not yet sorted, sorting host matrix
[OGL LOG] sort_host_mtx_sparsity_pattern : 25 ms
[OGL LOG] sort_host_mtx : 12 ms
[OGL LOG] init_preconditioner : 0 ms
 CG create  precond 
[OGL LOG] solve : 58 ms
BJcudaGKOCG:  Solving for p, Initial residual = 0.45758, Final residual = 9.51176e-05, No Iterations 304
linear solve p 155
time step continuity errors : sum local = 7.95454e-08, global = 1.05645e-20, cumulative = -1.03867e-20
ExecutionTime = 3.12 s  ClockTime = 3 s

Time = 0.003

Courant Number mean: 0.0400047 max: 0.407043
nonePBiCGStab:  Solving for Ux, Initial residual = 0.0583181, Final residual = 0.00348208, No Iterations 5
nonePBiCGStab:  Solving for Uy, Initial residual = 0.106373, Final residual = 0.00399431, No Iterations 5
nonePBiCGStab:  Solving for Uz, Initial residual = 0.164971, Final residual = 0.0133825, No Iterations 5
linear solve U 61
[OGL LOG] init_host_sparsity_pattern : 34 ms
[OGL LOG] matrix not stored update host matrix
[OGL LOG] update_host_mtx : 16 ms
[OGL LOG] matrix is not yet sorted, sorting host matrix
[OGL LOG] sort_host_mtx_sparsity_pattern : 23 ms
[OGL LOG] sort_host_mtx : 12 ms
[OGL LOG] init_preconditioner : 0 ms
 CG create  precond 
[OGL LOG] solve : 56 ms
BJcudaGKOCG:  Solving for p, Initial residual = 0.31616, Final residual = 9.86506e-05, No Iterations 290
linear solve p 151
time step continuity errors : sum local = 5.71709e-08, global = 5.89196e-21, cumulative = -4.49472e-21
[OGL LOG] init_host_sparsity_pattern : 33 ms
[OGL LOG] matrix not stored update host matrix
[OGL LOG] update_host_mtx : 16 ms
[OGL LOG] matrix is not yet sorted, sorting host matrix
[OGL LOG] sort_host_mtx_sparsity_pattern : 23 ms
[OGL LOG] sort_host_mtx : 12 ms
[OGL LOG] init_preconditioner : 0 ms
 CG create  precond 
[OGL LOG] solve : 55 ms
BJcudaGKOCG:  Solving for p, Initial residual = 0.262395, Final residual = 9.69617e-05, No Iterations 288
linear solve p 150
time step continuity errors : sum local = 5.50898e-08, global = -1.79757e-20, cumulative = -2.24704e-20
ExecutionTime = 3.55 s  ClockTime = 4 s

Time = 0.004

Courant Number mean: 0.0480287 max: 0.427428
nonePBiCGStab:  Solving for Ux, Initial residual = 0.0348559, Final residual = 0.00151803, No Iterations 5
nonePBiCGStab:  Solving for Uy, Initial residual = 0.0680233, Final residual = 0.00164525, No Iterations 5
nonePBiCGStab:  Solving for Uz, Initial residual = 0.135816, Final residual = 0.00715125, No Iterations 5
linear solve U 61
[OGL LOG] init_host_sparsity_pattern : 33 ms
[OGL LOG] matrix not stored update host matrix
[OGL LOG] update_host_mtx : 16 ms
[OGL LOG] matrix is not yet sorted, sorting host matrix
[OGL LOG] sort_host_mtx_sparsity_pattern : 23 ms
[OGL LOG] sort_host_mtx : 12 ms
[OGL LOG] init_preconditioner : 0 ms
 CG create  precond 
[OGL LOG] solve : 55 ms
BJcudaGKOCG:  Solving for p, Initial residual = 0.158483, Final residual = 9.0317e-05, No Iterations 289
linear solve p 149
time step continuity errors : sum local = 5.04128e-08, global = -5.18622e-21, cumulative = -2.76567e-20
[OGL LOG] init_host_sparsity_pattern : 33 ms
[OGL LOG] matrix not stored update host matrix
[OGL LOG] update_host_mtx : 19 ms
[OGL LOG] matrix is not yet sorted, sorting host matrix
[OGL LOG] sort_host_mtx_sparsity_pattern : 26 ms
[OGL LOG] sort_host_mtx : 12 ms
[OGL LOG] init_preconditioner : 0 ms
 CG create  precond 
[OGL LOG] solve : 55 ms
BJcudaGKOCG:  Solving for p, Initial residual = 0.125615, Final residual = 9.57624e-05, No Iterations 287
linear solve p 157
time step continuity errors : sum local = 5.40999e-08, global = 2.36758e-21, cumulative = -2.52891e-20
ExecutionTime = 3.99 s  ClockTime = 4 s

Time = 0.005

Courant Number mean: 0.0540342 max: 0.437459
nonePBiCGStab:  Solving for Ux, Initial residual = 0.0245764, Final residual = 0.000648692, No Iterations 5
nonePBiCGStab:  Solving for Uy, Initial residual = 0.0468555, Final residual = 0.0011102, No Iterations 5
nonePBiCGStab:  Solving for Uz, Initial residual = 0.0876658, Final residual = 0.00347992, No Iterations 5
linear solve U 61
[OGL LOG] init_host_sparsity_pattern : 33 ms
[OGL LOG] matrix not stored update host matrix
[OGL LOG] update_host_mtx : 16 ms
[OGL LOG] matrix is not yet sorted, sorting host matrix
[OGL LOG] sort_host_mtx_sparsity_pattern : 23 ms
[OGL LOG] sort_host_mtx : 12 ms
[OGL LOG] init_preconditioner : 0 ms
 CG create  precond 
[OGL LOG] solve : 54 ms
BJcudaGKOCG:  Solving for p, Initial residual = 0.0784299, Final residual = 9.52156e-05, No Iterations 278
linear solve p 148
time step continuity errors : sum local = 5.06491e-08, global = -4.93448e-21, cumulative = -3.02236e-20
[OGL LOG] init_host_sparsity_pattern : 33 ms
[OGL LOG] matrix not stored update host matrix
[OGL LOG] update_host_mtx : 16 ms
[OGL LOG] matrix is not yet sorted, sorting host matrix
[OGL LOG] sort_host_mtx_sparsity_pattern : 23 ms
[OGL LOG] sort_host_mtx : 12 ms
[OGL LOG] init_preconditioner : 0 ms
 CG create  precond 
[OGL LOG] solve : 54 ms
BJcudaGKOCG:  Solving for p, Initial residual = 0.0636854, Final residual = 9.36251e-05, No Iterations 277
linear solve p 148
time step continuity errors : sum local = 4.97937e-08, global = -5.93971e-21, cumulative = -3.61633e-20
ExecutionTime = 4.42 s  ClockTime = 5 s

Time = 0.006

Courant Number mean: 0.0587047 max: 0.443596
nonePBiCGStab:  Solving for Ux, Initial residual = 0.0186609, Final residual = 0.000412315, No Iterations 5
nonePBiCGStab:  Solving for Uy, Initial residual = 0.0358513, Final residual = 0.000515808, No Iterations 5
nonePBiCGStab:  Solving for Uz, Initial residual = 0.0674596, Final residual = 0.00252338, No Iterations 5
linear solve U 61
[OGL LOG] init_host_sparsity_pattern : 33 ms
[OGL LOG] matrix not stored update host matrix
[OGL LOG] update_host_mtx : 16 ms
[OGL LOG] matrix is not yet sorted, sorting host matrix
[OGL LOG] sort_host_mtx_sparsity_pattern : 24 ms
[OGL LOG] sort_host_mtx : 12 ms
[OGL LOG] init_preconditioner : 0 ms
 CG create  precond 
[OGL LOG] solve : 27 ms
BJcudaGKOCG:  Solving for p, Initial residual = 0.0500789, Final residual = 9.71703e-05, No Iterations 137
linear solve p 122
time step continuity errors : sum local = 6.07746e-08, global = -2.41384e-20, cumulative = -6.03017e-20
[OGL LOG] init_host_sparsity_pattern : 33 ms
[OGL LOG] matrix not stored update host matrix
[OGL LOG] update_host_mtx : 16 ms
[OGL LOG] matrix is not yet sorted, sorting host matrix
[OGL LOG] sort_host_mtx_sparsity_pattern : 24 ms
[OGL LOG] sort_host_mtx : 12 ms
[OGL LOG] init_preconditioner : 0 ms
 CG create  precond 
[OGL LOG] solve : 26 ms
BJcudaGKOCG:  Solving for p, Initial residual = 0.0409025, Final residual = 9.75383e-05, No Iterations 130
linear solve p 120
time step continuity errors : sum local = 5.48865e-08, global = -6.29076e-21, cumulative = -6.65924e-20
ExecutionTime = 4.81 s  ClockTime = 5 s

Time = 0.007

Courant Number mean: 0.0625698 max: 0.447864
nonePBiCGStab:  Solving for Ux, Initial residual = 0.0148503, Final residual = 0.000257876, No Iterations 5
nonePBiCGStab:  Solving for Uy, Initial residual = 0.0286273, Final residual = 0.000429899, No Iterations 5
nonePBiCGStab:  Solving for Uz, Initial residual = 0.0550262, Final residual = 0.00169078, No Iterations 5
linear solve U 62
[OGL LOG] init_host_sparsity_pattern : 33 ms
[OGL LOG] matrix not stored update host matrix
[OGL LOG] update_host_mtx : 16 ms
[OGL LOG] matrix is not yet sorted, sorting host matrix
[OGL LOG] sort_host_mtx_sparsity_pattern : 23 ms
[OGL LOG] sort_host_mtx : 12 ms
[OGL LOG] init_preconditioner : 0 ms
 CG create  precond 
[OGL LOG] solve : 27 ms
BJcudaGKOCG:  Solving for p, Initial residual = 0.030978, Final residual = 9.61686e-05, No Iterations 128
linear solve p 121
time step continuity errors : sum local = 5.54918e-08, global = 1.70892e-21, cumulative = -6.48835e-20
[OGL LOG] init_host_sparsity_pattern : 33 ms
[OGL LOG] matrix not stored update host matrix
[OGL LOG] update_host_mtx : 16 ms
[OGL LOG] matrix is not yet sorted, sorting host matrix
[OGL LOG] sort_host_mtx_sparsity_pattern : 23 ms
[OGL LOG] sort_host_mtx : 12 ms
[OGL LOG] init_preconditioner : 0 ms
 CG create  precond 
[OGL LOG] solve : 25 ms
BJcudaGKOCG:  Solving for p, Initial residual = 0.0263557, Final residual = 9.72794e-05, No Iterations 126
linear solve p 119
time step continuity errors : sum local = 5.3989e-08, global = 1.26604e-20, cumulative = -5.22231e-20
ExecutionTime = 5.17 s  ClockTime = 6 s

Time = 0.008

Courant Number mean: 0.065792 max: 0.451018
nonePBiCGStab:  Solving for Ux, Initial residual = 0.0122014, Final residual = 0.000175612, No Iterations 5
nonePBiCGStab:  Solving for Uy, Initial residual = 0.0236342, Final residual = 0.000283734, No Iterations 5
nonePBiCGStab:  Solving for Uz, Initial residual = 0.0457219, Final residual = 0.00127324, No Iterations 5
linear solve U 61
[OGL LOG] init_host_sparsity_pattern : 33 ms
[OGL LOG] matrix not stored update host matrix
[OGL LOG] update_host_mtx : 16 ms
[OGL LOG] matrix is not yet sorted, sorting host matrix
[OGL LOG] sort_host_mtx_sparsity_pattern : 23 ms
[OGL LOG] sort_host_mtx : 12 ms
[OGL LOG] init_preconditioner : 0 ms
 CG create  precond 
[OGL LOG] solve : 25 ms
BJcudaGKOCG:  Solving for p, Initial residual = 0.0228327, Final residual = 9.85701e-05, No Iterations 127
linear solve p 120
time step continuity errors : sum local = 5.99029e-08, global = -1.52668e-20, cumulative = -6.74899e-20
[OGL LOG] init_host_sparsity_pattern : 33 ms
[OGL LOG] matrix not stored update host matrix
[OGL LOG] update_host_mtx : 16 ms
[OGL LOG] matrix is not yet sorted, sorting host matrix
[OGL LOG] sort_host_mtx_sparsity_pattern : 23 ms
[OGL LOG] sort_host_mtx : 12 ms
[OGL LOG] init_preconditioner : 0 ms
 CG create  precond 
[OGL LOG] solve : 25 ms
BJcudaGKOCG:  Solving for p, Initial residual = 0.0197233, Final residual = 9.39403e-05, No Iterations 125
linear solve p 119
time step continuity errors : sum local = 5.37358e-08, global = 7.3168e-22, cumulative = -6.67583e-20
ExecutionTime = 5.55 s  ClockTime = 6 s

Time = 0.009

Courant Number mean: 0.0685519 max: 0.453478
nonePBiCGStab:  Solving for Ux, Initial residual = 0.010239, Final residual = 0.000113879, No Iterations 5
nonePBiCGStab:  Solving for Uy, Initial residual = 0.0199608, Final residual = 0.000217428, No Iterations 5
nonePBiCGStab:  Solving for Uz, Initial residual = 0.0390301, Final residual = 0.00107742, No Iterations 5
linear solve U 65
[OGL LOG] init_host_sparsity_pattern : 34 ms
[OGL LOG] matrix not stored update host matrix
[OGL LOG] update_host_mtx : 17 ms
[OGL LOG] matrix is not yet sorted, sorting host matrix
[OGL LOG] sort_host_mtx_sparsity_pattern : 25 ms
[OGL LOG] sort_host_mtx : 12 ms
[OGL LOG] init_preconditioner : 0 ms
 CG create  precond 
[OGL LOG] solve : 25 ms
BJcudaGKOCG:  Solving for p, Initial residual = 0.0179472, Final residual = 9.99858e-05, No Iterations 124
linear solve p 123
time step continuity errors : sum local = 5.84822e-08, global = 1.93534e-22, cumulative = -6.65647e-20
[OGL LOG] init_host_sparsity_pattern : 33 ms
[OGL LOG] matrix not stored update host matrix
[OGL LOG] update_host_mtx : 16 ms
[OGL LOG] matrix is not yet sorted, sorting host matrix
[OGL LOG] sort_host_mtx_sparsity_pattern : 24 ms
[OGL LOG] sort_host_mtx : 12 ms
[OGL LOG] init_preconditioner : 0 ms
 CG create  precond 
[OGL LOG] solve : 24 ms
BJcudaGKOCG:  Solving for p, Initial residual = 0.0158707, Final residual = 9.64826e-05, No Iterations 122
linear solve p 120
time step continuity errors : sum local = 5.49914e-08, global = 1.07017e-20, cumulative = -5.5863e-20
ExecutionTime = 5.93 s  ClockTime = 6 s

Time = 0.01

Courant Number mean: 0.070963 max: 0.455441
nonePBiCGStab:  Solving for Ux, Initial residual = 0.00874881, Final residual = 9.27285e-05, No Iterations 5
nonePBiCGStab:  Solving for Uy, Initial residual = 0.0171403, Final residual = 0.000161575, No Iterations 5
nonePBiCGStab:  Solving for Uz, Initial residual = 0.0338038, Final residual = 0.000665793, No Iterations 5
linear solve U 61
[OGL LOG] init_host_sparsity_pattern : 33 ms
[OGL LOG] matrix not stored update host matrix
[OGL LOG] update_host_mtx : 16 ms
[OGL LOG] matrix is not yet sorted, sorting host matrix
[OGL LOG] sort_host_mtx_sparsity_pattern : 23 ms
[OGL LOG] sort_host_mtx : 12 ms
[OGL LOG] init_preconditioner : 0 ms
 CG create  precond 
[OGL LOG] solve : 25 ms
BJcudaGKOCG:  Solving for p, Initial residual = 0.0149969, Final residual = 9.09522e-05, No Iterations 123
linear solve p 119
time step continuity errors : sum local = 5.5444e-08, global = 9.33975e-21, cumulative = -4.65233e-20
[OGL LOG] init_host_sparsity_pattern : 33 ms
[OGL LOG] matrix not stored update host matrix
[OGL LOG] update_host_mtx : 16 ms
[OGL LOG] matrix is not yet sorted, sorting host matrix
[OGL LOG] sort_host_mtx_sparsity_pattern : 24 ms
[OGL LOG] sort_host_mtx : 12 ms
[OGL LOG] init_preconditioner : 0 ms
 CG create  precond 
[OGL LOG] solve : 26 ms
BJcudaGKOCG:  Solving for p, Initial residual = 0.0133143, Final residual = 9.81735e-05, No Iterations 120
linear solve p 121
time step continuity errors : sum local = 5.68194e-08, global = -1.93052e-21, cumulative = -4.84538e-20
ExecutionTime = 6.31 s  ClockTime = 7 s

End

