/*---------------------------------------------------------------------------*\
  =========                 |
  \\      /  F ield         | OpenFOAM: The Open Source CFD Toolbox
   \\    /   O peration     | Website:  https://openfoam.org
    \\  /    A nd           | Version:  8
     \\/     M anipulation  |
\*---------------------------------------------------------------------------*/
Build  : 8-40a5a48f630f
Exec   : icoFoam
Date   : Jul 28 2021
Time   : 02:08:28
Host   : "uc2n559.localdomain"
PID    : 3617875
I/O    : uncollated
Case   : /pfs/data5/home/kit/scc/nq7776/code/OBR/lidDrivenCavity3D/Variation_mesh/25/Variation_matrix_solver/BiCGStab_BJ_OMP/base
nProcs : 1
sigFpe : Enabling floating point exception trapping (FOAM_SIGFPE).
fileModificationChecking : Monitoring run-time modified files using timeStampMaster (fileModificationSkew 10)
allowSystemOperations : Allowing user-supplied system call operations

// * * * * * * * * * * * * * * * * * * * * * * * * * * * * * * * * * * * * * //
Create time

Create mesh for time = 0

Reading transportProperties

Reading field p

Reading field U

Reading/calculating face flux field phi


Starting time loop

Time = 0.001

Courant Number mean: 0 max: 0
nonePBiCGStab:  Solving for Ux, Initial residual = 1, Final residual = 0.00310183, No Iterations 5
nonePBiCGStab:  Solving for Uy, Initial residual = 0, Final residual = 0, No Iterations 0
nonePBiCGStab:  Solving for Uz, Initial residual = 0, Final residual = 0, No Iterations 0
linear solve U 2
[OGL LOG] init_host_sparsity_pattern : 4 ms
[OGL LOG] matrix not stored update host matrix
[OGL LOG] update_host_mtx : 2 ms
[OGL LOG] matrix is not yet sorted, compute sorting idxs
[OGL LOG] compute_sort : 105 ms
[OGL LOG] matrix is not yet sorted, sorting host matrix
[OGL LOG] sort_host_mtx_sparsity_pattern : 3 ms
[OGL LOG] sort_host_mtx : 1 ms
[OGL LOG] init_preconditioner : 3 ms
[OGL LOG] solve : 86 ms
BJompGKOBiCGStab:  Solving for p, Initial residual = 1, Final residual = 3.01352e-05, No Iterations 136
linear solve p 222
time step continuity errors : sum local = 7.87166e-07, global = -2.0481e-20, cumulative = -2.0481e-20
[OGL LOG] init_host_sparsity_pattern : 4 ms
[OGL LOG] matrix not stored update host matrix
[OGL LOG] update_host_mtx : 2 ms
[OGL LOG] matrix is not yet sorted, sorting host matrix
[OGL LOG] sort_host_mtx_sparsity_pattern : 3 ms
[OGL LOG] sort_host_mtx : 1 ms
[OGL LOG] init_preconditioner : 0 ms
[OGL LOG] solve : 76 ms
BJompGKOBiCGStab:  Solving for p, Initial residual = 0.481117, Final residual = 7.1193e-05, No Iterations 123
linear solve p 91
time step continuity errors : sum local = 2.56279e-05, global = 6.33e-22, cumulative = -1.9848e-20
ExecutionTime = 5.99 s  ClockTime = 1 s

Time = 0.002

Courant Number mean: 0.0119819 max: 0.106553
nonePBiCGStab:  Solving for Ux, Initial residual = 0.211066, Final residual = 0.000702268, No Iterations 5
nonePBiCGStab:  Solving for Uy, Initial residual = 0.284264, Final residual = 0.000729621, No Iterations 5
nonePBiCGStab:  Solving for Uz, Initial residual = 0.742926, Final residual = 0.00329482, No Iterations 5
linear solve U 5
[OGL LOG] init_host_sparsity_pattern : 4 ms
[OGL LOG] matrix not stored update host matrix
[OGL LOG] update_host_mtx : 2 ms
[OGL LOG] matrix is not yet sorted, sorting host matrix
[OGL LOG] sort_host_mtx_sparsity_pattern : 3 ms
[OGL LOG] sort_host_mtx : 1 ms
[OGL LOG] init_preconditioner : 0 ms
[OGL LOG] solve : 70 ms
BJompGKOBiCGStab:  Solving for p, Initial residual = 0.310851, Final residual = 8.83038e-05, No Iterations 111
linear solve p 83
time step continuity errors : sum local = 3.76851e-06, global = 1.0146e-20, cumulative = -9.702e-21
[OGL LOG] init_host_sparsity_pattern : 4 ms
[OGL LOG] matrix not stored update host matrix
[OGL LOG] update_host_mtx : 2 ms
[OGL LOG] matrix is not yet sorted, sorting host matrix
[OGL LOG] sort_host_mtx_sparsity_pattern : 3 ms
[OGL LOG] sort_host_mtx : 1 ms
[OGL LOG] init_preconditioner : 0 ms
[OGL LOG] solve : 72 ms
BJompGKOBiCGStab:  Solving for p, Initial residual = 0.198657, Final residual = 4.19985e-05, No Iterations 114
linear solve p 86
time step continuity errors : sum local = 3.94519e-05, global = -2.48591e-20, cumulative = -3.45611e-20
ExecutionTime = 10.93 s  ClockTime = 1 s

Time = 0.003

Courant Number mean: 0.0188616 max: 0.155059
nonePBiCGStab:  Solving for Ux, Initial residual = 0.0902655, Final residual = 0.000304069, No Iterations 5
nonePBiCGStab:  Solving for Uy, Initial residual = 0.124654, Final residual = 0.000274222, No Iterations 5
nonePBiCGStab:  Solving for Uz, Initial residual = 0.269623, Final residual = 0.00171775, No Iterations 5
linear solve U 6
[OGL LOG] init_host_sparsity_pattern : 4 ms
[OGL LOG] matrix not stored update host matrix
[OGL LOG] update_host_mtx : 2 ms
[OGL LOG] matrix is not yet sorted, sorting host matrix
[OGL LOG] sort_host_mtx_sparsity_pattern : 3 ms
[OGL LOG] sort_host_mtx : 1 ms
[OGL LOG] init_preconditioner : 0 ms
[OGL LOG] solve : 62 ms
BJompGKOBiCGStab:  Solving for p, Initial residual = 0.156842, Final residual = 9.18004e-05, No Iterations 99
linear solve p 75
time step continuity errors : sum local = 4.81547e-06, global = 9.69456e-21, cumulative = -2.48665e-20
[OGL LOG] init_host_sparsity_pattern : 4 ms
[OGL LOG] matrix not stored update host matrix
[OGL LOG] update_host_mtx : 2 ms
[OGL LOG] matrix is not yet sorted, sorting host matrix
[OGL LOG] sort_host_mtx_sparsity_pattern : 3 ms
[OGL LOG] sort_host_mtx : 1 ms
[OGL LOG] init_preconditioner : 0 ms
[OGL LOG] solve : 31 ms
BJompGKOBiCGStab:  Solving for p, Initial residual = 0.0884068, Final residual = 9.93251e-05, No Iterations 49
linear solve p 44
time step continuity errors : sum local = 8.74168e-08, global = 1.86322e-21, cumulative = -2.30033e-20
ExecutionTime = 14.29 s  ClockTime = 1 s

Time = 0.004

Courant Number mean: 0.0233154 max: 0.175118
nonePBiCGStab:  Solving for Ux, Initial residual = 0.05204, Final residual = 0.000148639, No Iterations 5
nonePBiCGStab:  Solving for Uy, Initial residual = 0.0747817, Final residual = 0.000109774, No Iterations 5
nonePBiCGStab:  Solving for Uz, Initial residual = 0.156705, Final residual = 0.00101453, No Iterations 5
linear solve U 5
[OGL LOG] init_host_sparsity_pattern : 4 ms
[OGL LOG] matrix not stored update host matrix
[OGL LOG] update_host_mtx : 2 ms
[OGL LOG] matrix is not yet sorted, sorting host matrix
[OGL LOG] sort_host_mtx_sparsity_pattern : 3 ms
[OGL LOG] sort_host_mtx : 1 ms
[OGL LOG] init_preconditioner : 0 ms
[OGL LOG] solve : 29 ms
BJompGKOBiCGStab:  Solving for p, Initial residual = 0.0655856, Final residual = 9.14195e-05, No Iterations 47
linear solve p 42
time step continuity errors : sum local = 1.43634e-07, global = -2.13859e-20, cumulative = -4.43892e-20
[OGL LOG] init_host_sparsity_pattern : 4 ms
[OGL LOG] matrix not stored update host matrix
[OGL LOG] update_host_mtx : 2 ms
[OGL LOG] matrix is not yet sorted, sorting host matrix
[OGL LOG] sort_host_mtx_sparsity_pattern : 3 ms
[OGL LOG] sort_host_mtx : 1 ms
[OGL LOG] init_preconditioner : 0 ms
[OGL LOG] solve : 24 ms
BJompGKOBiCGStab:  Solving for p, Initial residual = 0.0412559, Final residual = 9.01335e-05, No Iterations 38
linear solve p 38
time step continuity errors : sum local = 1.53898e-07, global = -7.84012e-21, cumulative = -5.22293e-20
ExecutionTime = 16.37 s  ClockTime = 1 s

Time = 0.005

Courant Number mean: 0.0264929 max: 0.186502
nonePBiCGStab:  Solving for Ux, Initial residual = 0.0351416, Final residual = 3.62697e-05, No Iterations 5
nonePBiCGStab:  Solving for Uy, Initial residual = 0.0508375, Final residual = 3.42621e-05, No Iterations 5
nonePBiCGStab:  Solving for Uz, Initial residual = 0.0935518, Final residual = 0.000279584, No Iterations 5
linear solve U 5
[OGL LOG] init_host_sparsity_pattern : 4 ms
[OGL LOG] matrix not stored update host matrix
[OGL LOG] update_host_mtx : 2 ms
[OGL LOG] matrix is not yet sorted, sorting host matrix
[OGL LOG] sort_host_mtx_sparsity_pattern : 3 ms
[OGL LOG] sort_host_mtx : 1 ms
[OGL LOG] init_preconditioner : 0 ms
[OGL LOG] solve : 26 ms
BJompGKOBiCGStab:  Solving for p, Initial residual = 0.0359541, Final residual = 9.46354e-05, No Iterations 40
linear solve p 39
time step continuity errors : sum local = 1.28451e-07, global = 5.80474e-21, cumulative = -4.64246e-20
[OGL LOG] init_host_sparsity_pattern : 4 ms
[OGL LOG] matrix not stored update host matrix
[OGL LOG] update_host_mtx : 2 ms
[OGL LOG] matrix is not yet sorted, sorting host matrix
[OGL LOG] sort_host_mtx_sparsity_pattern : 3 ms
[OGL LOG] sort_host_mtx : 1 ms
[OGL LOG] init_preconditioner : 0 ms
[OGL LOG] solve : 23 ms
BJompGKOBiCGStab:  Solving for p, Initial residual = 0.0235219, Final residual = 9.36287e-05, No Iterations 37
linear solve p 37
time step continuity errors : sum local = 1.19301e-07, global = 1.05134e-20, cumulative = -3.59112e-20
ExecutionTime = 18.37 s  ClockTime = 1 s

Time = 0.006

Courant Number mean: 0.0288944 max: 0.193334
nonePBiCGStab:  Solving for Ux, Initial residual = 0.0259421, Final residual = 1.41537e-05, No Iterations 5
nonePBiCGStab:  Solving for Uy, Initial residual = 0.038016, Final residual = 1.66348e-05, No Iterations 5
nonePBiCGStab:  Solving for Uz, Initial residual = 0.0709568, Final residual = 0.000101488, No Iterations 5
linear solve U 6
[OGL LOG] init_host_sparsity_pattern : 4 ms
[OGL LOG] matrix not stored update host matrix
[OGL LOG] update_host_mtx : 2 ms
[OGL LOG] matrix is not yet sorted, sorting host matrix
[OGL LOG] sort_host_mtx_sparsity_pattern : 3 ms
[OGL LOG] sort_host_mtx : 1 ms
[OGL LOG] init_preconditioner : 0 ms
[OGL LOG] solve : 25 ms
BJompGKOBiCGStab:  Solving for p, Initial residual = 0.0245348, Final residual = 7.50571e-05, No Iterations 40
linear solve p 38
time step continuity errors : sum local = 1.07998e-07, global = 1.38658e-20, cumulative = -2.20453e-20
[OGL LOG] init_host_sparsity_pattern : 4 ms
[OGL LOG] matrix not stored update host matrix
[OGL LOG] update_host_mtx : 2 ms
[OGL LOG] matrix is not yet sorted, sorting host matrix
[OGL LOG] sort_host_mtx_sparsity_pattern : 2 ms
[OGL LOG] sort_host_mtx : 1 ms
[OGL LOG] init_preconditioner : 0 ms
[OGL LOG] solve : 26 ms
BJompGKOBiCGStab:  Solving for p, Initial residual = 0.0164208, Final residual = 9.75718e-05, No Iterations 41
linear solve p 39
time step continuity errors : sum local = 1.15221e-07, global = -3.95289e-21, cumulative = -2.59982e-20
ExecutionTime = 20.37 s  ClockTime = 1 s

Time = 0.007

Courant Number mean: 0.0308302 max: 0.19789
nonePBiCGStab:  Solving for Ux, Initial residual = 0.0203767, Final residual = 8.05857e-06, No Iterations 5
nonePBiCGStab:  Solving for Uy, Initial residual = 0.0300198, Final residual = 9.79777e-06, No Iterations 5
nonePBiCGStab:  Solving for Uz, Initial residual = 0.0574702, Final residual = 4.48422e-05, No Iterations 5
linear solve U 5
[OGL LOG] init_host_sparsity_pattern : 4 ms
[OGL LOG] matrix not stored update host matrix
[OGL LOG] update_host_mtx : 2 ms
[OGL LOG] matrix is not yet sorted, sorting host matrix
[OGL LOG] sort_host_mtx_sparsity_pattern : 3 ms
[OGL LOG] sort_host_mtx : 1 ms
[OGL LOG] init_preconditioner : 0 ms
[OGL LOG] solve : 24 ms
BJompGKOBiCGStab:  Solving for p, Initial residual = 0.0187985, Final residual = 8.34427e-05, No Iterations 38
linear solve p 37
time step continuity errors : sum local = 1.10042e-07, global = -7.17807e-21, cumulative = -3.31763e-20
[OGL LOG] init_host_sparsity_pattern : 4 ms
[OGL LOG] matrix not stored update host matrix
[OGL LOG] update_host_mtx : 2 ms
[OGL LOG] matrix is not yet sorted, sorting host matrix
[OGL LOG] sort_host_mtx_sparsity_pattern : 3 ms
[OGL LOG] sort_host_mtx : 1 ms
[OGL LOG] init_preconditioner : 0 ms
[OGL LOG] solve : 24 ms
BJompGKOBiCGStab:  Solving for p, Initial residual = 0.0127501, Final residual = 9.06279e-05, No Iterations 35
linear solve p 37
time step continuity errors : sum local = 1.62546e-07, global = 1.09612e-21, cumulative = -3.20802e-20
ExecutionTime = 22.29 s  ClockTime = 2 s

Time = 0.008

Courant Number mean: 0.0324756 max: 0.201171
nonePBiCGStab:  Solving for Ux, Initial residual = 0.0165065, Final residual = 4.80963e-06, No Iterations 5
nonePBiCGStab:  Solving for Uy, Initial residual = 0.0246587, Final residual = 6.36213e-06, No Iterations 5
nonePBiCGStab:  Solving for Uz, Initial residual = 0.0481933, Final residual = 3.30225e-05, No Iterations 5
linear solve U 6
[OGL LOG] init_host_sparsity_pattern : 4 ms
[OGL LOG] matrix not stored update host matrix
[OGL LOG] update_host_mtx : 2 ms
[OGL LOG] matrix is not yet sorted, sorting host matrix
[OGL LOG] sort_host_mtx_sparsity_pattern : 3 ms
[OGL LOG] sort_host_mtx : 1 ms
[OGL LOG] init_preconditioner : 0 ms
[OGL LOG] solve : 28 ms
BJompGKOBiCGStab:  Solving for p, Initial residual = 0.0152123, Final residual = 7.38447e-05, No Iterations 41
linear solve p 41
time step continuity errors : sum local = 1.23639e-07, global = -1.54745e-21, cumulative = -3.36276e-20
[OGL LOG] init_host_sparsity_pattern : 4 ms
[OGL LOG] matrix not stored update host matrix
[OGL LOG] update_host_mtx : 2 ms
[OGL LOG] matrix is not yet sorted, sorting host matrix
[OGL LOG] sort_host_mtx_sparsity_pattern : 3 ms
[OGL LOG] sort_host_mtx : 1 ms
[OGL LOG] init_preconditioner : 0 ms
[OGL LOG] solve : 25 ms
BJompGKOBiCGStab:  Solving for p, Initial residual = 0.0103989, Final residual = 9.44167e-05, No Iterations 40
linear solve p 39
time step continuity errors : sum local = 1.2775e-07, global = -1.07965e-20, cumulative = -4.44241e-20
ExecutionTime = 24.37 s  ClockTime = 2 s

Time = 0.009

Courant Number mean: 0.0338799 max: 0.203667
nonePBiCGStab:  Solving for Ux, Initial residual = 0.0137963, Final residual = 3.21029e-06, No Iterations 5
nonePBiCGStab:  Solving for Uy, Initial residual = 0.0206896, Final residual = 4.22406e-06, No Iterations 5
nonePBiCGStab:  Solving for Uz, Initial residual = 0.0410037, Final residual = 2.15014e-05, No Iterations 5
linear solve U 5
[OGL LOG] init_host_sparsity_pattern : 4 ms
[OGL LOG] matrix not stored update host matrix
[OGL LOG] update_host_mtx : 2 ms
[OGL LOG] matrix is not yet sorted, sorting host matrix
[OGL LOG] sort_host_mtx_sparsity_pattern : 3 ms
[OGL LOG] sort_host_mtx : 1 ms
[OGL LOG] init_preconditioner : 0 ms
[OGL LOG] solve : 25 ms
BJompGKOBiCGStab:  Solving for p, Initial residual = 0.0125706, Final residual = 6.64389e-05, No Iterations 40
linear solve p 39
time step continuity errors : sum local = 6.50705e-08, global = -2.9123e-21, cumulative = -4.73364e-20
[OGL LOG] init_host_sparsity_pattern : 4 ms
[OGL LOG] matrix not stored update host matrix
[OGL LOG] update_host_mtx : 2 ms
[OGL LOG] matrix is not yet sorted, sorting host matrix
[OGL LOG] sort_host_mtx_sparsity_pattern : 3 ms
[OGL LOG] sort_host_mtx : 1 ms
[OGL LOG] init_preconditioner : 0 ms
[OGL LOG] solve : 21 ms
BJompGKOBiCGStab:  Solving for p, Initial residual = 0.00860941, Final residual = 9.73922e-05, No Iterations 34
linear solve p 35
time step continuity errors : sum local = 1.17291e-07, global = -1.50219e-20, cumulative = -6.23583e-20
ExecutionTime = 26.25 s  ClockTime = 2 s

Time = 0.01

Courant Number mean: 0.0350909 max: 0.205642
nonePBiCGStab:  Solving for Ux, Initial residual = 0.011709, Final residual = 2.22009e-06, No Iterations 5
nonePBiCGStab:  Solving for Uy, Initial residual = 0.0177325, Final residual = 3.07805e-06, No Iterations 5
nonePBiCGStab:  Solving for Uz, Initial residual = 0.0352434, Final residual = 1.62944e-05, No Iterations 5
linear solve U 6
[OGL LOG] init_host_sparsity_pattern : 4 ms
[OGL LOG] matrix not stored update host matrix
[OGL LOG] update_host_mtx : 2 ms
[OGL LOG] matrix is not yet sorted, sorting host matrix
[OGL LOG] sort_host_mtx_sparsity_pattern : 3 ms
[OGL LOG] sort_host_mtx : 1 ms
[OGL LOG] init_preconditioner : 0 ms
[OGL LOG] solve : 25 ms
BJompGKOBiCGStab:  Solving for p, Initial residual = 0.0104353, Final residual = 6.31925e-05, No Iterations 39
linear solve p 39
time step continuity errors : sum local = 6.15347e-08, global = 1.2981e-21, cumulative = -6.10601e-20
[OGL LOG] init_host_sparsity_pattern : 4 ms
[OGL LOG] matrix not stored update host matrix
[OGL LOG] update_host_mtx : 2 ms
[OGL LOG] matrix is not yet sorted, sorting host matrix
[OGL LOG] sort_host_mtx_sparsity_pattern : 3 ms
[OGL LOG] sort_host_mtx : 1 ms
[OGL LOG] init_preconditioner : 0 ms
[OGL LOG] solve : 22 ms
BJompGKOBiCGStab:  Solving for p, Initial residual = 0.00715808, Final residual = 9.14337e-05, No Iterations 34
linear solve p 36
time step continuity errors : sum local = 1.1799e-07, global = 2.79279e-20, cumulative = -3.31323e-20
ExecutionTime = 28.15 s  ClockTime = 2 s

End

