/*---------------------------------------------------------------------------*\
  =========                 |
  \\      /  F ield         | OpenFOAM: The Open Source CFD Toolbox
   \\    /   O peration     | Website:  https://openfoam.org
    \\  /    A nd           | Version:  8
     \\/     M anipulation  |
\*---------------------------------------------------------------------------*/
Build  : 8-40a5a48f630f
Exec   : icoFoam
Date   : Jul 27 2021
Time   : 23:12:46
Host   : "uc2n481.localdomain"
PID    : 181170
I/O    : uncollated
Case   : /pfs/data5/home/kit/scc/nq7776/code/OBR/lidDrivenCavity3D/Variation_mesh/55/Variation_matrix_solver/CG_BJ_CUDA/base
nProcs : 1
sigFpe : Enabling floating point exception trapping (FOAM_SIGFPE).
fileModificationChecking : Monitoring run-time modified files using timeStampMaster (fileModificationSkew 10)
allowSystemOperations : Allowing user-supplied system call operations

// * * * * * * * * * * * * * * * * * * * * * * * * * * * * * * * * * * * * * //
Create time

Create mesh for time = 0

Reading transportProperties

Reading field p

Reading field U

Reading/calculating face flux field phi


Starting time loop

Time = 0.001

Courant Number mean: 0 max: 0
nonePBiCGStab:  Solving for Ux, Initial residual = 1, Final residual = 0.0406479, No Iterations 5
nonePBiCGStab:  Solving for Uy, Initial residual = 0, Final residual = 0, No Iterations 0
nonePBiCGStab:  Solving for Uz, Initial residual = 0, Final residual = 0, No Iterations 0
linear solve U 43
[OGL LOG] init_host_sparsity_pattern : 44 ms
[OGL LOG] matrix not stored update host matrix
[OGL LOG] update_host_mtx : 23 ms
[OGL LOG] matrix is not yet sorted, compute sorting idxs
[OGL LOG] compute_sort : 1397 ms
[OGL LOG] matrix is not yet sorted, sorting host matrix
[OGL LOG] sort_host_mtx_sparsity_pattern : 33 ms
[OGL LOG] sort_host_mtx : 19 ms
[OGL LOG] init_preconditioner : 18 ms
 CG create  precond 
[OGL LOG] solve : 132 ms
BJcudaGKOCG:  Solving for p, Initial residual = 1, Final residual = 9.84347e-05, No Iterations 366
linear solve p 2457
time step continuity errors : sum local = 5.02175e-08, global = 9.40992e-21, cumulative = 9.40992e-21
[OGL LOG] init_host_sparsity_pattern : 48 ms
[OGL LOG] matrix not stored update host matrix
[OGL LOG] update_host_mtx : 25 ms
[OGL LOG] matrix is not yet sorted, sorting host matrix
[OGL LOG] sort_host_mtx_sparsity_pattern : 34 ms
[OGL LOG] sort_host_mtx : 17 ms
[OGL LOG] init_preconditioner : 0 ms
 CG create  precond 
[OGL LOG] solve : 124 ms
BJcudaGKOCG:  Solving for p, Initial residual = 0.653716, Final residual = 9.63256e-05, No Iterations 355
linear solve p 260
time step continuity errors : sum local = 7.08299e-08, global = 3.84045e-21, cumulative = 1.32504e-20
ExecutionTime = 3.47 s  ClockTime = 4 s

Time = 0.002

Courant Number mean: 0.0286203 max: 0.375271
nonePBiCGStab:  Solving for Ux, Initial residual = 0.159544, Final residual = 0.0147457, No Iterations 5
nonePBiCGStab:  Solving for Uy, Initial residual = 0.33685, Final residual = 0.0263962, No Iterations 5
nonePBiCGStab:  Solving for Uz, Initial residual = 0.974706, Final residual = 0.102961, No Iterations 5
linear solve U 84
[OGL LOG] init_host_sparsity_pattern : 44 ms
[OGL LOG] matrix not stored update host matrix
[OGL LOG] update_host_mtx : 22 ms
[OGL LOG] matrix is not yet sorted, sorting host matrix
[OGL LOG] sort_host_mtx_sparsity_pattern : 33 ms
[OGL LOG] sort_host_mtx : 17 ms
[OGL LOG] init_preconditioner : 0 ms
 CG create  precond 
[OGL LOG] solve : 120 ms
BJcudaGKOCG:  Solving for p, Initial residual = 0.589455, Final residual = 9.61899e-05, No Iterations 340
linear solve p 248
time step continuity errors : sum local = 7.89801e-08, global = -1.22787e-20, cumulative = 9.71721e-22
[OGL LOG] init_host_sparsity_pattern : 45 ms
[OGL LOG] matrix not stored update host matrix
[OGL LOG] update_host_mtx : 21 ms
[OGL LOG] matrix is not yet sorted, sorting host matrix
[OGL LOG] sort_host_mtx_sparsity_pattern : 32 ms
[OGL LOG] sort_host_mtx : 16 ms
[OGL LOG] init_preconditioner : 0 ms
 CG create  precond 
[OGL LOG] solve : 117 ms
BJcudaGKOCG:  Solving for p, Initial residual = 0.502144, Final residual = 9.91139e-05, No Iterations 337
linear solve p 243
time step continuity errors : sum local = 8.38101e-08, global = -8.45045e-21, cumulative = -7.47873e-21
ExecutionTime = 4.15 s  ClockTime = 4 s

Time = 0.003

Courant Number mean: 0.0436539 max: 0.457189
nonePBiCGStab:  Solving for Ux, Initial residual = 0.0563568, Final residual = 0.00392982, No Iterations 5
nonePBiCGStab:  Solving for Uy, Initial residual = 0.110152, Final residual = 0.00619768, No Iterations 5
nonePBiCGStab:  Solving for Uz, Initial residual = 0.199793, Final residual = 0.0216373, No Iterations 5
linear solve U 84
[OGL LOG] init_host_sparsity_pattern : 45 ms
[OGL LOG] matrix not stored update host matrix
[OGL LOG] update_host_mtx : 21 ms
[OGL LOG] matrix is not yet sorted, sorting host matrix
[OGL LOG] sort_host_mtx_sparsity_pattern : 31 ms
[OGL LOG] sort_host_mtx : 16 ms
[OGL LOG] init_preconditioner : 0 ms
 CG create  precond 
[OGL LOG] solve : 112 ms
BJcudaGKOCG:  Solving for p, Initial residual = 0.402817, Final residual = 9.46318e-05, No Iterations 324
linear solve p 240
time step continuity errors : sum local = 5.36637e-08, global = -1.38621e-20, cumulative = -2.13408e-20
[OGL LOG] init_host_sparsity_pattern : 44 ms
[OGL LOG] matrix not stored update host matrix
[OGL LOG] update_host_mtx : 22 ms
[OGL LOG] matrix is not yet sorted, sorting host matrix
[OGL LOG] sort_host_mtx_sparsity_pattern : 31 ms
[OGL LOG] sort_host_mtx : 17 ms
[OGL LOG] init_preconditioner : 0 ms
 CG create  precond 
[OGL LOG] solve : 112 ms
BJcudaGKOCG:  Solving for p, Initial residual = 0.345626, Final residual = 9.83919e-05, No Iterations 323
linear solve p 238
time step continuity errors : sum local = 5.44316e-08, global = -3.75244e-21, cumulative = -2.50933e-20
ExecutionTime = 4.8 s  ClockTime = 5 s

Time = 0.004

Courant Number mean: 0.0524098 max: 0.476942
nonePBiCGStab:  Solving for Ux, Initial residual = 0.0337954, Final residual = 0.00163939, No Iterations 5
nonePBiCGStab:  Solving for Uy, Initial residual = 0.0699807, Final residual = 0.0025346, No Iterations 5
nonePBiCGStab:  Solving for Uz, Initial residual = 0.151608, Final residual = 0.0116373, No Iterations 5
linear solve U 84
[OGL LOG] init_host_sparsity_pattern : 44 ms
[OGL LOG] matrix not stored update host matrix
[OGL LOG] update_host_mtx : 21 ms
[OGL LOG] matrix is not yet sorted, sorting host matrix
[OGL LOG] sort_host_mtx_sparsity_pattern : 31 ms
[OGL LOG] sort_host_mtx : 17 ms
[OGL LOG] init_preconditioner : 0 ms
 CG create  precond 
[OGL LOG] solve : 112 ms
BJcudaGKOCG:  Solving for p, Initial residual = 0.211677, Final residual = 9.15815e-05, No Iterations 323
linear solve p 238
time step continuity errors : sum local = 4.95975e-08, global = -3.10479e-21, cumulative = -2.81981e-20
[OGL LOG] init_host_sparsity_pattern : 46 ms
[OGL LOG] matrix not stored update host matrix
[OGL LOG] update_host_mtx : 23 ms
[OGL LOG] matrix is not yet sorted, sorting host matrix
[OGL LOG] sort_host_mtx_sparsity_pattern : 33 ms
[OGL LOG] sort_host_mtx : 17 ms
[OGL LOG] init_preconditioner : 0 ms
 CG create  precond 
[OGL LOG] solve : 111 ms
BJcudaGKOCG:  Solving for p, Initial residual = 0.170097, Final residual = 9.98237e-05, No Iterations 320
linear solve p 242
time step continuity errors : sum local = 5.47214e-08, global = -3.22199e-21, cumulative = -3.14201e-20
ExecutionTime = 5.47 s  ClockTime = 6 s

Time = 0.005

Courant Number mean: 0.0590337 max: 0.48703
nonePBiCGStab:  Solving for Ux, Initial residual = 0.0238403, Final residual = 0.000956142, No Iterations 5
nonePBiCGStab:  Solving for Uy, Initial residual = 0.0478946, Final residual = 0.00155207, No Iterations 5
nonePBiCGStab:  Solving for Uz, Initial residual = 0.0900621, Final residual = 0.0047658, No Iterations 5
linear solve U 84
[OGL LOG] init_host_sparsity_pattern : 44 ms
[OGL LOG] matrix not stored update host matrix
[OGL LOG] update_host_mtx : 21 ms
[OGL LOG] matrix is not yet sorted, sorting host matrix
[OGL LOG] sort_host_mtx_sparsity_pattern : 31 ms
[OGL LOG] sort_host_mtx : 17 ms
[OGL LOG] init_preconditioner : 0 ms
 CG create  precond 
[OGL LOG] solve : 107 ms
BJcudaGKOCG:  Solving for p, Initial residual = 0.11949, Final residual = 9.38673e-05, No Iterations 310
linear solve p 233
time step continuity errors : sum local = 4.70582e-08, global = -9.70525e-22, cumulative = -3.23906e-20
[OGL LOG] init_host_sparsity_pattern : 44 ms
[OGL LOG] matrix not stored update host matrix
[OGL LOG] update_host_mtx : 21 ms
[OGL LOG] matrix is not yet sorted, sorting host matrix
[OGL LOG] sort_host_mtx_sparsity_pattern : 31 ms
[OGL LOG] sort_host_mtx : 17 ms
[OGL LOG] init_preconditioner : 0 ms
 CG create  precond 
[OGL LOG] solve : 59 ms
BJcudaGKOCG:  Solving for p, Initial residual = 0.0977013, Final residual = 9.74052e-05, No Iterations 159
linear solve p 184
time step continuity errors : sum local = 5.7349e-08, global = 2.3647e-20, cumulative = -8.74363e-21
ExecutionTime = 6.08 s  ClockTime = 6 s

Time = 0.006

Courant Number mean: 0.0642584 max: 0.493228
nonePBiCGStab:  Solving for Ux, Initial residual = 0.0180747, Final residual = 0.000579062, No Iterations 5
nonePBiCGStab:  Solving for Uy, Initial residual = 0.0365174, Final residual = 0.000813705, No Iterations 5
nonePBiCGStab:  Solving for Uz, Initial residual = 0.0708124, Final residual = 0.00392163, No Iterations 5
linear solve U 85
[OGL LOG] init_host_sparsity_pattern : 44 ms
[OGL LOG] matrix not stored update host matrix
[OGL LOG] update_host_mtx : 21 ms
[OGL LOG] matrix is not yet sorted, sorting host matrix
[OGL LOG] sort_host_mtx_sparsity_pattern : 32 ms
[OGL LOG] sort_host_mtx : 17 ms
[OGL LOG] init_preconditioner : 0 ms
 CG create  precond 
[OGL LOG] solve : 106 ms
BJcudaGKOCG:  Solving for p, Initial residual = 0.0725231, Final residual = 9.64743e-05, No Iterations 306
linear solve p 232
time step continuity errors : sum local = 4.77218e-08, global = -1.5138e-20, cumulative = -2.38816e-20
[OGL LOG] init_host_sparsity_pattern : 44 ms
[OGL LOG] matrix not stored update host matrix
[OGL LOG] update_host_mtx : 21 ms
[OGL LOG] matrix is not yet sorted, sorting host matrix
[OGL LOG] sort_host_mtx_sparsity_pattern : 31 ms
[OGL LOG] sort_host_mtx : 16 ms
[OGL LOG] init_preconditioner : 0 ms
 CG create  precond 
[OGL LOG] solve : 52 ms
BJcudaGKOCG:  Solving for p, Initial residual = 0.05906, Final residual = 9.98286e-05, No Iterations 146
linear solve p 177
time step continuity errors : sum local = 5.41741e-08, global = -7.36723e-21, cumulative = -3.12489e-20
ExecutionTime = 6.67 s  ClockTime = 7 s

Time = 0.007

Courant Number mean: 0.0685244 max: 0.497558
nonePBiCGStab:  Solving for Ux, Initial residual = 0.0143747, Final residual = 0.000348717, No Iterations 5
nonePBiCGStab:  Solving for Uy, Initial residual = 0.0289916, Final residual = 0.000641585, No Iterations 5
nonePBiCGStab:  Solving for Uz, Initial residual = 0.0581311, Final residual = 0.0023317, No Iterations 5
linear solve U 84
[OGL LOG] init_host_sparsity_pattern : 44 ms
[OGL LOG] matrix not stored update host matrix
[OGL LOG] update_host_mtx : 21 ms
[OGL LOG] matrix is not yet sorted, sorting host matrix
[OGL LOG] sort_host_mtx_sparsity_pattern : 32 ms
[OGL LOG] sort_host_mtx : 16 ms
[OGL LOG] init_preconditioner : 0 ms
 CG create  precond 
[OGL LOG] solve : 105 ms
BJcudaGKOCG:  Solving for p, Initial residual = 0.0414168, Final residual = 9.39499e-05, No Iterations 304
linear solve p 231
time step continuity errors : sum local = 4.59662e-08, global = 1.21298e-20, cumulative = -1.91191e-20
[OGL LOG] init_host_sparsity_pattern : 45 ms
[OGL LOG] matrix not stored update host matrix
[OGL LOG] update_host_mtx : 22 ms
[OGL LOG] matrix is not yet sorted, sorting host matrix
[OGL LOG] sort_host_mtx_sparsity_pattern : 31 ms
[OGL LOG] sort_host_mtx : 17 ms
[OGL LOG] init_preconditioner : 0 ms
 CG create  precond 
[OGL LOG] solve : 105 ms
BJcudaGKOCG:  Solving for p, Initial residual = 0.0349378, Final residual = 9.03315e-05, No Iterations 303
linear solve p 232
time step continuity errors : sum local = 4.42288e-08, global = 1.45376e-20, cumulative = -4.58146e-21
ExecutionTime = 7.31 s  ClockTime = 7 s

Time = 0.008

Courant Number mean: 0.0721277 max: 0.500766
nonePBiCGStab:  Solving for Ux, Initial residual = 0.011791, Final residual = 0.000242654, No Iterations 5
nonePBiCGStab:  Solving for Uy, Initial residual = 0.023875, Final residual = 0.00037953, No Iterations 5
nonePBiCGStab:  Solving for Uz, Initial residual = 0.0471691, Final residual = 0.00194656, No Iterations 5
linear solve U 84
[OGL LOG] init_host_sparsity_pattern : 44 ms
[OGL LOG] matrix not stored update host matrix
[OGL LOG] update_host_mtx : 21 ms
[OGL LOG] matrix is not yet sorted, sorting host matrix
[OGL LOG] sort_host_mtx_sparsity_pattern : 31 ms
[OGL LOG] sort_host_mtx : 17 ms
[OGL LOG] init_preconditioner : 0 ms
 CG create  precond 
[OGL LOG] solve : 50 ms
BJcudaGKOCG:  Solving for p, Initial residual = 0.029545, Final residual = 9.02512e-05, No Iterations 141
linear solve p 175
time step continuity errors : sum local = 4.54368e-08, global = -1.5121e-20, cumulative = -1.97025e-20
[OGL LOG] init_host_sparsity_pattern : 47 ms
[OGL LOG] matrix not stored update host matrix
[OGL LOG] update_host_mtx : 24 ms
[OGL LOG] matrix is not yet sorted, sorting host matrix
[OGL LOG] sort_host_mtx_sparsity_pattern : 34 ms
[OGL LOG] sort_host_mtx : 17 ms
[OGL LOG] init_preconditioner : 0 ms
 CG create  precond 
[OGL LOG] solve : 49 ms
BJcudaGKOCG:  Solving for p, Initial residual = 0.025104, Final residual = 9.69092e-05, No Iterations 139
linear solve p 184
time step continuity errors : sum local = 4.73923e-08, global = 3.06046e-20, cumulative = 1.09022e-20
ExecutionTime = 7.85 s  ClockTime = 8 s

Time = 0.009

Courant Number mean: 0.0751977 max: 0.503264
nonePBiCGStab:  Solving for Ux, Initial residual = 0.00988326, Final residual = 0.000183662, No Iterations 5
nonePBiCGStab:  Solving for Uy, Initial residual = 0.0201404, Final residual = 0.000334437, No Iterations 5
nonePBiCGStab:  Solving for Uz, Initial residual = 0.0403077, Final residual = 0.00126497, No Iterations 5
linear solve U 84
[OGL LOG] init_host_sparsity_pattern : 44 ms
[OGL LOG] matrix not stored update host matrix
[OGL LOG] update_host_mtx : 22 ms
[OGL LOG] matrix is not yet sorted, sorting host matrix
[OGL LOG] sort_host_mtx_sparsity_pattern : 31 ms
[OGL LOG] sort_host_mtx : 16 ms
[OGL LOG] init_preconditioner : 0 ms
 CG create  precond 
[OGL LOG] solve : 49 ms
BJcudaGKOCG:  Solving for p, Initial residual = 0.0207048, Final residual = 9.36013e-05, No Iterations 138
linear solve p 174
time step continuity errors : sum local = 4.92334e-08, global = 1.08253e-20, cumulative = 2.17275e-20
[OGL LOG] init_host_sparsity_pattern : 45 ms
[OGL LOG] matrix not stored update host matrix
[OGL LOG] update_host_mtx : 22 ms
[OGL LOG] matrix is not yet sorted, sorting host matrix
[OGL LOG] sort_host_mtx_sparsity_pattern : 31 ms
[OGL LOG] sort_host_mtx : 16 ms
[OGL LOG] init_preconditioner : 0 ms
 CG create  precond 
[OGL LOG] solve : 48 ms
BJcudaGKOCG:  Solving for p, Initial residual = 0.0182436, Final residual = 9.41637e-05, No Iterations 136
linear solve p 174
time step continuity errors : sum local = 4.70261e-08, global = -1.65045e-21, cumulative = 2.0077e-20
ExecutionTime = 8.37 s  ClockTime = 8 s

Time = 0.01

Courant Number mean: 0.0778658 max: 0.50526
nonePBiCGStab:  Solving for Ux, Initial residual = 0.00844069, Final residual = 0.00013439, No Iterations 5
nonePBiCGStab:  Solving for Uy, Initial residual = 0.0172705, Final residual = 0.000248787, No Iterations 5
nonePBiCGStab:  Solving for Uz, Initial residual = 0.0346229, Final residual = 0.00121818, No Iterations 5
linear solve U 84
[OGL LOG] init_host_sparsity_pattern : 45 ms
[OGL LOG] matrix not stored update host matrix
[OGL LOG] update_host_mtx : 21 ms
[OGL LOG] matrix is not yet sorted, sorting host matrix
[OGL LOG] sort_host_mtx_sparsity_pattern : 30 ms
[OGL LOG] sort_host_mtx : 17 ms
[OGL LOG] init_preconditioner : 0 ms
 CG create  precond 
[OGL LOG] solve : 48 ms
BJcudaGKOCG:  Solving for p, Initial residual = 0.016662, Final residual = 9.44117e-05, No Iterations 136
linear solve p 174
time step continuity errors : sum local = 4.79115e-08, global = -3.68823e-21, cumulative = 1.63888e-20
[OGL LOG] init_host_sparsity_pattern : 46 ms
[OGL LOG] matrix not stored update host matrix
[OGL LOG] update_host_mtx : 22 ms
[OGL LOG] matrix is not yet sorted, sorting host matrix
[OGL LOG] sort_host_mtx_sparsity_pattern : 32 ms
[OGL LOG] sort_host_mtx : 17 ms
[OGL LOG] init_preconditioner : 0 ms
 CG create  precond 
[OGL LOG] solve : 47 ms
BJcudaGKOCG:  Solving for p, Initial residual = 0.0147997, Final residual = 9.31211e-05, No Iterations 134
linear solve p 178
time step continuity errors : sum local = 4.63568e-08, global = -3.69736e-21, cumulative = 1.26914e-20
ExecutionTime = 8.91 s  ClockTime = 9 s

End

