/*---------------------------------------------------------------------------*\
  =========                 |
  \\      /  F ield         | OpenFOAM: The Open Source CFD Toolbox
   \\    /   O peration     | Website:  https://openfoam.org
    \\  /    A nd           | Version:  8
     \\/     M anipulation  |
\*---------------------------------------------------------------------------*/
Build  : 8-40a5a48f630f
Exec   : icoFoam
Date   : Jul 27 2021
Time   : 22:49:30
Host   : "uc2n481.localdomain"
PID    : 159982
I/O    : uncollated
Case   : /pfs/data5/home/kit/scc/nq7776/code/OBR/lidDrivenCavity3D/Variation_mesh/80/Variation_matrix_solver/BiCGStab_NoPrecond_CUDA/base
nProcs : 1
sigFpe : Enabling floating point exception trapping (FOAM_SIGFPE).
fileModificationChecking : Monitoring run-time modified files using timeStampMaster (fileModificationSkew 10)
allowSystemOperations : Allowing user-supplied system call operations

// * * * * * * * * * * * * * * * * * * * * * * * * * * * * * * * * * * * * * //
Create time

Create mesh for time = 0

Reading transportProperties

Reading field p

Reading field U

Reading/calculating face flux field phi


Starting time loop

Time = 0.001

Courant Number mean: 0 max: 0
nonePBiCGStab:  Solving for Ux, Initial residual = 1, Final residual = 0.0679229, No Iterations 5
nonePBiCGStab:  Solving for Uy, Initial residual = 0, Final residual = 0, No Iterations 0
nonePBiCGStab:  Solving for Uz, Initial residual = 0, Final residual = 0, No Iterations 0
linear solve U 144
[OGL LOG] init_host_sparsity_pattern : 142 ms
[OGL LOG] matrix not stored update host matrix
[OGL LOG] update_host_mtx : 78 ms
[OGL LOG] matrix is not yet sorted, compute sorting idxs
[OGL LOG] compute_sort : 4533 ms
[OGL LOG] matrix is not yet sorted, sorting host matrix
[OGL LOG] sort_host_mtx_sparsity_pattern : 106 ms
[OGL LOG] sort_host_mtx : 60 ms
[OGL LOG] init_preconditioner : 0 ms
[OGL LOG] solve : 706 ms
nonecudaGKOBiCGStab:  Solving for p, Initial residual = 1, Final residual = 2.27235e-05, No Iterations 497
linear solve p 6448
time step continuity errors : sum local = 0.00150328, global = -8.60668e-19, cumulative = -8.60668e-19
[OGL LOG] init_host_sparsity_pattern : 140 ms
[OGL LOG] matrix not stored update host matrix
[OGL LOG] update_host_mtx : 77 ms
[OGL LOG] matrix is not yet sorted, sorting host matrix
[OGL LOG] sort_host_mtx_sparsity_pattern : 112 ms
[OGL LOG] sort_host_mtx : 53 ms
[OGL LOG] init_preconditioner : 0 ms
[OGL LOG] solve : 313 ms
nonecudaGKOBiCGStab:  Solving for p, Initial residual = 0.930431, Final residual = 7.82705e-05, No Iterations 219
linear solve p 730
time step continuity errors : sum local = 2.95795e-07, global = -1.15767e-22, cumulative = -8.60784e-19
ExecutionTime = 9.45 s  ClockTime = 9 s

Time = 0.002

Courant Number mean: 0.0375688 max: 0.610422
nonePBiCGStab:  Solving for Ux, Initial residual = 0.144883, Final residual = 0.0303357, No Iterations 5
nonePBiCGStab:  Solving for Uy, Initial residual = 0.406588, Final residual = 0.0815303, No Iterations 5
nonePBiCGStab:  Solving for Uz, Initial residual = 0.88429, Final residual = 0.225144, No Iterations 5
linear solve U 289
[OGL LOG] init_host_sparsity_pattern : 147 ms
[OGL LOG] matrix not stored update host matrix
[OGL LOG] update_host_mtx : 76 ms
[OGL LOG] matrix is not yet sorted, sorting host matrix
[OGL LOG] sort_host_mtx_sparsity_pattern : 108 ms
[OGL LOG] sort_host_mtx : 53 ms
[OGL LOG] init_preconditioner : 0 ms
[OGL LOG] solve : 587 ms
nonecudaGKOBiCGStab:  Solving for p, Initial residual = 0.96962, Final residual = 6.499e-05, No Iterations 413
linear solve p 1005
time step continuity errors : sum local = 0.00523429, global = 1.8191e-18, cumulative = 9.58317e-19
[OGL LOG] init_host_sparsity_pattern : 143 ms
[OGL LOG] matrix not stored update host matrix
[OGL LOG] update_host_mtx : 78 ms
[OGL LOG] matrix is not yet sorted, sorting host matrix
[OGL LOG] sort_host_mtx_sparsity_pattern : 108 ms
[OGL LOG] sort_host_mtx : 53 ms
[OGL LOG] init_preconditioner : 0 ms
[OGL LOG] solve : 299 ms
nonecudaGKOBiCGStab:  Solving for p, Initial residual = 0.75284, Final residual = 9.167e-05, No Iterations 208
linear solve p 721
time step continuity errors : sum local = 6.09744e-06, global = -1.13913e-20, cumulative = 9.46926e-19
ExecutionTime = 11.79 s  ClockTime = 12 s

Time = 0.003

Courant Number mean: 0.0610558 max: 0.779817
nonePBiCGStab:  Solving for Ux, Initial residual = 0.06084, Final residual = 0.0105227, No Iterations 5
nonePBiCGStab:  Solving for Uy, Initial residual = 0.214444, Final residual = 0.0555801, No Iterations 5
nonePBiCGStab:  Solving for Uz, Initial residual = 0.850998, Final residual = 0.201904, No Iterations 5
linear solve U 288
[OGL LOG] init_host_sparsity_pattern : 145 ms
[OGL LOG] matrix not stored update host matrix
[OGL LOG] update_host_mtx : 77 ms
[OGL LOG] matrix is not yet sorted, sorting host matrix
[OGL LOG] sort_host_mtx_sparsity_pattern : 106 ms
[OGL LOG] sort_host_mtx : 53 ms
[OGL LOG] init_preconditioner : 0 ms
[OGL LOG] solve : 610 ms
nonecudaGKOBiCGStab:  Solving for p, Initial residual = 0.988392, Final residual = 4.14106e-05, No Iterations 428
linear solve p 1027
time step continuity errors : sum local = 0.1132, global = 4.12465e-16, cumulative = 4.13412e-16
[OGL LOG] init_host_sparsity_pattern : 144 ms
[OGL LOG] matrix not stored update host matrix
[OGL LOG] update_host_mtx : 77 ms
[OGL LOG] matrix is not yet sorted, sorting host matrix
[OGL LOG] sort_host_mtx_sparsity_pattern : 106 ms
[OGL LOG] sort_host_mtx : 53 ms
[OGL LOG] init_preconditioner : 0 ms
[OGL LOG] solve : 199 ms
nonecudaGKOBiCGStab:  Solving for p, Initial residual = 0.870474, Final residual = 9.75946e-05, No Iterations 137
linear solve p 612
time step continuity errors : sum local = 3.19933e-05, global = -3.07207e-19, cumulative = 4.13104e-16
ExecutionTime = 14.03 s  ClockTime = 14 s

Time = 0.004

Courant Number mean: 0.0821222 max: 1.20117
nonePBiCGStab:  Solving for Ux, Initial residual = 0.0803299, Final residual = 0.0209859, No Iterations 5
nonePBiCGStab:  Solving for Uy, Initial residual = 0.389139, Final residual = 0.146677, No Iterations 5
nonePBiCGStab:  Solving for Uz, Initial residual = 0.865458, Final residual = 0.228885, No Iterations 5
linear solve U 287
[OGL LOG] init_host_sparsity_pattern : 143 ms
[OGL LOG] matrix not stored update host matrix
[OGL LOG] update_host_mtx : 76 ms
[OGL LOG] matrix is not yet sorted, sorting host matrix
[OGL LOG] sort_host_mtx_sparsity_pattern : 106 ms
[OGL LOG] sort_host_mtx : 52 ms
[OGL LOG] init_preconditioner : 0 ms
[OGL LOG] solve : 589 ms
nonecudaGKOBiCGStab:  Solving for p, Initial residual = 0.997919, Final residual = 9.48312e-05, No Iterations 413
linear solve p 1001
time step continuity errors : sum local = 0.102031, global = 2.09263e-16, cumulative = 6.22367e-16
[OGL LOG] init_host_sparsity_pattern : 145 ms
[OGL LOG] matrix not stored update host matrix
[OGL LOG] update_host_mtx : 77 ms
[OGL LOG] matrix is not yet sorted, sorting host matrix
[OGL LOG] sort_host_mtx_sparsity_pattern : 111 ms
[OGL LOG] sort_host_mtx : 53 ms
[OGL LOG] init_preconditioner : 0 ms
[OGL LOG] solve : 240 ms
nonecudaGKOBiCGStab:  Solving for p, Initial residual = 0.82636, Final residual = 9.80331e-05, No Iterations 166
linear solve p 663
time step continuity errors : sum local = 8.47709e-05, global = -1.15885e-18, cumulative = 6.21208e-16
ExecutionTime = 16.29 s  ClockTime = 16 s

Time = 0.005

Courant Number mean: 0.331607 max: 6.78512
nonePBiCGStab:  Solving for Ux, Initial residual = 0.506127, Final residual = 0.125516, No Iterations 5
nonePBiCGStab:  Solving for Uy, Initial residual = 0.811995, Final residual = 0.228192, No Iterations 5
nonePBiCGStab:  Solving for Uz, Initial residual = 0.847633, Final residual = 0.165003, No Iterations 5
linear solve U 287
[OGL LOG] init_host_sparsity_pattern : 143 ms
[OGL LOG] matrix not stored update host matrix
[OGL LOG] update_host_mtx : 78 ms
[OGL LOG] matrix is not yet sorted, sorting host matrix
[OGL LOG] sort_host_mtx_sparsity_pattern : 106 ms
[OGL LOG] sort_host_mtx : 53 ms
[OGL LOG] init_preconditioner : 0 ms
[OGL LOG] solve : 664 ms
nonecudaGKOBiCGStab:  Solving for p, Initial residual = 0.989968, Final residual = 8.88735e-05, No Iterations 464
linear solve p 1079
time step continuity errors : sum local = 0.622822, global = -5.9239e-16, cumulative = 2.88185e-17
[OGL LOG] init_host_sparsity_pattern : 143 ms
[OGL LOG] matrix not stored update host matrix
[OGL LOG] update_host_mtx : 78 ms
[OGL LOG] matrix is not yet sorted, sorting host matrix
[OGL LOG] sort_host_mtx_sparsity_pattern : 107 ms
[OGL LOG] sort_host_mtx : 53 ms
[OGL LOG] init_preconditioner : 0 ms
[OGL LOG] solve : 268 ms
nonecudaGKOBiCGStab:  Solving for p, Initial residual = 0.750383, Final residual = 9.84471e-05, No Iterations 186
linear solve p 683
time step continuity errors : sum local = 0.000471019, global = -4.14789e-18, cumulative = 2.46706e-17
ExecutionTime = 18.64 s  ClockTime = 19 s

Time = 0.006

Courant Number mean: 0.316013 max: 36.78
nonePBiCGStab:  Solving for Ux, Initial residual = 0.509084, Final residual = 0.115852, No Iterations 5
nonePBiCGStab:  Solving for Uy, Initial residual = 0.694599, Final residual = 0.247446, No Iterations 5
nonePBiCGStab:  Solving for Uz, Initial residual = 0.860282, Final residual = 0.229788, No Iterations 5
linear solve U 300
[OGL LOG] init_host_sparsity_pattern : 143 ms
[OGL LOG] matrix not stored update host matrix
[OGL LOG] update_host_mtx : 78 ms
[OGL LOG] matrix is not yet sorted, sorting host matrix
[OGL LOG] sort_host_mtx_sparsity_pattern : 107 ms
[OGL LOG] sort_host_mtx : 54 ms
[OGL LOG] init_preconditioner : 0 ms
[OGL LOG] solve : 625 ms
nonecudaGKOBiCGStab:  Solving for p, Initial residual = 0.992651, Final residual = 7.79168e-05, No Iterations 440
linear solve p 1041
time step continuity errors : sum local = 0.000309881, global = 4.99511e-19, cumulative = 2.51701e-17
[OGL LOG] init_host_sparsity_pattern : 145 ms
[OGL LOG] matrix not stored update host matrix
[OGL LOG] update_host_mtx : 81 ms
[OGL LOG] matrix is not yet sorted, sorting host matrix
[OGL LOG] sort_host_mtx_sparsity_pattern : 109 ms
[OGL LOG] sort_host_mtx : 57 ms
[OGL LOG] init_preconditioner : 0 ms
[OGL LOG] solve : 623 ms
nonecudaGKOBiCGStab:  Solving for p, Initial residual = 0.865498, Final residual = 6.68717e-05, No Iterations 439
linear solve p 1052
time step continuity errors : sum local = 1.54386, global = -1.67376e-15, cumulative = -1.64859e-15
ExecutionTime = 21.35 s  ClockTime = 21 s

Time = 0.007

Courant Number mean: 2.28153 max: 85.4733
nonePBiCGStab:  Solving for Ux, Initial residual = 0.846193, Final residual = 0.618473, No Iterations 5
nonePBiCGStab:  Solving for Uy, Initial residual = 0.857815, Final residual = 1.05911, No Iterations 5
nonePBiCGStab:  Solving for Uz, Initial residual = 0.624312, Final residual = 2.94375, No Iterations 5
linear solve U 286
[OGL LOG] init_host_sparsity_pattern : 145 ms
[OGL LOG] matrix not stored update host matrix
[OGL LOG] update_host_mtx : 77 ms
[OGL LOG] matrix is not yet sorted, sorting host matrix
[OGL LOG] sort_host_mtx_sparsity_pattern : 107 ms
[OGL LOG] sort_host_mtx : 54 ms
[OGL LOG] init_preconditioner : 0 ms
[OGL LOG] solve : 3625 ms
nonecudaGKOBiCGStab:  Solving for p, Initial residual = 0.903487, Final residual = 9.59218e-05, No Iterations 2565
linear solve p 4043
time step continuity errors : sum local = 0.207494, global = 3.01677e-16, cumulative = -1.34691e-15
[OGL LOG] init_host_sparsity_pattern : 144 ms
[OGL LOG] matrix not stored update host matrix
[OGL LOG] update_host_mtx : 78 ms
[OGL LOG] matrix is not yet sorted, sorting host matrix
[OGL LOG] sort_host_mtx_sparsity_pattern : 112 ms
[OGL LOG] sort_host_mtx : 54 ms
[OGL LOG] init_preconditioner : 0 ms
[OGL LOG] solve : 4197 ms
nonecudaGKOBiCGStab:  Solving for p, Initial residual = 0.768574, Final residual = 9.22381e-05, No Iterations 2981
linear solve p 4620
time step continuity errors : sum local = 0.856809, global = -3.54981e-16, cumulative = -1.70189e-15
ExecutionTime = 30.62 s  ClockTime = 31 s

Time = 0.008

Courant Number mean: 25.6648 max: 6943.9
nonePBiCGStab:  Solving for Ux, Initial residual = 0.967964, Final residual = 0.872225, No Iterations 5
nonePBiCGStab:  Solving for Uy, Initial residual = 0.991714, Final residual = 0.404504, No Iterations 5
nonePBiCGStab:  Solving for Uz, Initial residual = 0.971881, Final residual = 0.467647, No Iterations 5
linear solve U 290
[OGL LOG] init_host_sparsity_pattern : 146 ms
[OGL LOG] matrix not stored update host matrix
[OGL LOG] update_host_mtx : 77 ms
[OGL LOG] matrix is not yet sorted, sorting host matrix
[OGL LOG] sort_host_mtx_sparsity_pattern : 109 ms
[OGL LOG] sort_host_mtx : 53 ms
[OGL LOG] init_preconditioner : 0 ms
[OGL LOG] solve : 284 ms
nonecudaGKOBiCGStab:  Solving for p, Initial residual = 0.894779, Final residual = 9.93463e-05, No Iterations 197
linear solve p 703
time step continuity errors : sum local = 0.0423203, global = -1.02503e-16, cumulative = -1.80439e-15
[OGL LOG] init_host_sparsity_pattern : 144 ms
[OGL LOG] matrix not stored update host matrix
[OGL LOG] update_host_mtx : 77 ms
[OGL LOG] matrix is not yet sorted, sorting host matrix
[OGL LOG] sort_host_mtx_sparsity_pattern : 108 ms
[OGL LOG] sort_host_mtx : 54 ms
[OGL LOG] init_preconditioner : 0 ms
[OGL LOG] solve : 256 ms
nonecudaGKOBiCGStab:  Solving for p, Initial residual = 0.978943, Final residual = 9.68777e-05, No Iterations 177
linear solve p 673
time step continuity errors : sum local = 1.6682, global = 1.14849e-15, cumulative = -6.559e-16
ExecutionTime = 32.58 s  ClockTime = 33 s

Time = 0.009

Courant Number mean: 11268.2 max: 4.54516e+07
nonePBiCGStab:  Solving for Ux, Initial residual = 0.999996, Final residual = 1.3029, No Iterations 5
nonePBiCGStab:  Solving for Uy, Initial residual = 0.999992, Final residual = 0.857023, No Iterations 5
nonePBiCGStab:  Solving for Uz, Initial residual = 0.999992, Final residual = 0.769788, No Iterations 5
linear solve U 288
[OGL LOG] init_host_sparsity_pattern : 146 ms
[OGL LOG] matrix not stored update host matrix
[OGL LOG] update_host_mtx : 81 ms
[OGL LOG] matrix is not yet sorted, sorting host matrix
[OGL LOG] sort_host_mtx_sparsity_pattern : 110 ms
[OGL LOG] sort_host_mtx : 53 ms
[OGL LOG] init_preconditioner : 0 ms
[OGL LOG] solve : 4225 ms
nonecudaGKOBiCGStab:  Solving for p, Initial residual = 0.999989, Final residual = 0.925789, No Iterations 3000
linear solve p 4649
time step continuity errors : sum local = 1.44221e+09, global = 3.22836e-07, cumulative = 3.22836e-07
[OGL LOG] init_host_sparsity_pattern : 144 ms
[OGL LOG] matrix not stored update host matrix
[OGL LOG] update_host_mtx : 77 ms
[OGL LOG] matrix is not yet sorted, sorting host matrix
[OGL LOG] sort_host_mtx_sparsity_pattern : 113 ms
[OGL LOG] sort_host_mtx : 53 ms
[OGL LOG] init_preconditioner : 0 ms
[OGL LOG] solve : 4227 ms
nonecudaGKOBiCGStab:  Solving for p, Initial residual = 0.999988, Final residual = 0.571799, No Iterations 3000
linear solve p 4650
time step continuity errors : sum local = 1.39008e+14, global = 0.0298151, cumulative = 0.0298154
ExecutionTime = 42.49 s  ClockTime = 43 s

Time = 0.01

Courant Number mean: 3.49693e+14 max: 3.72098e+18
nonePBiCGStab:  Solving for Ux, Initial residual = 0.99998, Final residual = 0.412178, No Iterations 5
nonePBiCGStab:  Solving for Uy, Initial residual = 0.999953, Final residual = 0.991428, No Iterations 5
nonePBiCGStab:  Solving for Uz, Initial residual = 0.999966, Final residual = 0.489073, No Iterations 5
linear solve U 288
[OGL LOG] init_host_sparsity_pattern : 144 ms
[OGL LOG] matrix not stored update host matrix
[OGL LOG] update_host_mtx : 77 ms
[OGL LOG] matrix is not yet sorted, sorting host matrix
[OGL LOG] sort_host_mtx_sparsity_pattern : 106 ms
[OGL LOG] sort_host_mtx : 53 ms
[OGL LOG] init_preconditioner : 0 ms
[OGL LOG] solve : 4225 ms
nonecudaGKOBiCGStab:  Solving for p, Initial residual = 1, Final residual = 2289.79, No Iterations 3000
linear solve p 4640
time step continuity errors : sum local = 6.86659e+19, global = 6561.35, cumulative = 6561.38
[OGL LOG] init_host_sparsity_pattern : 144 ms
[OGL LOG] matrix not stored update host matrix
[OGL LOG] update_host_mtx : 79 ms
[OGL LOG] matrix is not yet sorted, sorting host matrix
[OGL LOG] sort_host_mtx_sparsity_pattern : 106 ms
[OGL LOG] sort_host_mtx : 60 ms
[OGL LOG] init_preconditioner : 0 ms
[OGL LOG] solve : 4229 ms
nonecudaGKOBiCGStab:  Solving for p, Initial residual = 0.999037, Final residual = 1.39458, No Iterations 3000
linear solve p 4657
time step continuity errors : sum local = 7.2235e+22, global = 3.84432e+06, cumulative = 3.85088e+06
ExecutionTime = 52.36 s  ClockTime = 52 s

End

