/*---------------------------------------------------------------------------*\
  =========                 |
  \\      /  F ield         | OpenFOAM: The Open Source CFD Toolbox
   \\    /   O peration     | Website:  https://openfoam.org
    \\  /    A nd           | Version:  8
     \\/     M anipulation  |
\*---------------------------------------------------------------------------*/
Build  : 8-40a5a48f630f
Exec   : icoFoam
Date   : Jul 27 2021
Time   : 22:19:12
Host   : "uc2n481.localdomain"
PID    : 132780
I/O    : uncollated
Case   : /pfs/data5/home/kit/scc/nq7776/code/OBR/lidDrivenCavity3D/Variation_mesh/95/Variation_matrix_solver/BiCGStab_BJ_CUDA/base
nProcs : 1
sigFpe : Enabling floating point exception trapping (FOAM_SIGFPE).
fileModificationChecking : Monitoring run-time modified files using timeStampMaster (fileModificationSkew 10)
allowSystemOperations : Allowing user-supplied system call operations

// * * * * * * * * * * * * * * * * * * * * * * * * * * * * * * * * * * * * * //
Create time

Create mesh for time = 0

Reading transportProperties

Reading field p

Reading field U

Reading/calculating face flux field phi


Starting time loop

Time = 0.001

Courant Number mean: 0 max: 0
nonePBiCGStab:  Solving for Ux, Initial residual = 1, Final residual = 0.078913, No Iterations 5
nonePBiCGStab:  Solving for Uy, Initial residual = 0, Final residual = 0, No Iterations 0
nonePBiCGStab:  Solving for Uz, Initial residual = 0, Final residual = 0, No Iterations 0
linear solve U 238
[OGL LOG] init_host_sparsity_pattern : 255 ms
[OGL LOG] matrix not stored update host matrix
[OGL LOG] update_host_mtx : 129 ms
[OGL LOG] matrix is not yet sorted, compute sorting idxs
[OGL LOG] compute_sort : 7854 ms
[OGL LOG] matrix is not yet sorted, sorting host matrix
[OGL LOG] sort_host_mtx_sparsity_pattern : 177 ms
[OGL LOG] sort_host_mtx : 100 ms
[OGL LOG] init_preconditioner : 93 ms
[OGL LOG] solve : 1181 ms
BJcudaGKOBiCGStab:  Solving for p, Initial residual = 1, Final residual = 9.59838e-05, No Iterations 482
linear solve p 10643
time step continuity errors : sum local = 0.00780015, global = 2.8632e-18, cumulative = 2.8632e-18
[OGL LOG] init_host_sparsity_pattern : 248 ms
[OGL LOG] matrix not stored update host matrix
[OGL LOG] update_host_mtx : 132 ms
[OGL LOG] matrix is not yet sorted, sorting host matrix
[OGL LOG] sort_host_mtx_sparsity_pattern : 180 ms
[OGL LOG] sort_host_mtx : 90 ms
[OGL LOG] init_preconditioner : 0 ms
[OGL LOG] solve : 493 ms
BJcudaGKOBiCGStab:  Solving for p, Initial residual = 0.985787, Final residual = 8.10366e-05, No Iterations 196
linear solve p 1202
time step continuity errors : sum local = 7.46338e-06, global = 2.43046e-20, cumulative = 2.88751e-18
ExecutionTime = 15.78 s  ClockTime = 16 s

Time = 0.002

Courant Number mean: 0.0413479 max: 0.765012
nonePBiCGStab:  Solving for Ux, Initial residual = 0.143655, Final residual = 0.0388295, No Iterations 5
nonePBiCGStab:  Solving for Uy, Initial residual = 0.457147, Final residual = 0.147184, No Iterations 5
nonePBiCGStab:  Solving for Uz, Initial residual = 0.88302, Final residual = 0.306373, No Iterations 5
linear solve U 500
[OGL LOG] init_host_sparsity_pattern : 244 ms
[OGL LOG] matrix not stored update host matrix
[OGL LOG] update_host_mtx : 129 ms
[OGL LOG] matrix is not yet sorted, sorting host matrix
[OGL LOG] sort_host_mtx_sparsity_pattern : 180 ms
[OGL LOG] sort_host_mtx : 89 ms
[OGL LOG] init_preconditioner : 0 ms
[OGL LOG] solve : 1080 ms
BJcudaGKOBiCGStab:  Solving for p, Initial residual = 0.99552, Final residual = 9.94568e-05, No Iterations 433
linear solve p 1780
time step continuity errors : sum local = 7.33878e-06, global = 1.34245e-19, cumulative = 3.02175e-18
[OGL LOG] init_host_sparsity_pattern : 249 ms
[OGL LOG] matrix not stored update host matrix
[OGL LOG] update_host_mtx : 128 ms
[OGL LOG] matrix is not yet sorted, sorting host matrix
[OGL LOG] sort_host_mtx_sparsity_pattern : 181 ms
[OGL LOG] sort_host_mtx : 89 ms
[OGL LOG] init_preconditioner : 0 ms
[OGL LOG] solve : 423 ms
BJcudaGKOBiCGStab:  Solving for p, Initial residual = 0.882485, Final residual = 9.18128e-05, No Iterations 168
linear solve p 1129
time step continuity errors : sum local = 6.94951e-06, global = 3.52053e-20, cumulative = 3.05696e-18
ExecutionTime = 19.74 s  ClockTime = 20 s

Time = 0.003

Courant Number mean: 0.0808927 max: 1.35173
nonePBiCGStab:  Solving for Ux, Initial residual = 0.119923, Final residual = 0.031928, No Iterations 5
nonePBiCGStab:  Solving for Uy, Initial residual = 0.48874, Final residual = 0.144355, No Iterations 5
nonePBiCGStab:  Solving for Uz, Initial residual = 0.885097, Final residual = 0.1588, No Iterations 5
linear solve U 491
[OGL LOG] init_host_sparsity_pattern : 244 ms
[OGL LOG] matrix not stored update host matrix
[OGL LOG] update_host_mtx : 129 ms
[OGL LOG] matrix is not yet sorted, sorting host matrix
[OGL LOG] sort_host_mtx_sparsity_pattern : 185 ms
[OGL LOG] sort_host_mtx : 90 ms
[OGL LOG] init_preconditioner : 0 ms
[OGL LOG] solve : 918 ms
BJcudaGKOBiCGStab:  Solving for p, Initial residual = 0.988568, Final residual = 7.38481e-05, No Iterations 366
linear solve p 1620
time step continuity errors : sum local = 5.51426e-06, global = 4.22001e-20, cumulative = 3.09916e-18
[OGL LOG] init_host_sparsity_pattern : 247 ms
[OGL LOG] matrix not stored update host matrix
[OGL LOG] update_host_mtx : 129 ms
[OGL LOG] matrix is not yet sorted, sorting host matrix
[OGL LOG] sort_host_mtx_sparsity_pattern : 179 ms
[OGL LOG] sort_host_mtx : 89 ms
[OGL LOG] init_preconditioner : 0 ms
[OGL LOG] solve : 908 ms
BJcudaGKOBiCGStab:  Solving for p, Initial residual = 0.85835, Final residual = 9.90673e-05, No Iterations 362
linear solve p 1609
time step continuity errors : sum local = 0.00518471, global = -2.63327e-17, cumulative = -2.32335e-17
ExecutionTime = 23.98 s  ClockTime = 24 s

Time = 0.004

Courant Number mean: 0.0858602 max: 1.26687
nonePBiCGStab:  Solving for Ux, Initial residual = 0.095638, Final residual = 0.0296311, No Iterations 5
nonePBiCGStab:  Solving for Uy, Initial residual = 0.377589, Final residual = 0.123266, No Iterations 5
nonePBiCGStab:  Solving for Uz, Initial residual = 0.820336, Final residual = 0.190638, No Iterations 5
linear solve U 488
[OGL LOG] init_host_sparsity_pattern : 250 ms
[OGL LOG] matrix not stored update host matrix
[OGL LOG] update_host_mtx : 132 ms
[OGL LOG] matrix is not yet sorted, sorting host matrix
[OGL LOG] sort_host_mtx_sparsity_pattern : 181 ms
[OGL LOG] sort_host_mtx : 89 ms
[OGL LOG] init_preconditioner : 0 ms
[OGL LOG] solve : 1099 ms
BJcudaGKOBiCGStab:  Solving for p, Initial residual = 0.986143, Final residual = 7.6488e-05, No Iterations 440
linear solve p 1807
time step continuity errors : sum local = 0.00465792, global = -7.02131e-18, cumulative = -3.02548e-17
[OGL LOG] init_host_sparsity_pattern : 246 ms
[OGL LOG] matrix not stored update host matrix
[OGL LOG] update_host_mtx : 129 ms
[OGL LOG] matrix is not yet sorted, sorting host matrix
[OGL LOG] sort_host_mtx_sparsity_pattern : 180 ms
[OGL LOG] sort_host_mtx : 90 ms
[OGL LOG] init_preconditioner : 0 ms
[OGL LOG] solve : 1196 ms
BJcudaGKOBiCGStab:  Solving for p, Initial residual = 0.777382, Final residual = 9.5667e-05, No Iterations 481
linear solve p 1896
time step continuity errors : sum local = 0.00477369, global = 8.91106e-18, cumulative = -2.13438e-17
ExecutionTime = 28.71 s  ClockTime = 29 s

Time = 0.005

Courant Number mean: 0.102279 max: 1.46623
nonePBiCGStab:  Solving for Ux, Initial residual = 0.100692, Final residual = 0.0299457, No Iterations 5
nonePBiCGStab:  Solving for Uy, Initial residual = 0.445913, Final residual = 0.146149, No Iterations 5
nonePBiCGStab:  Solving for Uz, Initial residual = 0.889915, Final residual = 0.198023, No Iterations 5
linear solve U 487
[OGL LOG] init_host_sparsity_pattern : 244 ms
[OGL LOG] matrix not stored update host matrix
[OGL LOG] update_host_mtx : 131 ms
[OGL LOG] matrix is not yet sorted, sorting host matrix
[OGL LOG] sort_host_mtx_sparsity_pattern : 181 ms
[OGL LOG] sort_host_mtx : 90 ms
[OGL LOG] init_preconditioner : 0 ms
[OGL LOG] solve : 982 ms
BJcudaGKOBiCGStab:  Solving for p, Initial residual = 0.987628, Final residual = 9.53274e-05, No Iterations 397
linear solve p 1683
time step continuity errors : sum local = 0.0363984, global = 3.44331e-17, cumulative = 1.30893e-17
[OGL LOG] init_host_sparsity_pattern : 248 ms
[OGL LOG] matrix not stored update host matrix
[OGL LOG] update_host_mtx : 128 ms
[OGL LOG] matrix is not yet sorted, sorting host matrix
[OGL LOG] sort_host_mtx_sparsity_pattern : 186 ms
[OGL LOG] sort_host_mtx : 90 ms
[OGL LOG] init_preconditioner : 0 ms
[OGL LOG] solve : 355 ms
BJcudaGKOBiCGStab:  Solving for p, Initial residual = 0.773147, Final residual = 9.99948e-05, No Iterations 142
linear solve p 1062
time step continuity errors : sum local = 2.07574e-05, global = 1.80257e-19, cumulative = 1.32696e-17
ExecutionTime = 32.48 s  ClockTime = 32 s

Time = 0.006

Courant Number mean: 0.113904 max: 3.09263
nonePBiCGStab:  Solving for Ux, Initial residual = 0.141141, Final residual = 0.0520094, No Iterations 5
nonePBiCGStab:  Solving for Uy, Initial residual = 0.505166, Final residual = 0.198331, No Iterations 5
nonePBiCGStab:  Solving for Uz, Initial residual = 0.868618, Final residual = 0.253228, No Iterations 5
linear solve U 488
[OGL LOG] init_host_sparsity_pattern : 245 ms
[OGL LOG] matrix not stored update host matrix
[OGL LOG] update_host_mtx : 130 ms
[OGL LOG] matrix is not yet sorted, sorting host matrix
[OGL LOG] sort_host_mtx_sparsity_pattern : 179 ms
[OGL LOG] sort_host_mtx : 90 ms
[OGL LOG] init_preconditioner : 0 ms
[OGL LOG] solve : 1066 ms
BJcudaGKOBiCGStab:  Solving for p, Initial residual = 0.991315, Final residual = 9.96057e-05, No Iterations 432
linear solve p 1766
time step continuity errors : sum local = 0.0424141, global = 7.91773e-17, cumulative = 9.24468e-17
[OGL LOG] init_host_sparsity_pattern : 248 ms
[OGL LOG] matrix not stored update host matrix
[OGL LOG] update_host_mtx : 128 ms
[OGL LOG] matrix is not yet sorted, sorting host matrix
[OGL LOG] sort_host_mtx_sparsity_pattern : 182 ms
[OGL LOG] sort_host_mtx : 89 ms
[OGL LOG] init_preconditioner : 0 ms
[OGL LOG] solve : 1066 ms
BJcudaGKOBiCGStab:  Solving for p, Initial residual = 0.812348, Final residual = 9.85829e-05, No Iterations 433
linear solve p 1772
time step continuity errors : sum local = 0.0418769, global = -4.81955e-17, cumulative = 4.42514e-17
ExecutionTime = 37.04 s  ClockTime = 37 s

Time = 0.007

Courant Number mean: 0.200661 max: 5.11401
nonePBiCGStab:  Solving for Ux, Initial residual = 0.35838, Final residual = 0.126363, No Iterations 5
nonePBiCGStab:  Solving for Uy, Initial residual = 0.720468, Final residual = 0.287281, No Iterations 5
nonePBiCGStab:  Solving for Uz, Initial residual = 0.871623, Final residual = 0.239003, No Iterations 5
linear solve U 490
[OGL LOG] init_host_sparsity_pattern : 243 ms
[OGL LOG] matrix not stored update host matrix
[OGL LOG] update_host_mtx : 129 ms
[OGL LOG] matrix is not yet sorted, sorting host matrix
[OGL LOG] sort_host_mtx_sparsity_pattern : 179 ms
[OGL LOG] sort_host_mtx : 90 ms
[OGL LOG] init_preconditioner : 0 ms
[OGL LOG] solve : 1023 ms
BJcudaGKOBiCGStab:  Solving for p, Initial residual = 0.992489, Final residual = 9.88667e-05, No Iterations 415
linear solve p 1721
time step continuity errors : sum local = 0.0667615, global = -1.37552e-16, cumulative = -9.33004e-17
[OGL LOG] init_host_sparsity_pattern : 249 ms
[OGL LOG] matrix not stored update host matrix
[OGL LOG] update_host_mtx : 130 ms
[OGL LOG] matrix is not yet sorted, sorting host matrix
[OGL LOG] sort_host_mtx_sparsity_pattern : 181 ms
[OGL LOG] sort_host_mtx : 90 ms
[OGL LOG] init_preconditioner : 0 ms
[OGL LOG] solve : 943 ms
BJcudaGKOBiCGStab:  Solving for p, Initial residual = 0.797097, Final residual = 9.58189e-05, No Iterations 384
linear solve p 1649
time step continuity errors : sum local = 0.000137561, global = 1.91391e-18, cumulative = -9.13865e-17
ExecutionTime = 41.42 s  ClockTime = 41 s

Time = 0.008

Courant Number mean: 0.314567 max: 29.481
nonePBiCGStab:  Solving for Ux, Initial residual = 0.559156, Final residual = 0.206942, No Iterations 5
nonePBiCGStab:  Solving for Uy, Initial residual = 0.809168, Final residual = 0.300159, No Iterations 5
nonePBiCGStab:  Solving for Uz, Initial residual = 0.862097, Final residual = 0.230562, No Iterations 5
linear solve U 499
[OGL LOG] init_host_sparsity_pattern : 244 ms
[OGL LOG] matrix not stored update host matrix
[OGL LOG] update_host_mtx : 129 ms
[OGL LOG] matrix is not yet sorted, sorting host matrix
[OGL LOG] sort_host_mtx_sparsity_pattern : 185 ms
[OGL LOG] sort_host_mtx : 89 ms
[OGL LOG] init_preconditioner : 0 ms
[OGL LOG] solve : 1150 ms
BJcudaGKOBiCGStab:  Solving for p, Initial residual = 0.991637, Final residual = 4.82048e-05, No Iterations 467
linear solve p 1852
time step continuity errors : sum local = 0.140449, global = 4.76916e-18, cumulative = -8.66173e-17
[OGL LOG] init_host_sparsity_pattern : 249 ms
[OGL LOG] matrix not stored update host matrix
[OGL LOG] update_host_mtx : 129 ms
[OGL LOG] matrix is not yet sorted, sorting host matrix
[OGL LOG] sort_host_mtx_sparsity_pattern : 179 ms
[OGL LOG] sort_host_mtx : 89 ms
[OGL LOG] init_preconditioner : 0 ms
[OGL LOG] solve : 1096 ms
BJcudaGKOBiCGStab:  Solving for p, Initial residual = 0.800979, Final residual = 9.76837e-05, No Iterations 446
linear solve p 1797
time step continuity errors : sum local = 0.000101942, global = 3.53669e-20, cumulative = -8.65819e-17
ExecutionTime = 46.09 s  ClockTime = 46 s

Time = 0.009

Courant Number mean: 0.290914 max: 23.5285
nonePBiCGStab:  Solving for Ux, Initial residual = 0.54012, Final residual = 0.171557, No Iterations 5
nonePBiCGStab:  Solving for Uy, Initial residual = 0.772594, Final residual = 0.267008, No Iterations 5
nonePBiCGStab:  Solving for Uz, Initial residual = 0.879801, Final residual = 0.184798, No Iterations 5
linear solve U 488
[OGL LOG] init_host_sparsity_pattern : 247 ms
[OGL LOG] matrix not stored update host matrix
[OGL LOG] update_host_mtx : 131 ms
[OGL LOG] matrix is not yet sorted, sorting host matrix
[OGL LOG] sort_host_mtx_sparsity_pattern : 181 ms
[OGL LOG] sort_host_mtx : 90 ms
[OGL LOG] init_preconditioner : 0 ms
[OGL LOG] solve : 1033 ms
BJcudaGKOBiCGStab:  Solving for p, Initial residual = 0.985316, Final residual = 9.85733e-05, No Iterations 419
linear solve p 1737
time step continuity errors : sum local = 0.0654367, global = -4.792e-17, cumulative = -1.34502e-16
[OGL LOG] init_host_sparsity_pattern : 248 ms
[OGL LOG] matrix not stored update host matrix
[OGL LOG] update_host_mtx : 130 ms
[OGL LOG] matrix is not yet sorted, sorting host matrix
[OGL LOG] sort_host_mtx_sparsity_pattern : 182 ms
[OGL LOG] sort_host_mtx : 98 ms
[OGL LOG] init_preconditioner : 0 ms
[OGL LOG] solve : 787 ms
BJcudaGKOBiCGStab:  Solving for p, Initial residual = 0.814364, Final residual = 9.94766e-05, No Iterations 319
linear solve p 1515
time step continuity errors : sum local = 0.0391838, global = -7.57996e-17, cumulative = -2.10302e-16
ExecutionTime = 50.35 s  ClockTime = 50 s

Time = 0.01

Courant Number mean: 0.473045 max: 62.8088
nonePBiCGStab:  Solving for Ux, Initial residual = 0.665613, Final residual = 0.286803, No Iterations 5
nonePBiCGStab:  Solving for Uy, Initial residual = 0.821007, Final residual = 0.343285, No Iterations 5
nonePBiCGStab:  Solving for Uz, Initial residual = 0.907857, Final residual = 0.23886, No Iterations 5
linear solve U 489
[OGL LOG] init_host_sparsity_pattern : 244 ms
[OGL LOG] matrix not stored update host matrix
[OGL LOG] update_host_mtx : 128 ms
[OGL LOG] matrix is not yet sorted, sorting host matrix
[OGL LOG] sort_host_mtx_sparsity_pattern : 179 ms
[OGL LOG] sort_host_mtx : 89 ms
[OGL LOG] init_preconditioner : 0 ms
[OGL LOG] solve : 1104 ms
BJcudaGKOBiCGStab:  Solving for p, Initial residual = 0.990761, Final residual = 8.83944e-05, No Iterations 447
linear solve p 1801
time step continuity errors : sum local = 0.208932, global = -6.08031e-16, cumulative = -8.18332e-16
[OGL LOG] init_host_sparsity_pattern : 250 ms
[OGL LOG] matrix not stored update host matrix
[OGL LOG] update_host_mtx : 130 ms
[OGL LOG] matrix is not yet sorted, sorting host matrix
[OGL LOG] sort_host_mtx_sparsity_pattern : 180 ms
[OGL LOG] sort_host_mtx : 89 ms
[OGL LOG] init_preconditioner : 0 ms
[OGL LOG] solve : 945 ms
BJcudaGKOBiCGStab:  Solving for p, Initial residual = 0.790443, Final residual = 9.93358e-05, No Iterations 384
linear solve p 1649
time step continuity errors : sum local = 0.145351, global = 8.91816e-17, cumulative = -7.29151e-16
ExecutionTime = 54.8 s  ClockTime = 55 s

End

