/*---------------------------------------------------------------------------*\
  =========                 |
  \\      /  F ield         | OpenFOAM: The Open Source CFD Toolbox
   \\    /   O peration     | Website:  https://openfoam.org
    \\  /    A nd           | Version:  8
     \\/     M anipulation  |
\*---------------------------------------------------------------------------*/
Build  : 8-40a5a48f630f
Exec   : icoFoam
Date   : Jul 28 2021
Time   : 01:52:24
Host   : "uc2n476.localdomain"
PID    : 1915406
I/O    : uncollated
Case   : /pfs/data5/home/kit/scc/nq7776/code/OBR/lidDrivenCavity3D/Variation_mesh/90/Variation_matrix_solver/BiCGStab_NoPrecond_Serial/base
nProcs : 1
sigFpe : Enabling floating point exception trapping (FOAM_SIGFPE).
fileModificationChecking : Monitoring run-time modified files using timeStampMaster (fileModificationSkew 10)
allowSystemOperations : Allowing user-supplied system call operations

// * * * * * * * * * * * * * * * * * * * * * * * * * * * * * * * * * * * * * //
Create time

Create mesh for time = 0

Reading transportProperties

Reading field p

Reading field U

Reading/calculating face flux field phi


Starting time loop

Time = 0.001

Courant Number mean: 0 max: 0
nonePBiCGStab:  Solving for Ux, Initial residual = 1, Final residual = 0.0756268, No Iterations 5
nonePBiCGStab:  Solving for Uy, Initial residual = 0, Final residual = 0, No Iterations 0
nonePBiCGStab:  Solving for Uz, Initial residual = 0, Final residual = 0, No Iterations 0
linear solve U 192
nonePBiCGStab:  Solving for p, Initial residual = 1, Final residual = 6.45234e-05, No Iterations 582
linear solve p 11671
time step continuity errors : sum local = 5.23649e-08, global = -7.28627e-21, cumulative = -7.28627e-21
nonePBiCGStab:  Solving for p, Initial residual = 0.701545, Final residual = 9.70335e-05, No Iterations 569
linear solve p 11368
time step continuity errors : sum local = 1.09544e-07, global = 1.45799e-21, cumulative = -5.82828e-21
ExecutionTime = 26.21 s  ClockTime = 26 s

Time = 0.002

Courant Number mean: 0.040102 max: 0.699775
nonePBiCGStab:  Solving for Ux, Initial residual = 0.140835, Final residual = 0.03554, No Iterations 5
nonePBiCGStab:  Solving for Uy, Initial residual = 0.428163, Final residual = 0.104399, No Iterations 5
nonePBiCGStab:  Solving for Uz, Initial residual = 0.979944, Final residual = 0.282391, No Iterations 5
linear solve U 426
nonePBiCGStab:  Solving for p, Initial residual = 0.764248, Final residual = 5.75033e-05, No Iterations 522
linear solve p 10484
time step continuity errors : sum local = 1.04106e-07, global = -2.34623e-21, cumulative = -8.17451e-21
nonePBiCGStab:  Solving for p, Initial residual = 0.686764, Final residual = 9.99809e-05, No Iterations 505
linear solve p 10338
time step continuity errors : sum local = 1.84711e-07, global = -1.75437e-21, cumulative = -9.92888e-21
ExecutionTime = 47.8 s  ClockTime = 48 s

Time = 0.003

Courant Number mean: 0.0633411 max: 0.801271
nonePBiCGStab:  Solving for Ux, Initial residual = 0.0593948, Final residual = 0.0122771, No Iterations 5
nonePBiCGStab:  Solving for Uy, Initial residual = 0.184905, Final residual = 0.0489965, No Iterations 5
nonePBiCGStab:  Solving for Uz, Initial residual = 0.683342, Final residual = 0.199588, No Iterations 5
linear solve U 431
nonePBiCGStab:  Solving for p, Initial residual = 0.757068, Final residual = 7.81661e-05, No Iterations 485
linear solve p 9751
time step continuity errors : sum local = 9.89208e-08, global = -9.16424e-21, cumulative = -1.90931e-20
nonePBiCGStab:  Solving for p, Initial residual = 0.685391, Final residual = 9.94275e-05, No Iterations 484
linear solve p 9717
time step continuity errors : sum local = 1.33834e-07, global = -1.53912e-20, cumulative = -3.44843e-20
ExecutionTime = 68.06 s  ClockTime = 68 s

Time = 0.004

Courant Number mean: 0.0762448 max: 0.816878
nonePBiCGStab:  Solving for Ux, Initial residual = 0.0372165, Final residual = 0.00812265, No Iterations 5
nonePBiCGStab:  Solving for Uy, Initial residual = 0.128476, Final residual = 0.0356128, No Iterations 5
nonePBiCGStab:  Solving for Uz, Initial residual = 0.488562, Final residual = 0.126797, No Iterations 5
linear solve U 431
nonePBiCGStab:  Solving for p, Initial residual = 0.654207, Final residual = 9.82358e-05, No Iterations 522
linear solve p 10429
time step continuity errors : sum local = 7.44407e-08, global = -1.85867e-21, cumulative = -3.6343e-20
nonePBiCGStab:  Solving for p, Initial residual = 0.561367, Final residual = 5.79875e-05, No Iterations 521
linear solve p 10409
time step continuity errors : sum local = 4.18541e-08, global = -1.02935e-20, cumulative = -4.66366e-20
ExecutionTime = 89.68 s  ClockTime = 90 s

Time = 0.005

Courant Number mean: 0.0866505 max: 0.829171
nonePBiCGStab:  Solving for Ux, Initial residual = 0.0278206, Final residual = 0.00610562, No Iterations 5
nonePBiCGStab:  Solving for Uy, Initial residual = 0.0841394, Final residual = 0.0259816, No Iterations 5
nonePBiCGStab:  Solving for Uz, Initial residual = 0.308243, Final residual = 0.0772194, No Iterations 5
linear solve U 428
nonePBiCGStab:  Solving for p, Initial residual = 0.685338, Final residual = 8.07246e-05, No Iterations 515
linear solve p 10298
time step continuity errors : sum local = 5.42826e-08, global = -1.48213e-20, cumulative = -6.14579e-20
nonePBiCGStab:  Solving for p, Initial residual = 0.603824, Final residual = 8.75428e-05, No Iterations 431
linear solve p 8632
time step continuity errors : sum local = 1.02632e-07, global = 2.55443e-20, cumulative = -3.59136e-20
ExecutionTime = 109.38 s  ClockTime = 110 s

Time = 0.006

Courant Number mean: 0.0946979 max: 0.835984
nonePBiCGStab:  Solving for Ux, Initial residual = 0.0216222, Final residual = 0.00481698, No Iterations 5
nonePBiCGStab:  Solving for Uy, Initial residual = 0.066115, Final residual = 0.0191861, No Iterations 5
nonePBiCGStab:  Solving for Uz, Initial residual = 0.231466, Final residual = 0.0644598, No Iterations 5
linear solve U 424
nonePBiCGStab:  Solving for p, Initial residual = 0.604513, Final residual = 9.43491e-05, No Iterations 459
linear solve p 9171
time step continuity errors : sum local = 1.20908e-07, global = 1.20708e-20, cumulative = -2.38428e-20
nonePBiCGStab:  Solving for p, Initial residual = 0.517357, Final residual = 9.80049e-05, No Iterations 469
linear solve p 9373
time step continuity errors : sum local = 1.24598e-07, global = 1.46355e-20, cumulative = -9.20735e-21
ExecutionTime = 128.71 s  ClockTime = 129 s

Time = 0.007

Courant Number mean: 0.101559 max: 0.841271
nonePBiCGStab:  Solving for Ux, Initial residual = 0.017806, Final residual = 0.00382102, No Iterations 5
nonePBiCGStab:  Solving for Uy, Initial residual = 0.0527209, Final residual = 0.0161635, No Iterations 5
nonePBiCGStab:  Solving for Uz, Initial residual = 0.224466, Final residual = 0.0731969, No Iterations 5
linear solve U 425
nonePBiCGStab:  Solving for p, Initial residual = 0.638594, Final residual = 9.73083e-05, No Iterations 446
linear solve p 8914
time step continuity errors : sum local = 1.14118e-07, global = 1.45136e-20, cumulative = 5.30623e-21
nonePBiCGStab:  Solving for p, Initial residual = 0.552158, Final residual = 9.51665e-05, No Iterations 447
linear solve p 8938
time step continuity errors : sum local = 1.1125e-07, global = 6.60467e-21, cumulative = 1.19109e-20
ExecutionTime = 147.34 s  ClockTime = 148 s

Time = 0.008

Courant Number mean: 0.107342 max: 0.844977
nonePBiCGStab:  Solving for Ux, Initial residual = 0.0155589, Final residual = 0.00363965, No Iterations 5
nonePBiCGStab:  Solving for Uy, Initial residual = 0.0444583, Final residual = 0.0117722, No Iterations 5
nonePBiCGStab:  Solving for Uz, Initial residual = 0.206755, Final residual = 0.062171, No Iterations 5
linear solve U 429
nonePBiCGStab:  Solving for p, Initial residual = 0.577704, Final residual = 9.416e-05, No Iterations 455
linear solve p 9106
time step continuity errors : sum local = 8.25347e-08, global = -8.1379e-21, cumulative = 3.773e-21
nonePBiCGStab:  Solving for p, Initial residual = 0.491723, Final residual = 9.47979e-05, No Iterations 575
linear solve p 11490
time step continuity errors : sum local = 6.10579e-08, global = -1.01293e-20, cumulative = -6.35629e-21
ExecutionTime = 168.72 s  ClockTime = 169 s

Time = 0.009

Courant Number mean: 0.112402 max: 0.84805
nonePBiCGStab:  Solving for Ux, Initial residual = 0.0135204, Final residual = 0.0031511, No Iterations 5
nonePBiCGStab:  Solving for Uy, Initial residual = 0.0381157, Final residual = 0.0108867, No Iterations 5
nonePBiCGStab:  Solving for Uz, Initial residual = 0.164734, Final residual = 0.0478481, No Iterations 5
linear solve U 428
nonePBiCGStab:  Solving for p, Initial residual = 0.613957, Final residual = 9.81172e-05, No Iterations 558
linear solve p 11154
time step continuity errors : sum local = 6.00961e-08, global = -5.56821e-21, cumulative = -1.19245e-20
nonePBiCGStab:  Solving for p, Initial residual = 0.526231, Final residual = 9.87826e-05, No Iterations 540
linear solve p 10797
time step continuity errors : sum local = 5.97201e-08, global = -4.52345e-21, cumulative = -1.6448e-20
ExecutionTime = 191.44 s  ClockTime = 192 s

Time = 0.01

Courant Number mean: 0.116809 max: 0.850479
nonePBiCGStab:  Solving for Ux, Initial residual = 0.0119025, Final residual = 0.0027261, No Iterations 5
nonePBiCGStab:  Solving for Uy, Initial residual = 0.0329714, Final residual = 0.00819657, No Iterations 5
nonePBiCGStab:  Solving for Uz, Initial residual = 0.118902, Final residual = 0.0337576, No Iterations 5
linear solve U 429
nonePBiCGStab:  Solving for p, Initial residual = 0.5663, Final residual = 9.6917e-05, No Iterations 435
linear solve p 8695
time step continuity errors : sum local = 1.19719e-07, global = 9.06441e-21, cumulative = -7.38354e-21
nonePBiCGStab:  Solving for p, Initial residual = 0.482799, Final residual = 6.63128e-05, No Iterations 487
linear solve p 9738
time step continuity errors : sum local = 4.9536e-08, global = -2.62812e-21, cumulative = -1.00117e-20
ExecutionTime = 210.65 s  ClockTime = 211 s

End

