/*---------------------------------------------------------------------------*\
  =========                 |
  \\      /  F ield         | OpenFOAM: The Open Source CFD Toolbox
   \\    /   O peration     | Website:  https://openfoam.org
    \\  /    A nd           | Version:  8
     \\/     M anipulation  |
\*---------------------------------------------------------------------------*/
Build  : 8-40a5a48f630f
Exec   : icoFoam
Date   : Jul 27 2021
Time   : 23:22:55
Host   : "uc2n481.localdomain"
PID    : 190856
I/O    : uncollated
Case   : /pfs/data5/home/kit/scc/nq7776/code/OBR/lidDrivenCavity3D/Variation_mesh/60/Variation_matrix_solver/BiCGStab_BJ_CUDA/base
nProcs : 1
sigFpe : Enabling floating point exception trapping (FOAM_SIGFPE).
fileModificationChecking : Monitoring run-time modified files using timeStampMaster (fileModificationSkew 10)
allowSystemOperations : Allowing user-supplied system call operations

// * * * * * * * * * * * * * * * * * * * * * * * * * * * * * * * * * * * * * //
Create time

Create mesh for time = 0

Reading transportProperties

Reading field p

Reading field U

Reading/calculating face flux field phi


Starting time loop

Time = 0.001

Courant Number mean: 0 max: 0
nonePBiCGStab:  Solving for Ux, Initial residual = 1, Final residual = 0.0470662, No Iterations 5
nonePBiCGStab:  Solving for Uy, Initial residual = 0, Final residual = 0, No Iterations 0
nonePBiCGStab:  Solving for Uz, Initial residual = 0, Final residual = 0, No Iterations 0
linear solve U 57
[OGL LOG] init_host_sparsity_pattern : 61 ms
[OGL LOG] matrix not stored update host matrix
[OGL LOG] update_host_mtx : 33 ms
[OGL LOG] matrix is not yet sorted, compute sorting idxs
[OGL LOG] compute_sort : 1808 ms
[OGL LOG] matrix is not yet sorted, sorting host matrix
[OGL LOG] sort_host_mtx_sparsity_pattern : 43 ms
[OGL LOG] sort_host_mtx : 22 ms
[OGL LOG] init_preconditioner : 23 ms
[OGL LOG] solve : 223 ms
BJcudaGKOBiCGStab:  Solving for p, Initial residual = 1, Final residual = 9.91664e-05, No Iterations 295
linear solve p 3005
time step continuity errors : sum local = 5.31688e-05, global = -6.52066e-21, cumulative = -6.52066e-21
[OGL LOG] init_host_sparsity_pattern : 58 ms
[OGL LOG] matrix not stored update host matrix
[OGL LOG] update_host_mtx : 32 ms
[OGL LOG] matrix is not yet sorted, sorting host matrix
[OGL LOG] sort_host_mtx_sparsity_pattern : 47 ms
[OGL LOG] sort_host_mtx : 28 ms
[OGL LOG] init_preconditioner : 0 ms
[OGL LOG] solve : 220 ms
BJcudaGKOBiCGStab:  Solving for p, Initial residual = 0.695344, Final residual = 9.69326e-05, No Iterations 294
linear solve p 402
time step continuity errors : sum local = 5.55938e-05, global = -1.27114e-19, cumulative = -1.33634e-19
ExecutionTime = 4.38 s  ClockTime = 4 s

Time = 0.002

Courant Number mean: 0.03078 max: 0.422497
nonePBiCGStab:  Solving for Ux, Initial residual = 0.155607, Final residual = 0.017862, No Iterations 5
nonePBiCGStab:  Solving for Uy, Initial residual = 0.351025, Final residual = 0.0354117, No Iterations 5
nonePBiCGStab:  Solving for Uz, Initial residual = 0.88121, Final residual = 0.12844, No Iterations 5
linear solve U 113
[OGL LOG] init_host_sparsity_pattern : 58 ms
[OGL LOG] matrix not stored update host matrix
[OGL LOG] update_host_mtx : 28 ms
[OGL LOG] matrix is not yet sorted, sorting host matrix
[OGL LOG] sort_host_mtx_sparsity_pattern : 42 ms
[OGL LOG] sort_host_mtx : 23 ms
[OGL LOG] init_preconditioner : 0 ms
[OGL LOG] solve : 201 ms
BJcudaGKOBiCGStab:  Solving for p, Initial residual = 0.745542, Final residual = 9.76753e-05, No Iterations 269
linear solve p 366
time step continuity errors : sum local = 0.000134066, global = -3.05027e-19, cumulative = -4.38662e-19
[OGL LOG] init_host_sparsity_pattern : 58 ms
[OGL LOG] matrix not stored update host matrix
[OGL LOG] update_host_mtx : 29 ms
[OGL LOG] matrix is not yet sorted, sorting host matrix
[OGL LOG] sort_host_mtx_sparsity_pattern : 40 ms
[OGL LOG] sort_host_mtx : 22 ms
[OGL LOG] init_preconditioner : 0 ms
[OGL LOG] solve : 203 ms
BJcudaGKOBiCGStab:  Solving for p, Initial residual = 0.615144, Final residual = 9.44955e-05, No Iterations 272
linear solve p 367
time step continuity errors : sum local = 4.78334e-05, global = 9.20338e-20, cumulative = -3.46628e-19
ExecutionTime = 5.35 s  ClockTime = 5 s

Time = 0.003

Courant Number mean: 0.0471308 max: 0.510231
nonePBiCGStab:  Solving for Ux, Initial residual = 0.0550506, Final residual = 0.00456997, No Iterations 5
nonePBiCGStab:  Solving for Uy, Initial residual = 0.118525, Final residual = 0.010482, No Iterations 5
nonePBiCGStab:  Solving for Uz, Initial residual = 0.76618, Final residual = 0.0971502, No Iterations 5
linear solve U 112
[OGL LOG] init_host_sparsity_pattern : 58 ms
[OGL LOG] matrix not stored update host matrix
[OGL LOG] update_host_mtx : 27 ms
[OGL LOG] matrix is not yet sorted, sorting host matrix
[OGL LOG] sort_host_mtx_sparsity_pattern : 40 ms
[OGL LOG] sort_host_mtx : 22 ms
[OGL LOG] init_preconditioner : 0 ms
[OGL LOG] solve : 190 ms
BJcudaGKOBiCGStab:  Solving for p, Initial residual = 0.789625, Final residual = 9.60775e-05, No Iterations 254
linear solve p 352
time step continuity errors : sum local = 7.15356e-05, global = -3.31882e-20, cumulative = -3.79816e-19
[OGL LOG] init_host_sparsity_pattern : 58 ms
[OGL LOG] matrix not stored update host matrix
[OGL LOG] update_host_mtx : 27 ms
[OGL LOG] matrix is not yet sorted, sorting host matrix
[OGL LOG] sort_host_mtx_sparsity_pattern : 40 ms
[OGL LOG] sort_host_mtx : 22 ms
[OGL LOG] init_preconditioner : 0 ms
[OGL LOG] solve : 94 ms
BJcudaGKOBiCGStab:  Solving for p, Initial residual = 0.623887, Final residual = 9.90137e-05, No Iterations 124
linear solve p 256
time step continuity errors : sum local = 2.54292e-07, global = 3.43368e-21, cumulative = -3.76382e-19
ExecutionTime = 6.19 s  ClockTime = 6 s

Time = 0.004

Courant Number mean: 0.0566021 max: 0.53047
nonePBiCGStab:  Solving for Ux, Initial residual = 0.0341879, Final residual = 0.0025156, No Iterations 5
nonePBiCGStab:  Solving for Uy, Initial residual = 0.0760936, Final residual = 0.00472528, No Iterations 5
nonePBiCGStab:  Solving for Uz, Initial residual = 0.701343, Final residual = 0.066448, No Iterations 5
linear solve U 113
[OGL LOG] init_host_sparsity_pattern : 57 ms
[OGL LOG] matrix not stored update host matrix
[OGL LOG] update_host_mtx : 28 ms
[OGL LOG] matrix is not yet sorted, sorting host matrix
[OGL LOG] sort_host_mtx_sparsity_pattern : 43 ms
[OGL LOG] sort_host_mtx : 22 ms
[OGL LOG] init_preconditioner : 0 ms
[OGL LOG] solve : 210 ms
BJcudaGKOBiCGStab:  Solving for p, Initial residual = 0.684697, Final residual = 8.69478e-05, No Iterations 283
linear solve p 376
time step continuity errors : sum local = 2.11873e-05, global = -1.76732e-22, cumulative = -3.76559e-19
[OGL LOG] init_host_sparsity_pattern : 57 ms
[OGL LOG] matrix not stored update host matrix
[OGL LOG] update_host_mtx : 28 ms
[OGL LOG] matrix is not yet sorted, sorting host matrix
[OGL LOG] sort_host_mtx_sparsity_pattern : 40 ms
[OGL LOG] sort_host_mtx : 22 ms
[OGL LOG] init_preconditioner : 0 ms
[OGL LOG] solve : 201 ms
BJcudaGKOBiCGStab:  Solving for p, Initial residual = 0.54945, Final residual = 9.7612e-05, No Iterations 269
linear solve p 363
time step continuity errors : sum local = 4.59743e-05, global = 1.12113e-20, cumulative = -3.65348e-19
ExecutionTime = 7.17 s  ClockTime = 7 s

Time = 0.005

Courant Number mean: 0.0638663 max: 0.539263
nonePBiCGStab:  Solving for Ux, Initial residual = 0.0239324, Final residual = 0.00147149, No Iterations 5
nonePBiCGStab:  Solving for Uy, Initial residual = 0.0518905, Final residual = 0.00263378, No Iterations 5
nonePBiCGStab:  Solving for Uz, Initial residual = 0.653463, Final residual = 0.0568993, No Iterations 5
linear solve U 112
[OGL LOG] init_host_sparsity_pattern : 57 ms
[OGL LOG] matrix not stored update host matrix
[OGL LOG] update_host_mtx : 28 ms
[OGL LOG] matrix is not yet sorted, sorting host matrix
[OGL LOG] sort_host_mtx_sparsity_pattern : 40 ms
[OGL LOG] sort_host_mtx : 22 ms
[OGL LOG] init_preconditioner : 0 ms
[OGL LOG] solve : 181 ms
BJcudaGKOBiCGStab:  Solving for p, Initial residual = 0.665408, Final residual = 9.2293e-05, No Iterations 242
linear solve p 343
time step continuity errors : sum local = 0.0011741, global = 1.98573e-18, cumulative = 1.62038e-18
[OGL LOG] init_host_sparsity_pattern : 58 ms
[OGL LOG] matrix not stored update host matrix
[OGL LOG] update_host_mtx : 28 ms
[OGL LOG] matrix is not yet sorted, sorting host matrix
[OGL LOG] sort_host_mtx_sparsity_pattern : 42 ms
[OGL LOG] sort_host_mtx : 22 ms
[OGL LOG] init_preconditioner : 0 ms
[OGL LOG] solve : 81 ms
BJcudaGKOBiCGStab:  Solving for p, Initial residual = 0.663871, Final residual = 9.50467e-05, No Iterations 106
linear solve p 245
time step continuity errors : sum local = 7.91749e-07, global = -6.04708e-21, cumulative = 1.61433e-18
ExecutionTime = 7.99 s  ClockTime = 8 s

Time = 0.006

Courant Number mean: 0.0695808 max: 0.546719
nonePBiCGStab:  Solving for Ux, Initial residual = 0.0182628, Final residual = 0.00138759, No Iterations 5
nonePBiCGStab:  Solving for Uy, Initial residual = 0.0421899, Final residual = 0.00498314, No Iterations 5
nonePBiCGStab:  Solving for Uz, Initial residual = 0.800344, Final residual = 0.106718, No Iterations 5
linear solve U 112
[OGL LOG] init_host_sparsity_pattern : 57 ms
[OGL LOG] matrix not stored update host matrix
[OGL LOG] update_host_mtx : 28 ms
[OGL LOG] matrix is not yet sorted, sorting host matrix
[OGL LOG] sort_host_mtx_sparsity_pattern : 40 ms
[OGL LOG] sort_host_mtx : 22 ms
[OGL LOG] init_preconditioner : 0 ms
[OGL LOG] solve : 189 ms
BJcudaGKOBiCGStab:  Solving for p, Initial residual = 0.905668, Final residual = 5.66536e-05, No Iterations 254
linear solve p 351
time step continuity errors : sum local = 0.00288103, global = -2.03199e-18, cumulative = -4.17656e-19
[OGL LOG] init_host_sparsity_pattern : 57 ms
[OGL LOG] matrix not stored update host matrix
[OGL LOG] update_host_mtx : 28 ms
[OGL LOG] matrix is not yet sorted, sorting host matrix
[OGL LOG] sort_host_mtx_sparsity_pattern : 40 ms
[OGL LOG] sort_host_mtx : 22 ms
[OGL LOG] init_preconditioner : 0 ms
[OGL LOG] solve : 76 ms
BJcudaGKOBiCGStab:  Solving for p, Initial residual = 0.713389, Final residual = 4.71857e-05, No Iterations 100
linear solve p 238
time step continuity errors : sum local = 5.6246e-07, global = -5.26846e-21, cumulative = -4.22924e-19
ExecutionTime = 8.82 s  ClockTime = 9 s

Time = 0.007

Courant Number mean: 0.07513 max: 0.575651
nonePBiCGStab:  Solving for Ux, Initial residual = 0.0166365, Final residual = 0.00141795, No Iterations 5
nonePBiCGStab:  Solving for Uy, Initial residual = 0.0500117, Final residual = 0.00991295, No Iterations 5
nonePBiCGStab:  Solving for Uz, Initial residual = 0.821275, Final residual = 0.108761, No Iterations 5
linear solve U 112
[OGL LOG] init_host_sparsity_pattern : 58 ms
[OGL LOG] matrix not stored update host matrix
[OGL LOG] update_host_mtx : 28 ms
[OGL LOG] matrix is not yet sorted, sorting host matrix
[OGL LOG] sort_host_mtx_sparsity_pattern : 40 ms
[OGL LOG] sort_host_mtx : 22 ms
[OGL LOG] init_preconditioner : 0 ms
[OGL LOG] solve : 202 ms
BJcudaGKOBiCGStab:  Solving for p, Initial residual = 0.957879, Final residual = 6.63502e-05, No Iterations 266
linear solve p 366
time step continuity errors : sum local = 0.001878, global = -3.02742e-18, cumulative = -3.45034e-18
[OGL LOG] init_host_sparsity_pattern : 60 ms
[OGL LOG] matrix not stored update host matrix
[OGL LOG] update_host_mtx : 30 ms
[OGL LOG] matrix is not yet sorted, sorting host matrix
[OGL LOG] sort_host_mtx_sparsity_pattern : 44 ms
[OGL LOG] sort_host_mtx : 22 ms
[OGL LOG] init_preconditioner : 0 ms
[OGL LOG] solve : 87 ms
BJcudaGKOBiCGStab:  Solving for p, Initial residual = 0.78582, Final residual = 9.96324e-05, No Iterations 114
linear solve p 257
time step continuity errors : sum local = 2.21684e-06, global = 4.08265e-22, cumulative = -3.44993e-18
ExecutionTime = 9.68 s  ClockTime = 10 s

Time = 0.008

Courant Number mean: 0.080392 max: 0.615245
nonePBiCGStab:  Solving for Ux, Initial residual = 0.0235536, Final residual = 0.00266525, No Iterations 5
nonePBiCGStab:  Solving for Uy, Initial residual = 0.0720934, Final residual = 0.0111489, No Iterations 5
nonePBiCGStab:  Solving for Uz, Initial residual = 0.824219, Final residual = 0.0768064, No Iterations 5
linear solve U 112
[OGL LOG] init_host_sparsity_pattern : 57 ms
[OGL LOG] matrix not stored update host matrix
[OGL LOG] update_host_mtx : 28 ms
[OGL LOG] matrix is not yet sorted, sorting host matrix
[OGL LOG] sort_host_mtx_sparsity_pattern : 41 ms
[OGL LOG] sort_host_mtx : 23 ms
[OGL LOG] init_preconditioner : 0 ms
[OGL LOG] solve : 202 ms
BJcudaGKOBiCGStab:  Solving for p, Initial residual = 0.953541, Final residual = 9.52004e-05, No Iterations 269
linear solve p 366
time step continuity errors : sum local = 0.00231049, global = -3.23638e-18, cumulative = -6.68631e-18
[OGL LOG] init_host_sparsity_pattern : 57 ms
[OGL LOG] matrix not stored update host matrix
[OGL LOG] update_host_mtx : 28 ms
[OGL LOG] matrix is not yet sorted, sorting host matrix
[OGL LOG] sort_host_mtx_sparsity_pattern : 40 ms
[OGL LOG] sort_host_mtx : 22 ms
[OGL LOG] init_preconditioner : 0 ms
[OGL LOG] solve : 203 ms
BJcudaGKOBiCGStab:  Solving for p, Initial residual = 0.774205, Final residual = 7.84822e-05, No Iterations 272
linear solve p 365
time step continuity errors : sum local = 0.000969436, global = -5.50678e-19, cumulative = -7.23699e-18
ExecutionTime = 10.65 s  ClockTime = 11 s

Time = 0.009

Courant Number mean: 0.0827026 max: 0.617827
nonePBiCGStab:  Solving for Ux, Initial residual = 0.0178169, Final residual = 0.00220991, No Iterations 5
nonePBiCGStab:  Solving for Uy, Initial residual = 0.0653614, Final residual = 0.011869, No Iterations 5
nonePBiCGStab:  Solving for Uz, Initial residual = 0.873156, Final residual = 0.0984899, No Iterations 5
linear solve U 115
[OGL LOG] init_host_sparsity_pattern : 58 ms
[OGL LOG] matrix not stored update host matrix
[OGL LOG] update_host_mtx : 28 ms
[OGL LOG] matrix is not yet sorted, sorting host matrix
[OGL LOG] sort_host_mtx_sparsity_pattern : 41 ms
[OGL LOG] sort_host_mtx : 22 ms
[OGL LOG] init_preconditioner : 0 ms
[OGL LOG] solve : 196 ms
BJcudaGKOBiCGStab:  Solving for p, Initial residual = 0.964309, Final residual = 6.80881e-05, No Iterations 262
linear solve p 359
time step continuity errors : sum local = 0.0324277, global = 1.73481e-17, cumulative = 1.01112e-17
[OGL LOG] init_host_sparsity_pattern : 57 ms
[OGL LOG] matrix not stored update host matrix
[OGL LOG] update_host_mtx : 28 ms
[OGL LOG] matrix is not yet sorted, sorting host matrix
[OGL LOG] sort_host_mtx_sparsity_pattern : 40 ms
[OGL LOG] sort_host_mtx : 21 ms
[OGL LOG] init_preconditioner : 0 ms
[OGL LOG] solve : 69 ms
BJcudaGKOBiCGStab:  Solving for p, Initial residual = 0.776329, Final residual = 9.73366e-05, No Iterations 90
linear solve p 230
time step continuity errors : sum local = 0.000103235, global = -1.08314e-19, cumulative = 1.00028e-17
ExecutionTime = 11.49 s  ClockTime = 12 s

Time = 0.01

Courant Number mean: 0.0875691 max: 0.68577
nonePBiCGStab:  Solving for Ux, Initial residual = 0.0228677, Final residual = 0.00427296, No Iterations 5
nonePBiCGStab:  Solving for Uy, Initial residual = 0.123907, Final residual = 0.0319748, No Iterations 5
nonePBiCGStab:  Solving for Uz, Initial residual = 0.85449, Final residual = 0.124282, No Iterations 5
linear solve U 111
[OGL LOG] init_host_sparsity_pattern : 58 ms
[OGL LOG] matrix not stored update host matrix
[OGL LOG] update_host_mtx : 28 ms
[OGL LOG] matrix is not yet sorted, sorting host matrix
[OGL LOG] sort_host_mtx_sparsity_pattern : 40 ms
[OGL LOG] sort_host_mtx : 21 ms
[OGL LOG] init_preconditioner : 0 ms
[OGL LOG] solve : 200 ms
BJcudaGKOBiCGStab:  Solving for p, Initial residual = 0.9911, Final residual = 9.5864e-05, No Iterations 264
linear solve p 362
time step continuity errors : sum local = 0.0101612, global = -7.61382e-18, cumulative = 2.38903e-18
[OGL LOG] init_host_sparsity_pattern : 58 ms
[OGL LOG] matrix not stored update host matrix
[OGL LOG] update_host_mtx : 28 ms
[OGL LOG] matrix is not yet sorted, sorting host matrix
[OGL LOG] sort_host_mtx_sparsity_pattern : 40 ms
[OGL LOG] sort_host_mtx : 22 ms
[OGL LOG] init_preconditioner : 0 ms
[OGL LOG] solve : 98 ms
BJcudaGKOBiCGStab:  Solving for p, Initial residual = 0.791696, Final residual = 9.41031e-05, No Iterations 130
linear solve p 261
time step continuity errors : sum local = 1.7456e-05, global = 5.00792e-20, cumulative = 2.43911e-18
ExecutionTime = 12.34 s  ClockTime = 12 s

End

