/*---------------------------------------------------------------------------*\
  =========                 |
  \\      /  F ield         | OpenFOAM: The Open Source CFD Toolbox
   \\    /   O peration     | Website:  https://openfoam.org
    \\  /    A nd           | Version:  8
     \\/     M anipulation  |
\*---------------------------------------------------------------------------*/
Build  : 8-40a5a48f630f
Exec   : icoFoam
Date   : Jul 27 2021
Time   : 22:55:49
Host   : "uc2n481.localdomain"
PID    : 165579
I/O    : uncollated
Case   : /pfs/data5/home/kit/scc/nq7776/code/OBR/lidDrivenCavity3D/Variation_mesh/80/Variation_matrix_solver/BiCGStab_BJ_CUDA/base
nProcs : 1
sigFpe : Enabling floating point exception trapping (FOAM_SIGFPE).
fileModificationChecking : Monitoring run-time modified files using timeStampMaster (fileModificationSkew 10)
allowSystemOperations : Allowing user-supplied system call operations

// * * * * * * * * * * * * * * * * * * * * * * * * * * * * * * * * * * * * * //
Create time

Create mesh for time = 0

Reading transportProperties

Reading field p

Reading field U

Reading/calculating face flux field phi


Starting time loop

Time = 0.001

Courant Number mean: 0 max: 0
nonePBiCGStab:  Solving for Ux, Initial residual = 1, Final residual = 0.0679229, No Iterations 5
nonePBiCGStab:  Solving for Uy, Initial residual = 0, Final residual = 0, No Iterations 0
nonePBiCGStab:  Solving for Uz, Initial residual = 0, Final residual = 0, No Iterations 0
linear solve U 143
[OGL LOG] init_host_sparsity_pattern : 148 ms
[OGL LOG] matrix not stored update host matrix
[OGL LOG] update_host_mtx : 77 ms
[OGL LOG] matrix is not yet sorted, compute sorting idxs
[OGL LOG] compute_sort : 4506 ms
[OGL LOG] matrix is not yet sorted, sorting host matrix
[OGL LOG] sort_host_mtx_sparsity_pattern : 106 ms
[OGL LOG] sort_host_mtx : 60 ms
[OGL LOG] init_preconditioner : 55 ms
[OGL LOG] solve : 673 ms
BJcudaGKOBiCGStab:  Solving for p, Initial residual = 1, Final residual = 6.42746e-05, No Iterations 416
linear solve p 6442
time step continuity errors : sum local = 0.00107449, global = 3.52603e-19, cumulative = 3.52603e-19
[OGL LOG] init_host_sparsity_pattern : 140 ms
[OGL LOG] matrix not stored update host matrix
[OGL LOG] update_host_mtx : 77 ms
[OGL LOG] matrix is not yet sorted, sorting host matrix
[OGL LOG] sort_host_mtx_sparsity_pattern : 109 ms
[OGL LOG] sort_host_mtx : 54 ms
[OGL LOG] init_preconditioner : 0 ms
[OGL LOG] solve : 283 ms
BJcudaGKOBiCGStab:  Solving for p, Initial residual = 0.910836, Final residual = 9.94115e-05, No Iterations 174
linear solve p 697
time step continuity errors : sum local = 3.72939e-07, global = -4.5393e-21, cumulative = 3.48063e-19
ExecutionTime = 9.37 s  ClockTime = 9 s

Time = 0.002

Courant Number mean: 0.0375633 max: 0.609546
nonePBiCGStab:  Solving for Ux, Initial residual = 0.144865, Final residual = 0.030368, No Iterations 5
nonePBiCGStab:  Solving for Uy, Initial residual = 0.405628, Final residual = 0.0805397, No Iterations 5
nonePBiCGStab:  Solving for Uz, Initial residual = 0.885968, Final residual = 0.225302, No Iterations 5
linear solve U 289
[OGL LOG] init_host_sparsity_pattern : 146 ms
[OGL LOG] matrix not stored update host matrix
[OGL LOG] update_host_mtx : 77 ms
[OGL LOG] matrix is not yet sorted, sorting host matrix
[OGL LOG] sort_host_mtx_sparsity_pattern : 107 ms
[OGL LOG] sort_host_mtx : 52 ms
[OGL LOG] init_preconditioner : 0 ms
[OGL LOG] solve : 533 ms
BJcudaGKOBiCGStab:  Solving for p, Initial residual = 0.959119, Final residual = 9.8563e-05, No Iterations 332
linear solve p 949
time step continuity errors : sum local = 0.00860107, global = 1.42432e-17, cumulative = 1.45913e-17
[OGL LOG] init_host_sparsity_pattern : 143 ms
[OGL LOG] matrix not stored update host matrix
[OGL LOG] update_host_mtx : 77 ms
[OGL LOG] matrix is not yet sorted, sorting host matrix
[OGL LOG] sort_host_mtx_sparsity_pattern : 106 ms
[OGL LOG] sort_host_mtx : 53 ms
[OGL LOG] init_preconditioner : 0 ms
[OGL LOG] solve : 267 ms
BJcudaGKOBiCGStab:  Solving for p, Initial residual = 0.794308, Final residual = 9.72917e-05, No Iterations 164
linear solve p 687
time step continuity errors : sum local = 7.65636e-06, global = 9.39545e-21, cumulative = 1.46007e-17
ExecutionTime = 11.6 s  ClockTime = 11 s

Time = 0.003

Courant Number mean: 0.06039 max: 0.768009
nonePBiCGStab:  Solving for Ux, Initial residual = 0.0575753, Final residual = 0.00948122, No Iterations 5
nonePBiCGStab:  Solving for Uy, Initial residual = 0.206611, Final residual = 0.0567237, No Iterations 5
nonePBiCGStab:  Solving for Uz, Initial residual = 0.857492, Final residual = 0.215865, No Iterations 5
linear solve U 290
[OGL LOG] init_host_sparsity_pattern : 143 ms
[OGL LOG] matrix not stored update host matrix
[OGL LOG] update_host_mtx : 77 ms
[OGL LOG] matrix is not yet sorted, sorting host matrix
[OGL LOG] sort_host_mtx_sparsity_pattern : 106 ms
[OGL LOG] sort_host_mtx : 53 ms
[OGL LOG] init_preconditioner : 0 ms
[OGL LOG] solve : 502 ms
BJcudaGKOBiCGStab:  Solving for p, Initial residual = 0.992728, Final residual = 9.23574e-05, No Iterations 311
linear solve p 916
time step continuity errors : sum local = 0.0491505, global = 1.69158e-17, cumulative = 3.15165e-17
[OGL LOG] init_host_sparsity_pattern : 143 ms
[OGL LOG] matrix not stored update host matrix
[OGL LOG] update_host_mtx : 76 ms
[OGL LOG] matrix is not yet sorted, sorting host matrix
[OGL LOG] sort_host_mtx_sparsity_pattern : 107 ms
[OGL LOG] sort_host_mtx : 53 ms
[OGL LOG] init_preconditioner : 0 ms
[OGL LOG] solve : 191 ms
BJcudaGKOBiCGStab:  Solving for p, Initial residual = 0.752255, Final residual = 7.29475e-05, No Iterations 116
linear solve p 604
time step continuity errors : sum local = 0.000143305, global = -1.55928e-19, cumulative = 3.13605e-17
ExecutionTime = 13.74 s  ClockTime = 13 s

Time = 0.004

Courant Number mean: 0.0870508 max: 1.31162
nonePBiCGStab:  Solving for Ux, Initial residual = 0.086263, Final residual = 0.0209615, No Iterations 5
nonePBiCGStab:  Solving for Uy, Initial residual = 0.358063, Final residual = 0.124697, No Iterations 5
nonePBiCGStab:  Solving for Uz, Initial residual = 0.856493, Final residual = 0.212628, No Iterations 5
linear solve U 289
[OGL LOG] init_host_sparsity_pattern : 143 ms
[OGL LOG] matrix not stored update host matrix
[OGL LOG] update_host_mtx : 76 ms
[OGL LOG] matrix is not yet sorted, sorting host matrix
[OGL LOG] sort_host_mtx_sparsity_pattern : 108 ms
[OGL LOG] sort_host_mtx : 53 ms
[OGL LOG] init_preconditioner : 0 ms
[OGL LOG] solve : 526 ms
BJcudaGKOBiCGStab:  Solving for p, Initial residual = 0.994517, Final residual = 8.06251e-05, No Iterations 327
linear solve p 942
time step continuity errors : sum local = 0.099029, global = -7.48542e-17, cumulative = -4.34936e-17
[OGL LOG] init_host_sparsity_pattern : 144 ms
[OGL LOG] matrix not stored update host matrix
[OGL LOG] update_host_mtx : 77 ms
[OGL LOG] matrix is not yet sorted, sorting host matrix
[OGL LOG] sort_host_mtx_sparsity_pattern : 107 ms
[OGL LOG] sort_host_mtx : 59 ms
[OGL LOG] init_preconditioner : 0 ms
[OGL LOG] solve : 236 ms
BJcudaGKOBiCGStab:  Solving for p, Initial residual = 0.787899, Final residual = 9.93382e-05, No Iterations 145
linear solve p 661
time step continuity errors : sum local = 5.58594e-05, global = -7.54539e-19, cumulative = -4.42482e-17
ExecutionTime = 15.93 s  ClockTime = 16 s

Time = 0.005

Courant Number mean: 0.183913 max: 5.59151
nonePBiCGStab:  Solving for Ux, Initial residual = 0.301965, Final residual = 0.0773562, No Iterations 5
nonePBiCGStab:  Solving for Uy, Initial residual = 0.670958, Final residual = 0.211226, No Iterations 5
nonePBiCGStab:  Solving for Uz, Initial residual = 0.851975, Final residual = 0.181291, No Iterations 5
linear solve U 288
[OGL LOG] init_host_sparsity_pattern : 145 ms
[OGL LOG] matrix not stored update host matrix
[OGL LOG] update_host_mtx : 79 ms
[OGL LOG] matrix is not yet sorted, sorting host matrix
[OGL LOG] sort_host_mtx_sparsity_pattern : 106 ms
[OGL LOG] sort_host_mtx : 53 ms
[OGL LOG] init_preconditioner : 0 ms
[OGL LOG] solve : 557 ms
BJcudaGKOBiCGStab:  Solving for p, Initial residual = 0.990688, Final residual = 9.45037e-05, No Iterations 347
linear solve p 973
time step continuity errors : sum local = 0.112993, global = -5.0861e-17, cumulative = -9.51091e-17
[OGL LOG] init_host_sparsity_pattern : 145 ms
[OGL LOG] matrix not stored update host matrix
[OGL LOG] update_host_mtx : 77 ms
[OGL LOG] matrix is not yet sorted, sorting host matrix
[OGL LOG] sort_host_mtx_sparsity_pattern : 106 ms
[OGL LOG] sort_host_mtx : 53 ms
[OGL LOG] init_preconditioner : 0 ms
[OGL LOG] solve : 547 ms
BJcudaGKOBiCGStab:  Solving for p, Initial residual = 0.816761, Final residual = 9.24178e-05, No Iterations 341
linear solve p 961
time step continuity errors : sum local = 0.00011949, global = -2.15833e-19, cumulative = -9.5325e-17
ExecutionTime = 18.46 s  ClockTime = 18 s

Time = 0.006

Courant Number mean: 0.299515 max: 14.8996
nonePBiCGStab:  Solving for Ux, Initial residual = 0.501887, Final residual = 0.159973, No Iterations 5
nonePBiCGStab:  Solving for Uy, Initial residual = 0.779839, Final residual = 0.183421, No Iterations 5
nonePBiCGStab:  Solving for Uz, Initial residual = 0.858258, Final residual = 0.164624, No Iterations 5
linear solve U 296
[OGL LOG] init_host_sparsity_pattern : 147 ms
[OGL LOG] matrix not stored update host matrix
[OGL LOG] update_host_mtx : 77 ms
[OGL LOG] matrix is not yet sorted, sorting host matrix
[OGL LOG] sort_host_mtx_sparsity_pattern : 107 ms
[OGL LOG] sort_host_mtx : 53 ms
[OGL LOG] init_preconditioner : 0 ms
[OGL LOG] solve : 595 ms
BJcudaGKOBiCGStab:  Solving for p, Initial residual = 0.988624, Final residual = 7.72425e-05, No Iterations 370
linear solve p 1014
time step continuity errors : sum local = 0.124445, global = -4.72527e-17, cumulative = -1.42578e-16
[OGL LOG] init_host_sparsity_pattern : 143 ms
[OGL LOG] matrix not stored update host matrix
[OGL LOG] update_host_mtx : 76 ms
[OGL LOG] matrix is not yet sorted, sorting host matrix
[OGL LOG] sort_host_mtx_sparsity_pattern : 107 ms
[OGL LOG] sort_host_mtx : 59 ms
[OGL LOG] init_preconditioner : 0 ms
[OGL LOG] solve : 626 ms
BJcudaGKOBiCGStab:  Solving for p, Initial residual = 0.818187, Final residual = 5.19357e-05, No Iterations 391
linear solve p 1053
time step continuity errors : sum local = 0.335108, global = 5.63494e-16, cumulative = 4.20916e-16
ExecutionTime = 21.14 s  ClockTime = 21 s

Time = 0.007

Courant Number mean: 0.513144 max: 19.2098
nonePBiCGStab:  Solving for Ux, Initial residual = 0.58116, Final residual = 0.140458, No Iterations 5
nonePBiCGStab:  Solving for Uy, Initial residual = 0.738413, Final residual = 0.219692, No Iterations 5
nonePBiCGStab:  Solving for Uz, Initial residual = 0.761187, Final residual = 0.219044, No Iterations 5
linear solve U 288
[OGL LOG] init_host_sparsity_pattern : 143 ms
[OGL LOG] matrix not stored update host matrix
[OGL LOG] update_host_mtx : 76 ms
[OGL LOG] matrix is not yet sorted, sorting host matrix
[OGL LOG] sort_host_mtx_sparsity_pattern : 106 ms
[OGL LOG] sort_host_mtx : 53 ms
[OGL LOG] init_preconditioner : 0 ms
[OGL LOG] solve : 512 ms
BJcudaGKOBiCGStab:  Solving for p, Initial residual = 0.919173, Final residual = 9.36562e-05, No Iterations 319
linear solve p 925
time step continuity errors : sum local = 2.0901, global = 3.26526e-15, cumulative = 3.68617e-15
[OGL LOG] init_host_sparsity_pattern : 143 ms
[OGL LOG] matrix not stored update host matrix
[OGL LOG] update_host_mtx : 76 ms
[OGL LOG] matrix is not yet sorted, sorting host matrix
[OGL LOG] sort_host_mtx_sparsity_pattern : 107 ms
[OGL LOG] sort_host_mtx : 53 ms
[OGL LOG] init_preconditioner : 0 ms
[OGL LOG] solve : 195 ms
BJcudaGKOBiCGStab:  Solving for p, Initial residual = 0.679066, Final residual = 9.81949e-05, No Iterations 119
linear solve p 609
time step continuity errors : sum local = 0.00221939, global = -1.17639e-18, cumulative = 3.685e-15
ExecutionTime = 23.26 s  ClockTime = 23 s

Time = 0.008

Courant Number mean: 1.37188 max: 61.2373
nonePBiCGStab:  Solving for Ux, Initial residual = 0.711199, Final residual = 0.311612, No Iterations 5
nonePBiCGStab:  Solving for Uy, Initial residual = 0.683632, Final residual = 0.381505, No Iterations 5
nonePBiCGStab:  Solving for Uz, Initial residual = 0.699126, Final residual = 0.335704, No Iterations 5
linear solve U 288
[OGL LOG] init_host_sparsity_pattern : 144 ms
[OGL LOG] matrix not stored update host matrix
[OGL LOG] update_host_mtx : 79 ms
[OGL LOG] matrix is not yet sorted, sorting host matrix
[OGL LOG] sort_host_mtx_sparsity_pattern : 110 ms
[OGL LOG] sort_host_mtx : 53 ms
[OGL LOG] init_preconditioner : 0 ms
[OGL LOG] solve : 493 ms
BJcudaGKOBiCGStab:  Solving for p, Initial residual = 0.986705, Final residual = 9.71893e-05, No Iterations 307
linear solve p 917
time step continuity errors : sum local = 0.00185933, global = 2.80269e-17, cumulative = 3.71302e-15
[OGL LOG] init_host_sparsity_pattern : 145 ms
[OGL LOG] matrix not stored update host matrix
[OGL LOG] update_host_mtx : 77 ms
[OGL LOG] matrix is not yet sorted, sorting host matrix
[OGL LOG] sort_host_mtx_sparsity_pattern : 106 ms
[OGL LOG] sort_host_mtx : 53 ms
[OGL LOG] init_preconditioner : 0 ms
[OGL LOG] solve : 196 ms
BJcudaGKOBiCGStab:  Solving for p, Initial residual = 0.828743, Final residual = 9.58035e-05, No Iterations 120
linear solve p 611
time step continuity errors : sum local = 0.00103001, global = -8.60638e-19, cumulative = 3.71216e-15
ExecutionTime = 25.4 s  ClockTime = 25 s

Time = 0.009

Courant Number mean: 3.4473 max: 113.031
nonePBiCGStab:  Solving for Ux, Initial residual = 0.807042, Final residual = 0.524928, No Iterations 5
nonePBiCGStab:  Solving for Uy, Initial residual = 0.741401, Final residual = 0.445895, No Iterations 5
nonePBiCGStab:  Solving for Uz, Initial residual = 0.87906, Final residual = 0.476997, No Iterations 5
linear solve U 289
[OGL LOG] init_host_sparsity_pattern : 145 ms
[OGL LOG] matrix not stored update host matrix
[OGL LOG] update_host_mtx : 77 ms
[OGL LOG] matrix is not yet sorted, sorting host matrix
[OGL LOG] sort_host_mtx_sparsity_pattern : 107 ms
[OGL LOG] sort_host_mtx : 53 ms
[OGL LOG] init_preconditioner : 0 ms
[OGL LOG] solve : 687 ms
BJcudaGKOBiCGStab:  Solving for p, Initial residual = 0.948385, Final residual = 2.48505e-06, No Iterations 428
linear solve p 1104
time step continuity errors : sum local = 0.0750747, global = 1.16033e-16, cumulative = 3.8282e-15
[OGL LOG] init_host_sparsity_pattern : 144 ms
[OGL LOG] matrix not stored update host matrix
[OGL LOG] update_host_mtx : 76 ms
[OGL LOG] matrix is not yet sorted, sorting host matrix
[OGL LOG] sort_host_mtx_sparsity_pattern : 105 ms
[OGL LOG] sort_host_mtx : 52 ms
[OGL LOG] init_preconditioner : 0 ms
[OGL LOG] solve : 638 ms
BJcudaGKOBiCGStab:  Solving for p, Initial residual = 0.773922, Final residual = 9.64611e-05, No Iterations 396
linear solve p 1052
time step continuity errors : sum local = 0.00034854, global = 3.48898e-19, cumulative = 3.82854e-15
ExecutionTime = 28.14 s  ClockTime = 28 s

Time = 0.01

Courant Number mean: 2.486 max: 90.3157
nonePBiCGStab:  Solving for Ux, Initial residual = 0.646104, Final residual = 0.24125, No Iterations 5
nonePBiCGStab:  Solving for Uy, Initial residual = 0.614614, Final residual = 0.215974, No Iterations 5
nonePBiCGStab:  Solving for Uz, Initial residual = 0.843511, Final residual = 3.33741, No Iterations 5
linear solve U 289
[OGL LOG] init_host_sparsity_pattern : 143 ms
[OGL LOG] matrix not stored update host matrix
[OGL LOG] update_host_mtx : 77 ms
[OGL LOG] matrix is not yet sorted, sorting host matrix
[OGL LOG] sort_host_mtx_sparsity_pattern : 107 ms
[OGL LOG] sort_host_mtx : 54 ms
[OGL LOG] init_preconditioner : 0 ms
[OGL LOG] solve : 204 ms
BJcudaGKOBiCGStab:  Solving for p, Initial residual = 0.892435, Final residual = 8.94807e-05, No Iterations 124
linear solve p 619
time step continuity errors : sum local = 0.00161095, global = -4.35481e-19, cumulative = 3.82811e-15
[OGL LOG] init_host_sparsity_pattern : 145 ms
[OGL LOG] matrix not stored update host matrix
[OGL LOG] update_host_mtx : 77 ms
[OGL LOG] matrix is not yet sorted, sorting host matrix
[OGL LOG] sort_host_mtx_sparsity_pattern : 108 ms
[OGL LOG] sort_host_mtx : 60 ms
[OGL LOG] init_preconditioner : 0 ms
[OGL LOG] solve : 203 ms
BJcudaGKOBiCGStab:  Solving for p, Initial residual = 0.722889, Final residual = 4.81759e-05, No Iterations 124
linear solve p 635
time step continuity errors : sum local = 0.000305929, global = -4.74577e-19, cumulative = 3.82763e-15
ExecutionTime = 30 s  ClockTime = 30 s

End

