/*---------------------------------------------------------------------------*\
  =========                 |
  \\      /  F ield         | OpenFOAM: The Open Source CFD Toolbox
   \\    /   O peration     | Website:  https://openfoam.org
    \\  /    A nd           | Version:  8
     \\/     M anipulation  |
\*---------------------------------------------------------------------------*/
Build  : 8-40a5a48f630f
Exec   : icoFoam
Date   : Jul 27 2021
Time   : 22:34:00
Host   : "uc2n481.localdomain"
PID    : 146392
I/O    : uncollated
Case   : /pfs/data5/home/kit/scc/nq7776/code/OBR/lidDrivenCavity3D/Variation_mesh/100/Variation_matrix_solver/BiCGStab_NoPrecond_CUDA/base
nProcs : 1
sigFpe : Enabling floating point exception trapping (FOAM_SIGFPE).
fileModificationChecking : Monitoring run-time modified files using timeStampMaster (fileModificationSkew 10)
allowSystemOperations : Allowing user-supplied system call operations

// * * * * * * * * * * * * * * * * * * * * * * * * * * * * * * * * * * * * * //
Create time

Create mesh for time = 0

Reading transportProperties

Reading field p

Reading field U

Reading/calculating face flux field phi


Starting time loop

Time = 0.001

Courant Number mean: 0 max: 0
nonePBiCGStab:  Solving for Ux, Initial residual = 1, Final residual = 0.0818707, No Iterations 5
nonePBiCGStab:  Solving for Uy, Initial residual = 0, Final residual = 0, No Iterations 0
nonePBiCGStab:  Solving for Uz, Initial residual = 0, Final residual = 0, No Iterations 0
linear solve U 278
[OGL LOG] init_host_sparsity_pattern : 290 ms
[OGL LOG] matrix not stored update host matrix
[OGL LOG] update_host_mtx : 153 ms
[OGL LOG] matrix is not yet sorted, compute sorting idxs
[OGL LOG] compute_sort : 9196 ms
[OGL LOG] matrix is not yet sorted, sorting host matrix
[OGL LOG] sort_host_mtx_sparsity_pattern : 202 ms
[OGL LOG] sort_host_mtx : 129 ms
[OGL LOG] init_preconditioner : 0 ms
[OGL LOG] solve : 1741 ms
nonecudaGKOBiCGStab:  Solving for p, Initial residual = 1, Final residual = 6.13022e-05, No Iterations 731
linear solve p 12598
time step continuity errors : sum local = 0.000604641, global = -4.98197e-20, cumulative = -4.98197e-20
[OGL LOG] init_host_sparsity_pattern : 291 ms
[OGL LOG] matrix not stored update host matrix
[OGL LOG] update_host_mtx : 151 ms
[OGL LOG] matrix is not yet sorted, sorting host matrix
[OGL LOG] sort_host_mtx_sparsity_pattern : 210 ms
[OGL LOG] sort_host_mtx : 104 ms
[OGL LOG] init_preconditioner : 0 ms
[OGL LOG] solve : 591 ms
nonecudaGKOBiCGStab:  Solving for p, Initial residual = 0.887715, Final residual = 9.92611e-05, No Iterations 248
linear solve p 1414
time step continuity errors : sum local = 5.99103e-07, global = 1.39136e-21, cumulative = -4.84284e-20
ExecutionTime = 18.35 s  ClockTime = 18 s

Time = 0.002

Courant Number mean: 0.0422248 max: 0.793272
nonePBiCGStab:  Solving for Ux, Initial residual = 0.138601, Final residual = 0.040404, No Iterations 5
nonePBiCGStab:  Solving for Uy, Initial residual = 0.452383, Final residual = 0.131813, No Iterations 5
nonePBiCGStab:  Solving for Uz, Initial residual = 0.890784, Final residual = 0.331588, No Iterations 5
linear solve U 575
[OGL LOG] init_host_sparsity_pattern : 279 ms
[OGL LOG] matrix not stored update host matrix
[OGL LOG] update_host_mtx : 150 ms
[OGL LOG] matrix is not yet sorted, sorting host matrix
[OGL LOG] sort_host_mtx_sparsity_pattern : 216 ms
[OGL LOG] sort_host_mtx : 105 ms
[OGL LOG] init_preconditioner : 0 ms
[OGL LOG] solve : 1364 ms
nonecudaGKOBiCGStab:  Solving for p, Initial residual = 0.956188, Final residual = 9.6099e-05, No Iterations 581
linear solve p 2181
time step continuity errors : sum local = 0.00041234, global = -4.96694e-20, cumulative = -9.80978e-20
[OGL LOG] init_host_sparsity_pattern : 280 ms
[OGL LOG] matrix not stored update host matrix
[OGL LOG] update_host_mtx : 151 ms
[OGL LOG] matrix is not yet sorted, sorting host matrix
[OGL LOG] sort_host_mtx_sparsity_pattern : 209 ms
[OGL LOG] sort_host_mtx : 104 ms
[OGL LOG] init_preconditioner : 0 ms
[OGL LOG] solve : 1196 ms
nonecudaGKOBiCGStab:  Solving for p, Initial residual = 0.818516, Final residual = 9.89433e-05, No Iterations 507
linear solve p 2003
time step continuity errors : sum local = 0.000765507, global = 1.93138e-18, cumulative = 1.83328e-18
ExecutionTime = 23.74 s  ClockTime = 24 s

Time = 0.003

Courant Number mean: 0.0687157 max: 0.958335
nonePBiCGStab:  Solving for Ux, Initial residual = 0.0630035, Final residual = 0.0156143, No Iterations 5
nonePBiCGStab:  Solving for Uy, Initial residual = 0.242352, Final residual = 0.0722335, No Iterations 5
nonePBiCGStab:  Solving for Uz, Initial residual = 0.833405, Final residual = 0.271007, No Iterations 5
linear solve U 577
[OGL LOG] init_host_sparsity_pattern : 286 ms
[OGL LOG] matrix not stored update host matrix
[OGL LOG] update_host_mtx : 158 ms
[OGL LOG] matrix is not yet sorted, sorting host matrix
[OGL LOG] sort_host_mtx_sparsity_pattern : 210 ms
[OGL LOG] sort_host_mtx : 104 ms
[OGL LOG] init_preconditioner : 0 ms
[OGL LOG] solve : 1441 ms
nonecudaGKOBiCGStab:  Solving for p, Initial residual = 0.981082, Final residual = 8.52361e-05, No Iterations 612
linear solve p 2265
time step continuity errors : sum local = 0.00246099, global = 4.18624e-18, cumulative = 6.01952e-18
[OGL LOG] init_host_sparsity_pattern : 289 ms
[OGL LOG] matrix not stored update host matrix
[OGL LOG] update_host_mtx : 152 ms
[OGL LOG] matrix is not yet sorted, sorting host matrix
[OGL LOG] sort_host_mtx_sparsity_pattern : 211 ms
[OGL LOG] sort_host_mtx : 105 ms
[OGL LOG] init_preconditioner : 0 ms
[OGL LOG] solve : 1351 ms
nonecudaGKOBiCGStab:  Solving for p, Initial residual = 0.798392, Final residual = 9.28528e-05, No Iterations 573
linear solve p 2175
time step continuity errors : sum local = 0.00120724, global = 1.35392e-18, cumulative = 7.37343e-18
ExecutionTime = 29.39 s  ClockTime = 30 s

Time = 0.004

Courant Number mean: 0.0839236 max: 1.05081
nonePBiCGStab:  Solving for Ux, Initial residual = 0.0498205, Final residual = 0.0146074, No Iterations 5
nonePBiCGStab:  Solving for Uy, Initial residual = 0.201582, Final residual = 0.0732525, No Iterations 5
nonePBiCGStab:  Solving for Uz, Initial residual = 0.90642, Final residual = 0.286384, No Iterations 5
linear solve U 576
[OGL LOG] init_host_sparsity_pattern : 278 ms
[OGL LOG] matrix not stored update host matrix
[OGL LOG] update_host_mtx : 154 ms
[OGL LOG] matrix is not yet sorted, sorting host matrix
[OGL LOG] sort_host_mtx_sparsity_pattern : 214 ms
[OGL LOG] sort_host_mtx : 104 ms
[OGL LOG] init_preconditioner : 0 ms
[OGL LOG] solve : 1216 ms
nonecudaGKOBiCGStab:  Solving for p, Initial residual = 0.987858, Final residual = 9.77273e-05, No Iterations 517
linear solve p 2038
time step continuity errors : sum local = 0.0296996, global = -2.37642e-17, cumulative = -1.63908e-17
[OGL LOG] init_host_sparsity_pattern : 292 ms
[OGL LOG] matrix not stored update host matrix
[OGL LOG] update_host_mtx : 151 ms
[OGL LOG] matrix is not yet sorted, sorting host matrix
[OGL LOG] sort_host_mtx_sparsity_pattern : 208 ms
[OGL LOG] sort_host_mtx : 104 ms
[OGL LOG] init_preconditioner : 0 ms
[OGL LOG] solve : 446 ms
nonecudaGKOBiCGStab:  Solving for p, Initial residual = 0.738716, Final residual = 9.21747e-05, No Iterations 188
linear solve p 1265
time step continuity errors : sum local = 7.61441e-06, global = -7.27361e-21, cumulative = -1.6398e-17
ExecutionTime = 33.9 s  ClockTime = 34 s

Time = 0.005

Courant Number mean: 0.0993554 max: 1.31875
nonePBiCGStab:  Solving for Ux, Initial residual = 0.0582125, Final residual = 0.0213988, No Iterations 5
nonePBiCGStab:  Solving for Uy, Initial residual = 0.30469, Final residual = 0.138099, No Iterations 5
nonePBiCGStab:  Solving for Uz, Initial residual = 0.866087, Final residual = 0.312485, No Iterations 5
linear solve U 580
[OGL LOG] init_host_sparsity_pattern : 281 ms
[OGL LOG] matrix not stored update host matrix
[OGL LOG] update_host_mtx : 150 ms
[OGL LOG] matrix is not yet sorted, sorting host matrix
[OGL LOG] sort_host_mtx_sparsity_pattern : 208 ms
[OGL LOG] sort_host_mtx : 104 ms
[OGL LOG] init_preconditioner : 0 ms
[OGL LOG] solve : 1286 ms
nonecudaGKOBiCGStab:  Solving for p, Initial residual = 0.995027, Final residual = 4.11464e-05, No Iterations 546
linear solve p 2093
time step continuity errors : sum local = 9.01007e-06, global = 8.3111e-22, cumulative = -1.63972e-17
[OGL LOG] init_host_sparsity_pattern : 289 ms
[OGL LOG] matrix not stored update host matrix
[OGL LOG] update_host_mtx : 153 ms
[OGL LOG] matrix is not yet sorted, sorting host matrix
[OGL LOG] sort_host_mtx_sparsity_pattern : 211 ms
[OGL LOG] sort_host_mtx : 104 ms
[OGL LOG] init_preconditioner : 0 ms
[OGL LOG] solve : 1120 ms
nonecudaGKOBiCGStab:  Solving for p, Initial residual = 0.87538, Final residual = 9.80439e-05, No Iterations 476
linear solve p 1944
time step continuity errors : sum local = 0.253726, global = -1.94872e-16, cumulative = -2.11269e-16
ExecutionTime = 39.15 s  ClockTime = 39 s

Time = 0.006

Courant Number mean: 0.290614 max: 19.0355
nonePBiCGStab:  Solving for Ux, Initial residual = 0.296218, Final residual = 0.107686, No Iterations 5
nonePBiCGStab:  Solving for Uy, Initial residual = 0.652178, Final residual = 0.295293, No Iterations 5
nonePBiCGStab:  Solving for Uz, Initial residual = 0.716016, Final residual = 0.310879, No Iterations 5
linear solve U 582
[OGL LOG] init_host_sparsity_pattern : 277 ms
[OGL LOG] matrix not stored update host matrix
[OGL LOG] update_host_mtx : 150 ms
[OGL LOG] matrix is not yet sorted, sorting host matrix
[OGL LOG] sort_host_mtx_sparsity_pattern : 208 ms
[OGL LOG] sort_host_mtx : 104 ms
[OGL LOG] init_preconditioner : 0 ms
[OGL LOG] solve : 1165 ms
nonecudaGKOBiCGStab:  Solving for p, Initial residual = 0.892563, Final residual = 9.96575e-05, No Iterations 496
linear solve p 1968
time step continuity errors : sum local = 0.0624154, global = -1.00154e-16, cumulative = -3.11423e-16
[OGL LOG] init_host_sparsity_pattern : 288 ms
[OGL LOG] matrix not stored update host matrix
[OGL LOG] update_host_mtx : 151 ms
[OGL LOG] matrix is not yet sorted, sorting host matrix
[OGL LOG] sort_host_mtx_sparsity_pattern : 209 ms
[OGL LOG] sort_host_mtx : 105 ms
[OGL LOG] init_preconditioner : 0 ms
[OGL LOG] solve : 541 ms
nonecudaGKOBiCGStab:  Solving for p, Initial residual = 0.773012, Final residual = 9.77235e-05, No Iterations 228
linear solve p 1359
time step continuity errors : sum local = 0.000368245, global = -1.06402e-18, cumulative = -3.12487e-16
ExecutionTime = 43.68 s  ClockTime = 44 s

Time = 0.007

Courant Number mean: 0.737333 max: 25.9604
nonePBiCGStab:  Solving for Ux, Initial residual = 0.708113, Final residual = 0.2326, No Iterations 5
nonePBiCGStab:  Solving for Uy, Initial residual = 0.790019, Final residual = 0.252514, No Iterations 5
nonePBiCGStab:  Solving for Uz, Initial residual = 0.791755, Final residual = 0.130367, No Iterations 5
linear solve U 595
[OGL LOG] init_host_sparsity_pattern : 278 ms
[OGL LOG] matrix not stored update host matrix
[OGL LOG] update_host_mtx : 154 ms
[OGL LOG] matrix is not yet sorted, sorting host matrix
[OGL LOG] sort_host_mtx_sparsity_pattern : 215 ms
[OGL LOG] sort_host_mtx : 104 ms
[OGL LOG] init_preconditioner : 0 ms
[OGL LOG] solve : 1251 ms
nonecudaGKOBiCGStab:  Solving for p, Initial residual = 0.946597, Final residual = 9.98075e-05, No Iterations 529
linear solve p 2065
time step continuity errors : sum local = 0.000369713, global = 2.27273e-18, cumulative = -3.10215e-16
[OGL LOG] init_host_sparsity_pattern : 289 ms
[OGL LOG] matrix not stored update host matrix
[OGL LOG] update_host_mtx : 150 ms
[OGL LOG] matrix is not yet sorted, sorting host matrix
[OGL LOG] sort_host_mtx_sparsity_pattern : 210 ms
[OGL LOG] sort_host_mtx : 105 ms
[OGL LOG] init_preconditioner : 0 ms
[OGL LOG] solve : 1094 ms
nonecudaGKOBiCGStab:  Solving for p, Initial residual = 0.808418, Final residual = 9.75699e-05, No Iterations 463
linear solve p 1911
time step continuity errors : sum local = 0.210178, global = 1.76203e-16, cumulative = -1.34012e-16
ExecutionTime = 48.86 s  ClockTime = 49 s

Time = 0.008

Courant Number mean: 0.625072 max: 85.3723
nonePBiCGStab:  Solving for Ux, Initial residual = 0.652486, Final residual = 0.355241, No Iterations 5
nonePBiCGStab:  Solving for Uy, Initial residual = 0.715655, Final residual = 0.310896, No Iterations 5
nonePBiCGStab:  Solving for Uz, Initial residual = 0.788341, Final residual = 0.210438, No Iterations 5
linear solve U 576
[OGL LOG] init_host_sparsity_pattern : 279 ms
[OGL LOG] matrix not stored update host matrix
[OGL LOG] update_host_mtx : 150 ms
[OGL LOG] matrix is not yet sorted, sorting host matrix
[OGL LOG] sort_host_mtx_sparsity_pattern : 208 ms
[OGL LOG] sort_host_mtx : 104 ms
[OGL LOG] init_preconditioner : 0 ms
[OGL LOG] solve : 1320 ms
nonecudaGKOBiCGStab:  Solving for p, Initial residual = 0.929448, Final residual = 9.52001e-05, No Iterations 560
linear solve p 2124
time step continuity errors : sum local = 0.117439, global = -2.00967e-17, cumulative = -1.54108e-16
[OGL LOG] init_host_sparsity_pattern : 289 ms
[OGL LOG] matrix not stored update host matrix
[OGL LOG] update_host_mtx : 150 ms
[OGL LOG] matrix is not yet sorted, sorting host matrix
[OGL LOG] sort_host_mtx_sparsity_pattern : 210 ms
[OGL LOG] sort_host_mtx : 105 ms
[OGL LOG] init_preconditioner : 0 ms
[OGL LOG] solve : 1302 ms
nonecudaGKOBiCGStab:  Solving for p, Initial residual = 0.765141, Final residual = 6.48109e-05, No Iterations 554
linear solve p 2122
time step continuity errors : sum local = 0.21311, global = 1.53577e-16, cumulative = -5.31949e-19
ExecutionTime = 54.33 s  ClockTime = 55 s

Time = 0.009

Courant Number mean: 0.844551 max: 89.6254
nonePBiCGStab:  Solving for Ux, Initial residual = 0.667342, Final residual = 0.295622, No Iterations 5
nonePBiCGStab:  Solving for Uy, Initial residual = 0.704164, Final residual = 0.290676, No Iterations 5
nonePBiCGStab:  Solving for Uz, Initial residual = 0.772529, Final residual = 0.211297, No Iterations 5
linear solve U 581
[OGL LOG] init_host_sparsity_pattern : 278 ms
[OGL LOG] matrix not stored update host matrix
[OGL LOG] update_host_mtx : 151 ms
[OGL LOG] matrix is not yet sorted, sorting host matrix
[OGL LOG] sort_host_mtx_sparsity_pattern : 208 ms
[OGL LOG] sort_host_mtx : 105 ms
[OGL LOG] init_preconditioner : 0 ms
[OGL LOG] solve : 1300 ms
nonecudaGKOBiCGStab:  Solving for p, Initial residual = 0.973052, Final residual = 4.05265e-05, No Iterations 554
linear solve p 2107
time step continuity errors : sum local = 0.000204696, global = -1.30725e-18, cumulative = -1.8392e-18
[OGL LOG] init_host_sparsity_pattern : 289 ms
[OGL LOG] matrix not stored update host matrix
[OGL LOG] update_host_mtx : 151 ms
[OGL LOG] matrix is not yet sorted, sorting host matrix
[OGL LOG] sort_host_mtx_sparsity_pattern : 211 ms
[OGL LOG] sort_host_mtx : 105 ms
[OGL LOG] init_preconditioner : 0 ms
[OGL LOG] solve : 1291 ms
nonecudaGKOBiCGStab:  Solving for p, Initial residual = 0.803779, Final residual = 9.94811e-05, No Iterations 552
linear solve p 2110
time step continuity errors : sum local = 0.0816755, global = 3.86396e-16, cumulative = 3.84557e-16
ExecutionTime = 59.73 s  ClockTime = 60 s

Time = 0.01

Courant Number mean: 0.887137 max: 49.8248
nonePBiCGStab:  Solving for Ux, Initial residual = 0.615896, Final residual = 0.256123, No Iterations 5
nonePBiCGStab:  Solving for Uy, Initial residual = 0.623702, Final residual = 0.15413, No Iterations 5
nonePBiCGStab:  Solving for Uz, Initial residual = 0.784767, Final residual = 1.28664, No Iterations 5
linear solve U 591
[OGL LOG] init_host_sparsity_pattern : 278 ms
[OGL LOG] matrix not stored update host matrix
[OGL LOG] update_host_mtx : 151 ms
[OGL LOG] matrix is not yet sorted, sorting host matrix
[OGL LOG] sort_host_mtx_sparsity_pattern : 215 ms
[OGL LOG] sort_host_mtx : 104 ms
[OGL LOG] init_preconditioner : 0 ms
[OGL LOG] solve : 431 ms
nonecudaGKOBiCGStab:  Solving for p, Initial residual = 0.973525, Final residual = 8.87836e-05, No Iterations 181
linear solve p 1243
time step continuity errors : sum local = 0.00195036, global = -4.51726e-18, cumulative = 3.80039e-16
[OGL LOG] init_host_sparsity_pattern : 288 ms
[OGL LOG] matrix not stored update host matrix
[OGL LOG] update_host_mtx : 150 ms
[OGL LOG] matrix is not yet sorted, sorting host matrix
[OGL LOG] sort_host_mtx_sparsity_pattern : 208 ms
[OGL LOG] sort_host_mtx : 105 ms
[OGL LOG] init_preconditioner : 0 ms
[OGL LOG] solve : 425 ms
nonecudaGKOBiCGStab:  Solving for p, Initial residual = 0.748014, Final residual = 7.37461e-05, No Iterations 177
linear solve p 1240
time step continuity errors : sum local = 0.00529643, global = -7.9408e-19, cumulative = 3.79245e-16
ExecutionTime = 63.44 s  ClockTime = 64 s

End

