/*---------------------------------------------------------------------------*\
  =========                 |
  \\      /  F ield         | OpenFOAM: The Open Source CFD Toolbox
   \\    /   O peration     | Website:  https://openfoam.org
    \\  /    A nd           | Version:  8
     \\/     M anipulation  |
\*---------------------------------------------------------------------------*/
Build  : 8-40a5a48f630f
Exec   : icoFoam
Date   : Jul 27 2021
Time   : 22:23:16
Host   : "uc2n481.localdomain"
PID    : 136607
I/O    : uncollated
Case   : /pfs/data5/home/kit/scc/nq7776/code/OBR/lidDrivenCavity3D/Variation_mesh/30/Variation_matrix_solver/IR_NoPrecond_CUDA/base
nProcs : 1
sigFpe : Enabling floating point exception trapping (FOAM_SIGFPE).
fileModificationChecking : Monitoring run-time modified files using timeStampMaster (fileModificationSkew 10)
allowSystemOperations : Allowing user-supplied system call operations

// * * * * * * * * * * * * * * * * * * * * * * * * * * * * * * * * * * * * * //
Create time

Create mesh for time = 0

Reading transportProperties

Reading field p

Reading field U

Reading/calculating face flux field phi


Starting time loop

Time = 0.001

Courant Number mean: 0 max: 0
nonePBiCGStab:  Solving for Ux, Initial residual = 1, Final residual = 0.00734209, No Iterations 5
nonePBiCGStab:  Solving for Uy, Initial residual = 0, Final residual = 0, No Iterations 0
nonePBiCGStab:  Solving for Uz, Initial residual = 0, Final residual = 0, No Iterations 0
linear solve U 5
[OGL LOG] init_host_sparsity_pattern : 7 ms
[OGL LOG] matrix not stored update host matrix
[OGL LOG] update_host_mtx : 3 ms
[OGL LOG] matrix is not yet sorted, compute sorting idxs
[OGL LOG] compute_sort : 194 ms
[OGL LOG] matrix is not yet sorted, sorting host matrix
[OGL LOG] sort_host_mtx_sparsity_pattern : 5 ms
[OGL LOG] sort_host_mtx : 2 ms
[OGL LOG] init_preconditioner : 0 ms
[OGL LOG] solve : 37 ms
nonecudaGKOIR:  Solving for p, Initial residual = 1, Final residual = 7.92657e-06, No Iterations 3
linear solve p 1018
time step continuity errors : sum local = 4.22208e-09, global = -1.00326e-20, cumulative = -1.00326e-20
[OGL LOG] init_host_sparsity_pattern : 7 ms
[OGL LOG] matrix not stored update host matrix
[OGL LOG] update_host_mtx : 3 ms
[OGL LOG] matrix is not yet sorted, sorting host matrix
[OGL LOG] sort_host_mtx_sparsity_pattern : 5 ms
[OGL LOG] sort_host_mtx : 2 ms
[OGL LOG] init_preconditioner : 0 ms
[OGL LOG] solve : 36 ms
nonecudaGKOIR:  Solving for p, Initial residual = 0.531088, Final residual = 2.28227e-06, No Iterations 3
linear solve p 58
time step continuity errors : sum local = 1.90341e-09, global = -2.73295e-21, cumulative = -1.27655e-20
ExecutionTime = 1.2 s  ClockTime = 1 s

Time = 0.002

Courant Number mean: 0.015082 max: 0.148277
nonePBiCGStab:  Solving for Ux, Initial residual = 0.195864, Final residual = 0.00210031, No Iterations 5
nonePBiCGStab:  Solving for Uy, Initial residual = 0.281603, Final residual = 0.00191331, No Iterations 5
nonePBiCGStab:  Solving for Uz, Initial residual = 0.925318, Final residual = 0.0100566, No Iterations 5
linear solve U 10
[OGL LOG] init_host_sparsity_pattern : 7 ms
[OGL LOG] matrix not stored update host matrix
[OGL LOG] update_host_mtx : 3 ms
[OGL LOG] matrix is not yet sorted, sorting host matrix
[OGL LOG] sort_host_mtx_sparsity_pattern : 5 ms
[OGL LOG] sort_host_mtx : 2 ms
[OGL LOG] init_preconditioner : 0 ms
[OGL LOG] solve : 36 ms
nonecudaGKOIR:  Solving for p, Initial residual = 0.350897, Final residual = 8.55057e-07, No Iterations 3
linear solve p 57
time step continuity errors : sum local = 6.71998e-10, global = -1.05006e-20, cumulative = -2.32662e-20
[OGL LOG] init_host_sparsity_pattern : 9 ms
[OGL LOG] matrix not stored update host matrix
[OGL LOG] update_host_mtx : 3 ms
[OGL LOG] matrix is not yet sorted, sorting host matrix
[OGL LOG] sort_host_mtx_sparsity_pattern : 5 ms
[OGL LOG] sort_host_mtx : 2 ms
[OGL LOG] init_preconditioner : 0 ms
[OGL LOG] solve : 28 ms
nonecudaGKOIR:  Solving for p, Initial residual = 0.251239, Final residual = 7.09562e-05, No Iterations 2
linear solve p 52
time step continuity errors : sum local = 5.86513e-08, global = -8.41745e-21, cumulative = -3.16836e-20
ExecutionTime = 1.34 s  ClockTime = 1 s

Time = 0.003

Courant Number mean: 0.0234541 max: 0.204101
nonePBiCGStab:  Solving for Ux, Initial residual = 0.0796785, Final residual = 0.000580144, No Iterations 5
nonePBiCGStab:  Solving for Uy, Initial residual = 0.116757, Final residual = 0.000486155, No Iterations 5
nonePBiCGStab:  Solving for Uz, Initial residual = 0.209441, Final residual = 0.00162375, No Iterations 5
linear solve U 10
[OGL LOG] init_host_sparsity_pattern : 6 ms
[OGL LOG] matrix not stored update host matrix
[OGL LOG] update_host_mtx : 3 ms
[OGL LOG] matrix is not yet sorted, sorting host matrix
[OGL LOG] sort_host_mtx_sparsity_pattern : 5 ms
[OGL LOG] sort_host_mtx : 2 ms
[OGL LOG] init_preconditioner : 0 ms
[OGL LOG] solve : 28 ms
nonecudaGKOIR:  Solving for p, Initial residual = 0.110585, Final residual = 2.46814e-05, No Iterations 2
linear solve p 49
time step continuity errors : sum local = 1.80216e-08, global = -5.58863e-21, cumulative = -3.72722e-20
[OGL LOG] init_host_sparsity_pattern : 7 ms
[OGL LOG] matrix not stored update host matrix
[OGL LOG] update_host_mtx : 3 ms
[OGL LOG] matrix is not yet sorted, sorting host matrix
[OGL LOG] sort_host_mtx_sparsity_pattern : 5 ms
[OGL LOG] sort_host_mtx : 2 ms
[OGL LOG] init_preconditioner : 0 ms
[OGL LOG] solve : 28 ms
nonecudaGKOIR:  Solving for p, Initial residual = 0.0812294, Final residual = 1.63191e-05, No Iterations 2
linear solve p 49
time step continuity errors : sum local = 1.21391e-08, global = -3.67895e-22, cumulative = -3.76401e-20
ExecutionTime = 1.47 s  ClockTime = 1 s

Time = 0.004

Courant Number mean: 0.028581 max: 0.226294
nonePBiCGStab:  Solving for Ux, Initial residual = 0.0461252, Final residual = 0.000145536, No Iterations 5
nonePBiCGStab:  Solving for Uy, Initial residual = 0.0702953, Final residual = 0.000144938, No Iterations 5
nonePBiCGStab:  Solving for Uz, Initial residual = 0.113339, Final residual = 0.000653075, No Iterations 5
linear solve U 10
[OGL LOG] init_host_sparsity_pattern : 7 ms
[OGL LOG] matrix not stored update host matrix
[OGL LOG] update_host_mtx : 3 ms
[OGL LOG] matrix is not yet sorted, sorting host matrix
[OGL LOG] sort_host_mtx_sparsity_pattern : 5 ms
[OGL LOG] sort_host_mtx : 2 ms
[OGL LOG] init_preconditioner : 0 ms
[OGL LOG] solve : 28 ms
nonecudaGKOIR:  Solving for p, Initial residual = 0.0567801, Final residual = 1.52584e-05, No Iterations 2
linear solve p 50
time step continuity errors : sum local = 1.1187e-08, global = 3.39634e-20, cumulative = -3.67676e-21
[OGL LOG] init_host_sparsity_pattern : 7 ms
[OGL LOG] matrix not stored update host matrix
[OGL LOG] update_host_mtx : 3 ms
[OGL LOG] matrix is not yet sorted, sorting host matrix
[OGL LOG] sort_host_mtx_sparsity_pattern : 5 ms
[OGL LOG] sort_host_mtx : 2 ms
[OGL LOG] init_preconditioner : 0 ms
[OGL LOG] solve : 28 ms
nonecudaGKOIR:  Solving for p, Initial residual = 0.0415741, Final residual = 9.55517e-06, No Iterations 2
linear solve p 49
time step continuity errors : sum local = 7.12226e-09, global = 1.18989e-20, cumulative = 8.2221e-21
ExecutionTime = 1.59 s  ClockTime = 1 s

Time = 0.005

Courant Number mean: 0.0322797 max: 0.237314
nonePBiCGStab:  Solving for Ux, Initial residual = 0.0315199, Final residual = 6.6736e-05, No Iterations 5
nonePBiCGStab:  Solving for Uy, Initial residual = 0.0484214, Final residual = 7.36342e-05, No Iterations 5
nonePBiCGStab:  Solving for Uz, Initial residual = 0.0821979, Final residual = 0.000332434, No Iterations 5
linear solve U 10
[OGL LOG] init_host_sparsity_pattern : 7 ms
[OGL LOG] matrix not stored update host matrix
[OGL LOG] update_host_mtx : 3 ms
[OGL LOG] matrix is not yet sorted, sorting host matrix
[OGL LOG] sort_host_mtx_sparsity_pattern : 5 ms
[OGL LOG] sort_host_mtx : 2 ms
[OGL LOG] init_preconditioner : 0 ms
[OGL LOG] solve : 29 ms
nonecudaGKOIR:  Solving for p, Initial residual = 0.0352022, Final residual = 7.805e-06, No Iterations 2
linear solve p 50
time step continuity errors : sum local = 5.82437e-09, global = -2.84354e-20, cumulative = -2.02133e-20
[OGL LOG] init_host_sparsity_pattern : 7 ms
[OGL LOG] matrix not stored update host matrix
[OGL LOG] update_host_mtx : 3 ms
[OGL LOG] matrix is not yet sorted, sorting host matrix
[OGL LOG] sort_host_mtx_sparsity_pattern : 5 ms
[OGL LOG] sort_host_mtx : 2 ms
[OGL LOG] init_preconditioner : 0 ms
[OGL LOG] solve : 31 ms
nonecudaGKOIR:  Solving for p, Initial residual = 0.0259854, Final residual = 5.33618e-06, No Iterations 2
linear solve p 52
time step continuity errors : sum local = 4.01682e-09, global = 6.31359e-21, cumulative = -1.38997e-20
ExecutionTime = 1.71 s  ClockTime = 1 s

Time = 0.006

Courant Number mean: 0.0351495 max: 0.243824
nonePBiCGStab:  Solving for Ux, Initial residual = 0.0235743, Final residual = 3.63167e-05, No Iterations 5
nonePBiCGStab:  Solving for Uy, Initial residual = 0.036575, Final residual = 4.29955e-05, No Iterations 5
nonePBiCGStab:  Solving for Uz, Initial residual = 0.0649287, Final residual = 0.000192131, No Iterations 5
linear solve U 10
[OGL LOG] init_host_sparsity_pattern : 7 ms
[OGL LOG] matrix not stored update host matrix
[OGL LOG] update_host_mtx : 3 ms
[OGL LOG] matrix is not yet sorted, sorting host matrix
[OGL LOG] sort_host_mtx_sparsity_pattern : 5 ms
[OGL LOG] sort_host_mtx : 2 ms
[OGL LOG] init_preconditioner : 0 ms
[OGL LOG] solve : 28 ms
nonecudaGKOIR:  Solving for p, Initial residual = 0.0251424, Final residual = 5.84794e-06, No Iterations 2
linear solve p 49
time step continuity errors : sum local = 4.41507e-09, global = -5.19388e-20, cumulative = -6.58385e-20
[OGL LOG] init_host_sparsity_pattern : 7 ms
[OGL LOG] matrix not stored update host matrix
[OGL LOG] update_host_mtx : 3 ms
[OGL LOG] matrix is not yet sorted, sorting host matrix
[OGL LOG] sort_host_mtx_sparsity_pattern : 5 ms
[OGL LOG] sort_host_mtx : 2 ms
[OGL LOG] init_preconditioner : 0 ms
[OGL LOG] solve : 28 ms
nonecudaGKOIR:  Solving for p, Initial residual = 0.0186855, Final residual = 3.67335e-06, No Iterations 2
linear solve p 50
time step continuity errors : sum local = 2.7902e-09, global = 9.89695e-21, cumulative = -5.59416e-20
ExecutionTime = 1.84 s  ClockTime = 2 s

Time = 0.007

Courant Number mean: 0.0374505 max: 0.248188
nonePBiCGStab:  Solving for Ux, Initial residual = 0.0186123, Final residual = 2.12643e-05, No Iterations 5
nonePBiCGStab:  Solving for Uy, Initial residual = 0.0290919, Final residual = 2.68848e-05, No Iterations 5
nonePBiCGStab:  Solving for Uz, Initial residual = 0.05339, Final residual = 0.000118614, No Iterations 5
linear solve U 9
[OGL LOG] init_host_sparsity_pattern : 7 ms
[OGL LOG] matrix not stored update host matrix
[OGL LOG] update_host_mtx : 3 ms
[OGL LOG] matrix is not yet sorted, sorting host matrix
[OGL LOG] sort_host_mtx_sparsity_pattern : 5 ms
[OGL LOG] sort_host_mtx : 2 ms
[OGL LOG] init_preconditioner : 0 ms
[OGL LOG] solve : 29 ms
nonecudaGKOIR:  Solving for p, Initial residual = 0.0195444, Final residual = 3.55738e-06, No Iterations 2
linear solve p 50
time step continuity errors : sum local = 2.70971e-09, global = -1.68404e-20, cumulative = -7.2782e-20
[OGL LOG] init_host_sparsity_pattern : 7 ms
[OGL LOG] matrix not stored update host matrix
[OGL LOG] update_host_mtx : 3 ms
[OGL LOG] matrix is not yet sorted, sorting host matrix
[OGL LOG] sort_host_mtx_sparsity_pattern : 5 ms
[OGL LOG] sort_host_mtx : 2 ms
[OGL LOG] init_preconditioner : 0 ms
[OGL LOG] solve : 30 ms
nonecudaGKOIR:  Solving for p, Initial residual = 0.0146367, Final residual = 2.40986e-06, No Iterations 2
linear solve p 51
time step continuity errors : sum local = 1.8432e-09, global = -1.16896e-20, cumulative = -8.44715e-20
ExecutionTime = 1.97 s  ClockTime = 2 s

Time = 0.008

Courant Number mean: 0.0393461 max: 0.25136
nonePBiCGStab:  Solving for Ux, Initial residual = 0.0151767, Final residual = 1.2473e-05, No Iterations 5
nonePBiCGStab:  Solving for Uy, Initial residual = 0.0239509, Final residual = 1.76567e-05, No Iterations 5
nonePBiCGStab:  Solving for Uz, Initial residual = 0.0450036, Final residual = 7.77205e-05, No Iterations 5
linear solve U 10
[OGL LOG] init_host_sparsity_pattern : 7 ms
[OGL LOG] matrix not stored update host matrix
[OGL LOG] update_host_mtx : 3 ms
[OGL LOG] matrix is not yet sorted, sorting host matrix
[OGL LOG] sort_host_mtx_sparsity_pattern : 5 ms
[OGL LOG] sort_host_mtx : 2 ms
[OGL LOG] init_preconditioner : 0 ms
[OGL LOG] solve : 29 ms
nonecudaGKOIR:  Solving for p, Initial residual = 0.0157421, Final residual = 3.23423e-06, No Iterations 2
linear solve p 50
time step continuity errors : sum local = 2.48035e-09, global = -1.42546e-20, cumulative = -9.87261e-20
[OGL LOG] init_host_sparsity_pattern : 7 ms
[OGL LOG] matrix not stored update host matrix
[OGL LOG] update_host_mtx : 3 ms
[OGL LOG] matrix is not yet sorted, sorting host matrix
[OGL LOG] sort_host_mtx_sparsity_pattern : 5 ms
[OGL LOG] sort_host_mtx : 2 ms
[OGL LOG] init_preconditioner : 0 ms
[OGL LOG] solve : 29 ms
nonecudaGKOIR:  Solving for p, Initial residual = 0.0118753, Final residual = 2.08454e-06, No Iterations 2
linear solve p 51
time step continuity errors : sum local = 1.60356e-09, global = 8.69768e-21, cumulative = -9.00284e-20
ExecutionTime = 2.09 s  ClockTime = 2 s

Time = 0.009

Courant Number mean: 0.0409907 max: 0.253798
nonePBiCGStab:  Solving for Ux, Initial residual = 0.0127176, Final residual = 8.20562e-06, No Iterations 5
nonePBiCGStab:  Solving for Uy, Initial residual = 0.0201905, Final residual = 1.22228e-05, No Iterations 5
nonePBiCGStab:  Solving for Uz, Initial residual = 0.0385964, Final residual = 5.62187e-05, No Iterations 5
linear solve U 11
[OGL LOG] init_host_sparsity_pattern : 7 ms
[OGL LOG] matrix not stored update host matrix
[OGL LOG] update_host_mtx : 3 ms
[OGL LOG] matrix is not yet sorted, sorting host matrix
[OGL LOG] sort_host_mtx_sparsity_pattern : 5 ms
[OGL LOG] sort_host_mtx : 2 ms
[OGL LOG] init_preconditioner : 0 ms
[OGL LOG] solve : 30 ms
nonecudaGKOIR:  Solving for p, Initial residual = 0.0131113, Final residual = 2.47844e-06, No Iterations 2
linear solve p 52
time step continuity errors : sum local = 1.91048e-09, global = 1.60115e-21, cumulative = -8.84273e-20
[OGL LOG] init_host_sparsity_pattern : 7 ms
[OGL LOG] matrix not stored update host matrix
[OGL LOG] update_host_mtx : 3 ms
[OGL LOG] matrix is not yet sorted, sorting host matrix
[OGL LOG] sort_host_mtx_sparsity_pattern : 5 ms
[OGL LOG] sort_host_mtx : 2 ms
[OGL LOG] init_preconditioner : 0 ms
[OGL LOG] solve : 29 ms
nonecudaGKOIR:  Solving for p, Initial residual = 0.00993002, Final residual = 1.45151e-06, No Iterations 2
linear solve p 51
time step continuity errors : sum local = 1.12179e-09, global = 1.9257e-20, cumulative = -6.91703e-20
ExecutionTime = 2.21 s  ClockTime = 2 s

Time = 0.01

Courant Number mean: 0.0424257 max: 0.255737
nonePBiCGStab:  Solving for Ux, Initial residual = 0.0108357, Final residual = 5.67581e-06, No Iterations 5
nonePBiCGStab:  Solving for Uy, Initial residual = 0.0173201, Final residual = 8.91079e-06, No Iterations 5
nonePBiCGStab:  Solving for Uz, Initial residual = 0.0335456, Final residual = 4.31214e-05, No Iterations 5
linear solve U 9
[OGL LOG] init_host_sparsity_pattern : 7 ms
[OGL LOG] matrix not stored update host matrix
[OGL LOG] update_host_mtx : 3 ms
[OGL LOG] matrix is not yet sorted, sorting host matrix
[OGL LOG] sort_host_mtx_sparsity_pattern : 5 ms
[OGL LOG] sort_host_mtx : 2 ms
[OGL LOG] init_preconditioner : 0 ms
[OGL LOG] solve : 30 ms
nonecudaGKOIR:  Solving for p, Initial residual = 0.0111047, Final residual = 1.93348e-06, No Iterations 2
linear solve p 51
time step continuity errors : sum local = 1.49684e-09, global = -7.90254e-21, cumulative = -7.70728e-20
[OGL LOG] init_host_sparsity_pattern : 6 ms
[OGL LOG] matrix not stored update host matrix
[OGL LOG] update_host_mtx : 3 ms
[OGL LOG] matrix is not yet sorted, sorting host matrix
[OGL LOG] sort_host_mtx_sparsity_pattern : 5 ms
[OGL LOG] sort_host_mtx : 2 ms
[OGL LOG] init_preconditioner : 0 ms
[OGL LOG] solve : 29 ms
nonecudaGKOIR:  Solving for p, Initial residual = 0.00844615, Final residual = 1.29592e-06, No Iterations 2
linear solve p 50
time step continuity errors : sum local = 1.00542e-09, global = -2.57277e-20, cumulative = -1.02801e-19
ExecutionTime = 2.34 s  ClockTime = 2 s

End

