/*---------------------------------------------------------------------------*\
  =========                 |
  \\      /  F ield         | OpenFOAM: The Open Source CFD Toolbox
   \\    /   O peration     | Website:  https://openfoam.org
    \\  /    A nd           | Version:  8
     \\/     M anipulation  |
\*---------------------------------------------------------------------------*/
Build  : 8-40a5a48f630f
Exec   : icoFoam
Date   : Jul 27 2021
Time   : 22:22:50
Host   : "uc2n481.localdomain"
PID    : 136174
I/O    : uncollated
Case   : /pfs/data5/home/kit/scc/nq7776/code/OBR/lidDrivenCavity3D/Variation_mesh/30/Variation_matrix_solver/CG_NoPrecond_CUDA/base
nProcs : 1
sigFpe : Enabling floating point exception trapping (FOAM_SIGFPE).
fileModificationChecking : Monitoring run-time modified files using timeStampMaster (fileModificationSkew 10)
allowSystemOperations : Allowing user-supplied system call operations

// * * * * * * * * * * * * * * * * * * * * * * * * * * * * * * * * * * * * * //
Create time

Create mesh for time = 0

Reading transportProperties

Reading field p

Reading field U

Reading/calculating face flux field phi


Starting time loop

Time = 0.001

Courant Number mean: 0 max: 0
nonePBiCGStab:  Solving for Ux, Initial residual = 1, Final residual = 0.00734209, No Iterations 5
nonePBiCGStab:  Solving for Uy, Initial residual = 0, Final residual = 0, No Iterations 0
nonePBiCGStab:  Solving for Uz, Initial residual = 0, Final residual = 0, No Iterations 0
linear solve U 5
[OGL LOG] init_host_sparsity_pattern : 7 ms
[OGL LOG] matrix not stored update host matrix
[OGL LOG] update_host_mtx : 3 ms
[OGL LOG] matrix is not yet sorted, compute sorting idxs
[OGL LOG] compute_sort : 193 ms
[OGL LOG] matrix is not yet sorted, sorting host matrix
[OGL LOG] sort_host_mtx_sparsity_pattern : 4 ms
[OGL LOG] sort_host_mtx : 2 ms
[OGL LOG] init_preconditioner : 0 ms
[OGL LOG] solve : 35 ms
nonecudaGKOCG:  Solving for p, Initial residual = 1, Final residual = 9.46409e-05, No Iterations 231
linear solve p 1017
time step continuity errors : sum local = 5.01757e-08, global = -6.46473e-21, cumulative = -6.46473e-21
[OGL LOG] init_host_sparsity_pattern : 7 ms
[OGL LOG] matrix not stored update host matrix
[OGL LOG] update_host_mtx : 3 ms
[OGL LOG] matrix is not yet sorted, sorting host matrix
[OGL LOG] sort_host_mtx_sparsity_pattern : 5 ms
[OGL LOG] sort_host_mtx : 2 ms
[OGL LOG] init_preconditioner : 0 ms
[OGL LOG] solve : 34 ms
nonecudaGKOCG:  Solving for p, Initial residual = 0.531064, Final residual = 8.82762e-05, No Iterations 227
linear solve p 56
time step continuity errors : sum local = 7.34825e-08, global = -1.15262e-20, cumulative = -1.79909e-20
ExecutionTime = 1.2 s  ClockTime = 1 s

Time = 0.002

Courant Number mean: 0.015082 max: 0.148276
nonePBiCGStab:  Solving for Ux, Initial residual = 0.195864, Final residual = 0.00210031, No Iterations 5
nonePBiCGStab:  Solving for Uy, Initial residual = 0.281603, Final residual = 0.0019133, No Iterations 5
nonePBiCGStab:  Solving for Uz, Initial residual = 0.925306, Final residual = 0.0100557, No Iterations 5
linear solve U 10
[OGL LOG] init_host_sparsity_pattern : 6 ms
[OGL LOG] matrix not stored update host matrix
[OGL LOG] update_host_mtx : 3 ms
[OGL LOG] matrix is not yet sorted, sorting host matrix
[OGL LOG] sort_host_mtx_sparsity_pattern : 5 ms
[OGL LOG] sort_host_mtx : 3 ms
[OGL LOG] init_preconditioner : 0 ms
[OGL LOG] solve : 33 ms
nonecudaGKOCG:  Solving for p, Initial residual = 0.350908, Final residual = 8.66459e-05, No Iterations 224
linear solve p 55
time step continuity errors : sum local = 6.79783e-08, global = -4.06081e-22, cumulative = -1.8397e-20
[OGL LOG] init_host_sparsity_pattern : 7 ms
[OGL LOG] matrix not stored update host matrix
[OGL LOG] update_host_mtx : 3 ms
[OGL LOG] matrix is not yet sorted, sorting host matrix
[OGL LOG] sort_host_mtx_sparsity_pattern : 4 ms
[OGL LOG] sort_host_mtx : 5 ms
[OGL LOG] init_preconditioner : 0 ms
[OGL LOG] solve : 33 ms
nonecudaGKOCG:  Solving for p, Initial residual = 0.251241, Final residual = 9.62897e-05, No Iterations 220
linear solve p 57
time step continuity errors : sum local = 7.95664e-08, global = -2.36638e-21, cumulative = -2.07634e-20
ExecutionTime = 1.34 s  ClockTime = 1 s

Time = 0.003

Courant Number mean: 0.0234541 max: 0.204101
nonePBiCGStab:  Solving for Ux, Initial residual = 0.0796761, Final residual = 0.000580123, No Iterations 5
nonePBiCGStab:  Solving for Uy, Initial residual = 0.116764, Final residual = 0.000486157, No Iterations 5
nonePBiCGStab:  Solving for Uz, Initial residual = 0.209206, Final residual = 0.00162361, No Iterations 5
linear solve U 9
[OGL LOG] init_host_sparsity_pattern : 7 ms
[OGL LOG] matrix not stored update host matrix
[OGL LOG] update_host_mtx : 3 ms
[OGL LOG] matrix is not yet sorted, sorting host matrix
[OGL LOG] sort_host_mtx_sparsity_pattern : 5 ms
[OGL LOG] sort_host_mtx : 2 ms
[OGL LOG] init_preconditioner : 0 ms
[OGL LOG] solve : 32 ms
nonecudaGKOCG:  Solving for p, Initial residual = 0.110577, Final residual = 9.12664e-05, No Iterations 213
linear solve p 53
time step continuity errors : sum local = 6.66153e-08, global = 7.03349e-21, cumulative = -1.37299e-20
[OGL LOG] init_host_sparsity_pattern : 7 ms
[OGL LOG] matrix not stored update host matrix
[OGL LOG] update_host_mtx : 3 ms
[OGL LOG] matrix is not yet sorted, sorting host matrix
[OGL LOG] sort_host_mtx_sparsity_pattern : 5 ms
[OGL LOG] sort_host_mtx : 2 ms
[OGL LOG] init_preconditioner : 0 ms
[OGL LOG] solve : 30 ms
nonecudaGKOCG:  Solving for p, Initial residual = 0.0812302, Final residual = 9.73787e-05, No Iterations 207
linear solve p 51
time step continuity errors : sum local = 7.2385e-08, global = 9.71518e-21, cumulative = -4.01471e-21
ExecutionTime = 1.47 s  ClockTime = 2 s

Time = 0.004

Courant Number mean: 0.0285809 max: 0.226293
nonePBiCGStab:  Solving for Ux, Initial residual = 0.0461244, Final residual = 0.000145534, No Iterations 5
nonePBiCGStab:  Solving for Uy, Initial residual = 0.0702975, Final residual = 0.000144957, No Iterations 5
nonePBiCGStab:  Solving for Uz, Initial residual = 0.113024, Final residual = 0.000654068, No Iterations 5
linear solve U 9
[OGL LOG] init_host_sparsity_pattern : 6 ms
[OGL LOG] matrix not stored update host matrix
[OGL LOG] update_host_mtx : 3 ms
[OGL LOG] matrix is not yet sorted, sorting host matrix
[OGL LOG] sort_host_mtx_sparsity_pattern : 4 ms
[OGL LOG] sort_host_mtx : 2 ms
[OGL LOG] init_preconditioner : 0 ms
[OGL LOG] solve : 30 ms
nonecudaGKOCG:  Solving for p, Initial residual = 0.0568177, Final residual = 9.77974e-05, No Iterations 205
linear solve p 51
time step continuity errors : sum local = 7.16343e-08, global = 5.24489e-21, cumulative = 1.23019e-21
[OGL LOG] init_host_sparsity_pattern : 7 ms
[OGL LOG] matrix not stored update host matrix
[OGL LOG] update_host_mtx : 3 ms
[OGL LOG] matrix is not yet sorted, sorting host matrix
[OGL LOG] sort_host_mtx_sparsity_pattern : 5 ms
[OGL LOG] sort_host_mtx : 2 ms
[OGL LOG] init_preconditioner : 0 ms
[OGL LOG] solve : 30 ms
nonecudaGKOCG:  Solving for p, Initial residual = 0.0416058, Final residual = 9.06203e-05, No Iterations 202
linear solve p 51
time step continuity errors : sum local = 6.74875e-08, global = 8.95309e-21, cumulative = 1.01833e-20
ExecutionTime = 1.59 s  ClockTime = 2 s

Time = 0.005

Courant Number mean: 0.0322797 max: 0.237314
nonePBiCGStab:  Solving for Ux, Initial residual = 0.0315194, Final residual = 6.67331e-05, No Iterations 5
nonePBiCGStab:  Solving for Uy, Initial residual = 0.0484234, Final residual = 7.36401e-05, No Iterations 5
nonePBiCGStab:  Solving for Uz, Initial residual = 0.0820161, Final residual = 0.000332435, No Iterations 5
linear solve U 9
[OGL LOG] init_host_sparsity_pattern : 7 ms
[OGL LOG] matrix not stored update host matrix
[OGL LOG] update_host_mtx : 3 ms
[OGL LOG] matrix is not yet sorted, sorting host matrix
[OGL LOG] sort_host_mtx_sparsity_pattern : 5 ms
[OGL LOG] sort_host_mtx : 2 ms
[OGL LOG] init_preconditioner : 0 ms
[OGL LOG] solve : 30 ms
nonecudaGKOCG:  Solving for p, Initial residual = 0.0352288, Final residual = 9.31122e-05, No Iterations 202
linear solve p 51
time step continuity errors : sum local = 6.94343e-08, global = -6.46573e-21, cumulative = 3.71755e-21
[OGL LOG] init_host_sparsity_pattern : 7 ms
[OGL LOG] matrix not stored update host matrix
[OGL LOG] update_host_mtx : 3 ms
[OGL LOG] matrix is not yet sorted, sorting host matrix
[OGL LOG] sort_host_mtx_sparsity_pattern : 5 ms
[OGL LOG] sort_host_mtx : 2 ms
[OGL LOG] init_preconditioner : 0 ms
[OGL LOG] solve : 33 ms
nonecudaGKOCG:  Solving for p, Initial residual = 0.0260036, Final residual = 9.01713e-05, No Iterations 199
linear solve p 54
time step continuity errors : sum local = 6.78145e-08, global = 8.50078e-21, cumulative = 1.22183e-20
ExecutionTime = 1.72 s  ClockTime = 2 s

Time = 0.006

Courant Number mean: 0.0351495 max: 0.243824
nonePBiCGStab:  Solving for Ux, Initial residual = 0.023574, Final residual = 3.63177e-05, No Iterations 5
nonePBiCGStab:  Solving for Uy, Initial residual = 0.0365758, Final residual = 4.30258e-05, No Iterations 5
nonePBiCGStab:  Solving for Uz, Initial residual = 0.0648742, Final residual = 0.000192997, No Iterations 5
linear solve U 10
[OGL LOG] init_host_sparsity_pattern : 7 ms
[OGL LOG] matrix not stored update host matrix
[OGL LOG] update_host_mtx : 3 ms
[OGL LOG] matrix is not yet sorted, sorting host matrix
[OGL LOG] sort_host_mtx_sparsity_pattern : 5 ms
[OGL LOG] sort_host_mtx : 3 ms
[OGL LOG] init_preconditioner : 0 ms
[OGL LOG] solve : 30 ms
nonecudaGKOCG:  Solving for p, Initial residual = 0.0251266, Final residual = 9.36429e-05, No Iterations 200
linear solve p 51
time step continuity errors : sum local = 7.06564e-08, global = -2.00024e-20, cumulative = -7.78411e-21
[OGL LOG] init_host_sparsity_pattern : 7 ms
[OGL LOG] matrix not stored update host matrix
[OGL LOG] update_host_mtx : 3 ms
[OGL LOG] matrix is not yet sorted, sorting host matrix
[OGL LOG] sort_host_mtx_sparsity_pattern : 5 ms
[OGL LOG] sort_host_mtx : 2 ms
[OGL LOG] init_preconditioner : 0 ms
[OGL LOG] solve : 29 ms
nonecudaGKOCG:  Solving for p, Initial residual = 0.0186704, Final residual = 9.99285e-05, No Iterations 197
linear solve p 50
time step continuity errors : sum local = 7.58561e-08, global = 8.76496e-21, cumulative = 9.80846e-22
ExecutionTime = 1.84 s  ClockTime = 2 s

Time = 0.007

Courant Number mean: 0.0374505 max: 0.248188
nonePBiCGStab:  Solving for Ux, Initial residual = 0.018612, Final residual = 2.1264e-05, No Iterations 5
nonePBiCGStab:  Solving for Uy, Initial residual = 0.0290927, Final residual = 2.68847e-05, No Iterations 5
nonePBiCGStab:  Solving for Uz, Initial residual = 0.0533902, Final residual = 0.000119699, No Iterations 5
linear solve U 10
[OGL LOG] init_host_sparsity_pattern : 7 ms
[OGL LOG] matrix not stored update host matrix
[OGL LOG] update_host_mtx : 3 ms
[OGL LOG] matrix is not yet sorted, sorting host matrix
[OGL LOG] sort_host_mtx_sparsity_pattern : 5 ms
[OGL LOG] sort_host_mtx : 2 ms
[OGL LOG] init_preconditioner : 0 ms
[OGL LOG] solve : 14 ms
nonecudaGKOCG:  Solving for p, Initial residual = 0.0195204, Final residual = 9.45844e-05, No Iterations 94
linear solve p 35
time step continuity errors : sum local = 8.89947e-08, global = -1.18284e-20, cumulative = -1.08476e-20
[OGL LOG] init_host_sparsity_pattern : 7 ms
[OGL LOG] matrix not stored update host matrix
[OGL LOG] update_host_mtx : 3 ms
[OGL LOG] matrix is not yet sorted, sorting host matrix
[OGL LOG] sort_host_mtx_sparsity_pattern : 4 ms
[OGL LOG] sort_host_mtx : 2 ms
[OGL LOG] init_preconditioner : 0 ms
[OGL LOG] solve : 13 ms
nonecudaGKOCG:  Solving for p, Initial residual = 0.0146409, Final residual = 9.66396e-05, No Iterations 86
linear solve p 34
time step continuity errors : sum local = 8.0455e-08, global = -4.18621e-21, cumulative = -1.50338e-20
ExecutionTime = 1.94 s  ClockTime = 2 s

Time = 0.008

Courant Number mean: 0.0393461 max: 0.25136
nonePBiCGStab:  Solving for Ux, Initial residual = 0.0151724, Final residual = 1.28924e-05, No Iterations 5
nonePBiCGStab:  Solving for Uy, Initial residual = 0.0239618, Final residual = 1.91869e-05, No Iterations 5
nonePBiCGStab:  Solving for Uz, Initial residual = 0.0450091, Final residual = 0.000103688, No Iterations 5
linear solve U 9
[OGL LOG] init_host_sparsity_pattern : 6 ms
[OGL LOG] matrix not stored update host matrix
[OGL LOG] update_host_mtx : 3 ms
[OGL LOG] matrix is not yet sorted, sorting host matrix
[OGL LOG] sort_host_mtx_sparsity_pattern : 4 ms
[OGL LOG] sort_host_mtx : 2 ms
[OGL LOG] init_preconditioner : 0 ms
[OGL LOG] solve : 13 ms
nonecudaGKOCG:  Solving for p, Initial residual = 0.0158342, Final residual = 9.98205e-05, No Iterations 88
linear solve p 34
time step continuity errors : sum local = 9.19208e-08, global = -4.54091e-21, cumulative = -1.95747e-20
[OGL LOG] init_host_sparsity_pattern : 7 ms
[OGL LOG] matrix not stored update host matrix
[OGL LOG] update_host_mtx : 3 ms
[OGL LOG] matrix is not yet sorted, sorting host matrix
[OGL LOG] sort_host_mtx_sparsity_pattern : 5 ms
[OGL LOG] sort_host_mtx : 2 ms
[OGL LOG] init_preconditioner : 0 ms
[OGL LOG] solve : 13 ms
nonecudaGKOCG:  Solving for p, Initial residual = 0.0119679, Final residual = 9.76025e-05, No Iterations 84
linear solve p 34
time step continuity errors : sum local = 8.40519e-08, global = -1.38875e-20, cumulative = -3.34622e-20
ExecutionTime = 2.03 s  ClockTime = 2 s

Time = 0.009

Courant Number mean: 0.0409908 max: 0.253798
nonePBiCGStab:  Solving for Ux, Initial residual = 0.012715, Final residual = 8.58284e-06, No Iterations 5
nonePBiCGStab:  Solving for Uy, Initial residual = 0.0201977, Final residual = 1.35377e-05, No Iterations 5
nonePBiCGStab:  Solving for Uz, Initial residual = 0.0385644, Final residual = 7.24952e-05, No Iterations 5
linear solve U 10
[OGL LOG] init_host_sparsity_pattern : 7 ms
[OGL LOG] matrix not stored update host matrix
[OGL LOG] update_host_mtx : 3 ms
[OGL LOG] matrix is not yet sorted, sorting host matrix
[OGL LOG] sort_host_mtx_sparsity_pattern : 5 ms
[OGL LOG] sort_host_mtx : 2 ms
[OGL LOG] init_preconditioner : 0 ms
[OGL LOG] solve : 13 ms
nonecudaGKOCG:  Solving for p, Initial residual = 0.0131686, Final residual = 9.92587e-05, No Iterations 87
linear solve p 35
time step continuity errors : sum local = 9.35738e-08, global = 7.70731e-21, cumulative = -2.57548e-20
[OGL LOG] init_host_sparsity_pattern : 8 ms
[OGL LOG] matrix not stored update host matrix
[OGL LOG] update_host_mtx : 3 ms
[OGL LOG] matrix is not yet sorted, sorting host matrix
[OGL LOG] sort_host_mtx_sparsity_pattern : 5 ms
[OGL LOG] sort_host_mtx : 2 ms
[OGL LOG] init_preconditioner : 0 ms
[OGL LOG] solve : 12 ms
nonecudaGKOCG:  Solving for p, Initial residual = 0.0100007, Final residual = 9.99437e-05, No Iterations 83
linear solve p 35
time step continuity errors : sum local = 8.86273e-08, global = -2.2321e-20, cumulative = -4.80758e-20
ExecutionTime = 2.12 s  ClockTime = 2 s

Time = 0.01

Courant Number mean: 0.0424258 max: 0.255737
nonePBiCGStab:  Solving for Ux, Initial residual = 0.0108338, Final residual = 6.16433e-06, No Iterations 5
nonePBiCGStab:  Solving for Uy, Initial residual = 0.0173259, Final residual = 1.00031e-05, No Iterations 5
nonePBiCGStab:  Solving for Uz, Initial residual = 0.0335071, Final residual = 5.74092e-05, No Iterations 5
linear solve U 10
[OGL LOG] init_host_sparsity_pattern : 6 ms
[OGL LOG] matrix not stored update host matrix
[OGL LOG] update_host_mtx : 3 ms
[OGL LOG] matrix is not yet sorted, sorting host matrix
[OGL LOG] sort_host_mtx_sparsity_pattern : 4 ms
[OGL LOG] sort_host_mtx : 2 ms
[OGL LOG] init_preconditioner : 0 ms
[OGL LOG] solve : 13 ms
nonecudaGKOCG:  Solving for p, Initial residual = 0.0111577, Final residual = 9.70531e-05, No Iterations 86
linear solve p 34
time step continuity errors : sum local = 9.29839e-08, global = 4.83204e-20, cumulative = 2.44629e-22
[OGL LOG] init_host_sparsity_pattern : 7 ms
[OGL LOG] matrix not stored update host matrix
[OGL LOG] update_host_mtx : 3 ms
[OGL LOG] matrix is not yet sorted, sorting host matrix
[OGL LOG] sort_host_mtx_sparsity_pattern : 5 ms
[OGL LOG] sort_host_mtx : 2 ms
[OGL LOG] init_preconditioner : 0 ms
[OGL LOG] solve : 13 ms
nonecudaGKOCG:  Solving for p, Initial residual = 0.00851204, Final residual = 9.29504e-05, No Iterations 83
linear solve p 34
time step continuity errors : sum local = 8.5351e-08, global = -9.71632e-21, cumulative = -9.47169e-21
ExecutionTime = 2.21 s  ClockTime = 2 s

End

