/*---------------------------------------------------------------------------*\
  =========                 |
  \\      /  F ield         | OpenFOAM: The Open Source CFD Toolbox
   \\    /   O peration     | Website:  https://openfoam.org
    \\  /    A nd           | Version:  8
     \\/     M anipulation  |
\*---------------------------------------------------------------------------*/
Build  : 8-40a5a48f630f
Exec   : icoFoam
Date   : Jul 28 2021
Time   : 01:39:29
Host   : "uc2n476.localdomain"
PID    : 1913812
I/O    : uncollated
Case   : /pfs/data5/home/kit/scc/nq7776/code/OBR/lidDrivenCavity3D/Variation_mesh/5/Variation_matrix_solver/BiCGStab_DIC_Serial/base
nProcs : 1
sigFpe : Enabling floating point exception trapping (FOAM_SIGFPE).
fileModificationChecking : Monitoring run-time modified files using timeStampMaster (fileModificationSkew 10)
allowSystemOperations : Allowing user-supplied system call operations

// * * * * * * * * * * * * * * * * * * * * * * * * * * * * * * * * * * * * * //
Create time

Create mesh for time = 0

Reading transportProperties

Reading field p

Reading field U

Reading/calculating face flux field phi


Starting time loop

Time = 0.001

Courant Number mean: 0 max: 0
nonePBiCGStab:  Solving for Ux, Initial residual = 1, Final residual = 2.34893e-07, No Iterations 3
nonePBiCGStab:  Solving for Uy, Initial residual = 0, Final residual = 0, No Iterations 0
nonePBiCGStab:  Solving for Uz, Initial residual = 0, Final residual = 0, No Iterations 0
linear solve U 0
DICPBiCGStab:  Solving for p, Initial residual = 1, Final residual = 5.78518e-05, No Iterations 8
linear solve p 0
time step continuity errors : sum local = 1.58797e-08, global = 3.97874e-21, cumulative = 3.97874e-21
DICPBiCGStab:  Solving for p, Initial residual = 0.0544895, Final residual = 3.92707e-05, No Iterations 7
linear solve p 0
time step continuity errors : sum local = 1.9897e-08, global = 4.8266e-22, cumulative = 4.4614e-21
ExecutionTime = 0.05 s  ClockTime = 0 s

Time = 0.002

Courant Number mean: 0.000593125 max: 0.00137349
nonePBiCGStab:  Solving for Ux, Initial residual = 0.290542, Final residual = 5.20345e-07, No Iterations 3
nonePBiCGStab:  Solving for Uy, Initial residual = 0.317551, Final residual = 8.88621e-08, No Iterations 3
nonePBiCGStab:  Solving for Uz, Initial residual = 0.318076, Final residual = 2.37262e-07, No Iterations 3
linear solve U 0
DICPBiCGStab:  Solving for p, Initial residual = 0.110436, Final residual = 8.3859e-05, No Iterations 4
linear solve p 0
time step continuity errors : sum local = 5.44802e-08, global = -2.42757e-21, cumulative = 2.03383e-21
DICPBiCGStab:  Solving for p, Initial residual = 0.00288972, Final residual = 6.69595e-05, No Iterations 2
linear solve p 0
time step continuity errors : sum local = 4.64017e-08, global = -1.14333e-20, cumulative = -9.39946e-21
ExecutionTime = 0.05 s  ClockTime = 0 s

Time = 0.003

Courant Number mean: 0.00113044 max: 0.00263294
nonePBiCGStab:  Solving for Ux, Initial residual = 0.161956, Final residual = 2.7297e-07, No Iterations 3
nonePBiCGStab:  Solving for Uy, Initial residual = 0.186574, Final residual = 5.50516e-08, No Iterations 3
nonePBiCGStab:  Solving for Uz, Initial residual = 0.234148, Final residual = 2.06926e-07, No Iterations 3
linear solve U 0
DICPBiCGStab:  Solving for p, Initial residual = 0.0561959, Final residual = 9.20956e-05, No Iterations 6
linear solve p 0
time step continuity errors : sum local = 8.68636e-08, global = 4.89484e-21, cumulative = -4.50462e-21
DICPBiCGStab:  Solving for p, Initial residual = 0.00151718, Final residual = 7.8469e-05, No Iterations 2
linear solve p 0
time step continuity errors : sum local = 7.79336e-08, global = -7.99884e-21, cumulative = -1.25035e-20
ExecutionTime = 0.05 s  ClockTime = 0 s

Time = 0.004

Courant Number mean: 0.00161824 max: 0.0037912
nonePBiCGStab:  Solving for Ux, Initial residual = 0.108867, Final residual = 1.69529e-07, No Iterations 3
nonePBiCGStab:  Solving for Uy, Initial residual = 0.129101, Final residual = 8.08475e-07, No Iterations 2
nonePBiCGStab:  Solving for Uz, Initial residual = 0.176527, Final residual = 1.27748e-07, No Iterations 3
linear solve U 0
DICPBiCGStab:  Solving for p, Initial residual = 0.0346547, Final residual = 2.26033e-05, No Iterations 6
linear solve p 0
time step continuity errors : sum local = 2.32195e-08, global = 1.32853e-20, cumulative = 7.81889e-22
DICPBiCGStab:  Solving for p, Initial residual = 0.00100472, Final residual = 3.6316e-05, No Iterations 2
linear solve p 0
time step continuity errors : sum local = 2.55557e-08, global = -4.94778e-21, cumulative = -4.16589e-21
ExecutionTime = 0.05 s  ClockTime = 0 s

Time = 0.005

Courant Number mean: 0.0020619 max: 0.00485796
nonePBiCGStab:  Solving for Ux, Initial residual = 0.0800422, Final residual = 1.13831e-07, No Iterations 3
nonePBiCGStab:  Solving for Uy, Initial residual = 0.0967264, Final residual = 5.81173e-07, No Iterations 2
nonePBiCGStab:  Solving for Uz, Initial residual = 0.145151, Final residual = 1.23457e-07, No Iterations 3
linear solve U 0
DICPBiCGStab:  Solving for p, Initial residual = 0.023633, Final residual = 6.195e-05, No Iterations 3
linear solve p 0
time step continuity errors : sum local = 6.06774e-08, global = 9.94271e-22, cumulative = -3.17162e-21
DICPBiCGStab:  Solving for p, Initial residual = 0.00075645, Final residual = 4.43366e-05, No Iterations 2
linear solve p 0
time step continuity errors : sum local = 4.86082e-08, global = -1.59108e-20, cumulative = -1.90824e-20
ExecutionTime = 0.05 s  ClockTime = 0 s

Time = 0.006

Courant Number mean: 0.00246619 max: 0.00584194
nonePBiCGStab:  Solving for Ux, Initial residual = 0.0620522, Final residual = 8.00177e-08, No Iterations 3
nonePBiCGStab:  Solving for Uy, Initial residual = 0.0759673, Final residual = 4.33776e-07, No Iterations 2
nonePBiCGStab:  Solving for Uz, Initial residual = 0.118205, Final residual = 9.86456e-07, No Iterations 2
linear solve U 0
DICPBiCGStab:  Solving for p, Initial residual = 0.0172421, Final residual = 1.4226e-05, No Iterations 6
linear solve p 0
time step continuity errors : sum local = 1.60596e-08, global = -1.98234e-21, cumulative = -2.10648e-20
DICPBiCGStab:  Solving for p, Initial residual = 0.000607201, Final residual = 2.0559e-05, No Iterations 2
linear solve p 0
time step continuity errors : sum local = 1.43114e-08, global = -1.80811e-20, cumulative = -3.91459e-20
ExecutionTime = 0.05 s  ClockTime = 0 s

Time = 0.007

Courant Number mean: 0.00283513 max: 0.00675069
nonePBiCGStab:  Solving for Ux, Initial residual = 0.0497659, Final residual = 9.31951e-07, No Iterations 2
nonePBiCGStab:  Solving for Uy, Initial residual = 0.0616561, Final residual = 3.31645e-07, No Iterations 2
nonePBiCGStab:  Solving for Uz, Initial residual = 0.100808, Final residual = 8.73931e-07, No Iterations 2
linear solve U 0
DICPBiCGStab:  Solving for p, Initial residual = 0.0133023, Final residual = 5.99254e-05, No Iterations 3
linear solve p 0
time step continuity errors : sum local = 6.74819e-08, global = 2.09541e-20, cumulative = -1.81918e-20
DICPBiCGStab:  Solving for p, Initial residual = 0.000505654, Final residual = 4.91206e-05, No Iterations 2
linear solve p 0
time step continuity errors : sum local = 5.78524e-08, global = -3.32039e-20, cumulative = -5.13956e-20
ExecutionTime = 0.05 s  ClockTime = 0 s

Time = 0.008

Courant Number mean: 0.00317232 max: 0.00759081
nonePBiCGStab:  Solving for Ux, Initial residual = 0.0409164, Final residual = 7.07908e-07, No Iterations 2
nonePBiCGStab:  Solving for Uy, Initial residual = 0.0511934, Final residual = 2.59078e-07, No Iterations 2
nonePBiCGStab:  Solving for Uz, Initial residual = 0.087807, Final residual = 7.30948e-07, No Iterations 2
linear solve U 0
DICPBiCGStab:  Solving for p, Initial residual = 0.010616, Final residual = 9.93842e-05, No Iterations 5
linear solve p 0
time step continuity errors : sum local = 1.18272e-07, global = 1.02306e-20, cumulative = -4.11651e-20
DICPBiCGStab:  Solving for p, Initial residual = 0.000462281, Final residual = 8.65834e-05, No Iterations 2
linear solve p 0
time step continuity errors : sum local = 1.04053e-07, global = -2.958e-21, cumulative = -4.41231e-20
ExecutionTime = 0.05 s  ClockTime = 0 s

Time = 0.009

Courant Number mean: 0.00348095 max: 0.00836824
nonePBiCGStab:  Solving for Ux, Initial residual = 0.0342429, Final residual = 5.43686e-07, No Iterations 2
nonePBiCGStab:  Solving for Uy, Initial residual = 0.0432846, Final residual = 2.05119e-07, No Iterations 2
nonePBiCGStab:  Solving for Uz, Initial residual = 0.0770336, Final residual = 6.26318e-07, No Iterations 2
linear solve U 0
DICPBiCGStab:  Solving for p, Initial residual = 0.00873166, Final residual = 7.60467e-06, No Iterations 6
linear solve p 0
time step continuity errors : sum local = 9.18897e-09, global = -2.90489e-20, cumulative = -7.3172e-20
DICPBiCGStab:  Solving for p, Initial residual = 0.000418728, Final residual = 7.92745e-05, No Iterations 1
linear solve p 0
time step continuity errors : sum local = 4.92432e-08, global = -9.56841e-21, cumulative = -8.27404e-20
ExecutionTime = 0.05 s  ClockTime = 0 s

Time = 0.01

Courant Number mean: 0.00376367 max: 0.00908829
nonePBiCGStab:  Solving for Ux, Initial residual = 0.0290321, Final residual = 4.20945e-07, No Iterations 2
nonePBiCGStab:  Solving for Uy, Initial residual = 0.0371374, Final residual = 1.64212e-07, No Iterations 2
nonePBiCGStab:  Solving for Uz, Initial residual = 0.0698911, Final residual = 6.50763e-07, No Iterations 2
linear solve U 0
DICPBiCGStab:  Solving for p, Initial residual = 0.00732942, Final residual = 2.62369e-05, No Iterations 3
linear solve p 0
time step continuity errors : sum local = 2.65731e-08, global = 1.59001e-20, cumulative = -6.68403e-20
DICPBiCGStab:  Solving for p, Initial residual = 0.000360018, Final residual = 6.78903e-05, No Iterations 1
linear solve p 0
time step continuity errors : sum local = 5.1226e-08, global = 6.98513e-21, cumulative = -5.98552e-20
ExecutionTime = 0.05 s  ClockTime = 0 s

End

