/*---------------------------------------------------------------------------*\
  =========                 |
  \\      /  F ield         | OpenFOAM: The Open Source CFD Toolbox
   \\    /   O peration     | Website:  https://openfoam.org
    \\  /    A nd           | Version:  8
     \\/     M anipulation  |
\*---------------------------------------------------------------------------*/
Build  : 8-40a5a48f630f
Exec   : icoFoam
Date   : Jul 28 2021
Time   : 01:46:36
Host   : "uc2n476.localdomain"
PID    : 1914974
I/O    : uncollated
Case   : /pfs/data5/home/kit/scc/nq7776/code/OBR/lidDrivenCavity3D/Variation_mesh/90/Variation_matrix_solver/BiCGStab_DIC_Serial/base
nProcs : 1
sigFpe : Enabling floating point exception trapping (FOAM_SIGFPE).
fileModificationChecking : Monitoring run-time modified files using timeStampMaster (fileModificationSkew 10)
allowSystemOperations : Allowing user-supplied system call operations

// * * * * * * * * * * * * * * * * * * * * * * * * * * * * * * * * * * * * * //
Create time

Create mesh for time = 0

Reading transportProperties

Reading field p

Reading field U

Reading/calculating face flux field phi


Starting time loop

Time = 0.001

Courant Number mean: 0 max: 0
nonePBiCGStab:  Solving for Ux, Initial residual = 1, Final residual = 0.0756268, No Iterations 5
nonePBiCGStab:  Solving for Uy, Initial residual = 0, Final residual = 0, No Iterations 0
nonePBiCGStab:  Solving for Uz, Initial residual = 0, Final residual = 0, No Iterations 0
linear solve U 187
DICPBiCGStab:  Solving for p, Initial residual = 1, Final residual = 9.32478e-05, No Iterations 168
linear solve p 5929
time step continuity errors : sum local = 4.93799e-08, global = -1.05374e-20, cumulative = -1.05374e-20
DICPBiCGStab:  Solving for p, Initial residual = 0.701261, Final residual = 8.23307e-05, No Iterations 167
linear solve p 5857
time step continuity errors : sum local = 5.15497e-08, global = -5.1045e-21, cumulative = -1.56418e-20
ExecutionTime = 15 s  ClockTime = 15 s

Time = 0.002

Courant Number mean: 0.0401001 max: 0.699776
nonePBiCGStab:  Solving for Ux, Initial residual = 0.140561, Final residual = 0.0353884, No Iterations 5
nonePBiCGStab:  Solving for Uy, Initial residual = 0.428279, Final residual = 0.104316, No Iterations 5
nonePBiCGStab:  Solving for Uz, Initial residual = 0.984808, Final residual = 0.278585, No Iterations 5
linear solve U 394
DICPBiCGStab:  Solving for p, Initial residual = 0.764448, Final residual = 8.35008e-05, No Iterations 71
linear solve p 2500
time step continuity errors : sum local = 9.01074e-08, global = 8.10476e-21, cumulative = -7.53709e-21
DICPBiCGStab:  Solving for p, Initial residual = 0.687361, Final residual = 8.51857e-05, No Iterations 71
linear solve p 2505
time step continuity errors : sum local = 8.83769e-08, global = 1.38409e-20, cumulative = 6.30383e-21
ExecutionTime = 20.78 s  ClockTime = 21 s

Time = 0.003

Courant Number mean: 0.0633457 max: 0.801269
nonePBiCGStab:  Solving for Ux, Initial residual = 0.0593371, Final residual = 0.0123043, No Iterations 5
nonePBiCGStab:  Solving for Uy, Initial residual = 0.182686, Final residual = 0.0479746, No Iterations 5
nonePBiCGStab:  Solving for Uz, Initial residual = 0.667265, Final residual = 0.179813, No Iterations 5
linear solve U 421
DICPBiCGStab:  Solving for p, Initial residual = 0.755744, Final residual = 9.96057e-05, No Iterations 76
linear solve p 2694
time step continuity errors : sum local = 1.08239e-07, global = -5.40045e-21, cumulative = 9.0338e-22
DICPBiCGStab:  Solving for p, Initial residual = 0.685096, Final residual = 6.78755e-05, No Iterations 77
linear solve p 2724
time step continuity errors : sum local = 5.31323e-08, global = 1.60258e-20, cumulative = 1.69292e-20
ExecutionTime = 27.04 s  ClockTime = 27 s

Time = 0.004

Courant Number mean: 0.076244 max: 0.81685
nonePBiCGStab:  Solving for Ux, Initial residual = 0.0364506, Final residual = 0.00787821, No Iterations 5
nonePBiCGStab:  Solving for Uy, Initial residual = 0.127631, Final residual = 0.0355134, No Iterations 5
nonePBiCGStab:  Solving for Uz, Initial residual = 0.436331, Final residual = 0.105151, No Iterations 5
linear solve U 394
DICPBiCGStab:  Solving for p, Initial residual = 0.651945, Final residual = 9.94401e-05, No Iterations 79
linear solve p 2771
time step continuity errors : sum local = 1.36055e-07, global = -9.75571e-21, cumulative = 7.17349e-21
DICPBiCGStab:  Solving for p, Initial residual = 0.560297, Final residual = 9.8998e-05, No Iterations 69
linear solve p 2438
time step continuity errors : sum local = 9.29972e-08, global = 1.88466e-21, cumulative = 9.05815e-21
ExecutionTime = 33.05 s  ClockTime = 33 s

Time = 0.005

Courant Number mean: 0.0866549 max: 0.829073
nonePBiCGStab:  Solving for Ux, Initial residual = 0.0278648, Final residual = 0.00610927, No Iterations 5
nonePBiCGStab:  Solving for Uy, Initial residual = 0.0822039, Final residual = 0.025481, No Iterations 5
nonePBiCGStab:  Solving for Uz, Initial residual = 0.272604, Final residual = 0.0731459, No Iterations 5
linear solve U 419
DICPBiCGStab:  Solving for p, Initial residual = 0.683481, Final residual = 9.79357e-05, No Iterations 131
linear solve p 4594
time step continuity errors : sum local = 1.13357e-07, global = 1.07838e-20, cumulative = 1.98419e-20
DICPBiCGStab:  Solving for p, Initial residual = 0.603058, Final residual = 9.90276e-05, No Iterations 74
linear solve p 2612
time step continuity errors : sum local = 9.893e-08, global = 2.17729e-22, cumulative = 2.00596e-20
ExecutionTime = 41.08 s  ClockTime = 41 s

Time = 0.006

Courant Number mean: 0.0947404 max: 0.836012
nonePBiCGStab:  Solving for Ux, Initial residual = 0.0210679, Final residual = 0.00469954, No Iterations 5
nonePBiCGStab:  Solving for Uy, Initial residual = 0.0673353, Final residual = 0.0195667, No Iterations 5
nonePBiCGStab:  Solving for Uz, Initial residual = 0.254564, Final residual = 0.0765275, No Iterations 5
linear solve U 420
DICPBiCGStab:  Solving for p, Initial residual = 0.603235, Final residual = 7.29667e-05, No Iterations 156
linear solve p 5502
time step continuity errors : sum local = 7.49745e-08, global = -8.29483e-21, cumulative = 1.17648e-20
DICPBiCGStab:  Solving for p, Initial residual = 0.516096, Final residual = 8.98111e-05, No Iterations 154
linear solve p 5414
time step continuity errors : sum local = 6.6264e-08, global = -1.02559e-21, cumulative = 1.07392e-20
ExecutionTime = 52.82 s  ClockTime = 53 s

Time = 0.007

Courant Number mean: 0.101586 max: 0.84123
nonePBiCGStab:  Solving for Ux, Initial residual = 0.0180098, Final residual = 0.0038196, No Iterations 5
nonePBiCGStab:  Solving for Uy, Initial residual = 0.0512074, Final residual = 0.0154264, No Iterations 5
nonePBiCGStab:  Solving for Uz, Initial residual = 0.197421, Final residual = 0.0555688, No Iterations 5
linear solve U 413
DICPBiCGStab:  Solving for p, Initial residual = 0.636309, Final residual = 9.68374e-05, No Iterations 140
linear solve p 4913
time step continuity errors : sum local = 1.126e-07, global = 6.59361e-21, cumulative = 1.73328e-20
DICPBiCGStab:  Solving for p, Initial residual = 0.550849, Final residual = 9.23533e-05, No Iterations 136
linear solve p 4770
time step continuity errors : sum local = 9.96075e-08, global = -1.49753e-21, cumulative = 1.58353e-20
ExecutionTime = 63.32 s  ClockTime = 63 s

Time = 0.008

Courant Number mean: 0.107391 max: 0.84502
nonePBiCGStab:  Solving for Ux, Initial residual = 0.014777, Final residual = 0.00339411, No Iterations 5
nonePBiCGStab:  Solving for Uy, Initial residual = 0.0449479, Final residual = 0.011668, No Iterations 5
nonePBiCGStab:  Solving for Uz, Initial residual = 0.187604, Final residual = 0.0598825, No Iterations 5
linear solve U 413
DICPBiCGStab:  Solving for p, Initial residual = 0.575361, Final residual = 1.44051e-05, No Iterations 158
linear solve p 5571
time step continuity errors : sum local = 1.53328e-08, global = -4.60211e-21, cumulative = 1.12332e-20
DICPBiCGStab:  Solving for p, Initial residual = 0.490204, Final residual = 5.43184e-05, No Iterations 169
linear solve p 5930
time step continuity errors : sum local = 3.55663e-08, global = -1.36664e-21, cumulative = 9.86655e-21
ExecutionTime = 75.63 s  ClockTime = 76 s

Time = 0.009

Courant Number mean: 0.11249 max: 0.848073
nonePBiCGStab:  Solving for Ux, Initial residual = 0.0134156, Final residual = 0.00284199, No Iterations 5
nonePBiCGStab:  Solving for Uy, Initial residual = 0.0368054, Final residual = 0.0103253, No Iterations 5
nonePBiCGStab:  Solving for Uz, Initial residual = 0.136607, Final residual = 0.0367816, No Iterations 5
linear solve U 413
DICPBiCGStab:  Solving for p, Initial residual = 0.609837, Final residual = 3.8801e-05, No Iterations 137
linear solve p 4825
time step continuity errors : sum local = 3.8731e-08, global = -5.32275e-21, cumulative = 4.5438e-21
DICPBiCGStab:  Solving for p, Initial residual = 0.523736, Final residual = 8.6877e-05, No Iterations 139
linear solve p 4885
time step continuity errors : sum local = 1.01116e-07, global = 2.45838e-21, cumulative = 7.00219e-21
ExecutionTime = 86.14 s  ClockTime = 86 s

Time = 0.01

Courant Number mean: 0.116988 max: 0.850484
nonePBiCGStab:  Solving for Ux, Initial residual = 0.0114493, Final residual = 0.00232512, No Iterations 5
nonePBiCGStab:  Solving for Uy, Initial residual = 0.0333599, Final residual = 0.00818629, No Iterations 5
nonePBiCGStab:  Solving for Uz, Initial residual = 0.131577, Final residual = 0.0427326, No Iterations 5
linear solve U 418
DICPBiCGStab:  Solving for p, Initial residual = 0.556666, Final residual = 6.07728e-05, No Iterations 169
linear solve p 5940
time step continuity errors : sum local = 7.44422e-08, global = -8.81123e-21, cumulative = -1.80904e-21
DICPBiCGStab:  Solving for p, Initial residual = 0.474691, Final residual = 9.29828e-05, No Iterations 137
linear solve p 4813
time step continuity errors : sum local = 1.06191e-07, global = -4.81138e-21, cumulative = -6.62042e-21
ExecutionTime = 97.7 s  ClockTime = 98 s

End

