/*---------------------------------------------------------------------------*\
  =========                 |
  \\      /  F ield         | OpenFOAM: The Open Source CFD Toolbox
   \\    /   O peration     | Website:  https://openfoam.org
    \\  /    A nd           | Version:  8
     \\/     M anipulation  |
\*---------------------------------------------------------------------------*/
Build  : 8-40a5a48f630f
Exec   : icoFoam
Date   : Jul 28 2021
Time   : 02:06:56
Host   : "uc2n462.localdomain"
PID    : 3686744
I/O    : uncollated
Case   : /pfs/data5/home/kit/scc/nq7776/code/OBR/lidDrivenCavity3D/Variation_mesh/40/Variation_matrix_solver/BiCGStab_BJ_OMP/base
nProcs : 1
sigFpe : Enabling floating point exception trapping (FOAM_SIGFPE).
fileModificationChecking : Monitoring run-time modified files using timeStampMaster (fileModificationSkew 10)
allowSystemOperations : Allowing user-supplied system call operations

// * * * * * * * * * * * * * * * * * * * * * * * * * * * * * * * * * * * * * //
Create time

Create mesh for time = 0

Reading transportProperties

Reading field p

Reading field U

Reading/calculating face flux field phi


Starting time loop

Time = 0.001

Courant Number mean: 0 max: 0
nonePBiCGStab:  Solving for Ux, Initial residual = 1, Final residual = 0.0197517, No Iterations 5
nonePBiCGStab:  Solving for Uy, Initial residual = 0, Final residual = 0, No Iterations 0
nonePBiCGStab:  Solving for Uz, Initial residual = 0, Final residual = 0, No Iterations 0
linear solve U 14
[OGL LOG] init_host_sparsity_pattern : 18 ms
[OGL LOG] matrix not stored update host matrix
[OGL LOG] update_host_mtx : 9 ms
[OGL LOG] matrix is not yet sorted, compute sorting idxs
[OGL LOG] compute_sort : 489 ms
[OGL LOG] matrix is not yet sorted, sorting host matrix
[OGL LOG] sort_host_mtx_sparsity_pattern : 13 ms
[OGL LOG] sort_host_mtx : 8 ms
[OGL LOG] init_preconditioner : 3 ms
[OGL LOG] solve : 416 ms
BJompGKOBiCGStab:  Solving for p, Initial residual = 1, Final residual = 8.62669e-05, No Iterations 202
linear solve p 985
time step continuity errors : sum local = 7.60121e-07, global = -2.386e-20, cumulative = -2.386e-20
[OGL LOG] init_host_sparsity_pattern : 18 ms
[OGL LOG] matrix not stored update host matrix
[OGL LOG] update_host_mtx : 9 ms
[OGL LOG] matrix is not yet sorted, sorting host matrix
[OGL LOG] sort_host_mtx_sparsity_pattern : 13 ms
[OGL LOG] sort_host_mtx : 6 ms
[OGL LOG] init_preconditioner : 0 ms
[OGL LOG] solve : 434 ms
BJompGKOBiCGStab:  Solving for p, Initial residual = 0.598927, Final residual = 9.44023e-05, No Iterations 210
linear solve p 490
time step continuity errors : sum local = 3.8272e-06, global = 8.85487e-21, cumulative = -1.50052e-20
ExecutionTime = 18.34 s  ClockTime = 1 s

Time = 0.002

Courant Number mean: 0.0210271 max: 0.237019
nonePBiCGStab:  Solving for Ux, Initial residual = 0.177628, Final residual = 0.00671448, No Iterations 5
nonePBiCGStab:  Solving for Uy, Initial residual = 0.294162, Final residual = 0.00808836, No Iterations 5
nonePBiCGStab:  Solving for Uz, Initial residual = 0.923252, Final residual = 0.0356538, No Iterations 5
linear solve U 27
[OGL LOG] init_host_sparsity_pattern : 17 ms
[OGL LOG] matrix not stored update host matrix
[OGL LOG] update_host_mtx : 9 ms
[OGL LOG] matrix is not yet sorted, sorting host matrix
[OGL LOG] sort_host_mtx_sparsity_pattern : 13 ms
[OGL LOG] sort_host_mtx : 6 ms
[OGL LOG] init_preconditioner : 0 ms
[OGL LOG] solve : 237 ms
BJompGKOBiCGStab:  Solving for p, Initial residual = 0.45996, Final residual = 9.95081e-05, No Iterations 112
linear solve p 293
time step continuity errors : sum local = 1.48856e-07, global = -6.69763e-21, cumulative = -2.17028e-20
[OGL LOG] init_host_sparsity_pattern : 17 ms
[OGL LOG] matrix not stored update host matrix
[OGL LOG] update_host_mtx : 9 ms
[OGL LOG] matrix is not yet sorted, sorting host matrix
[OGL LOG] sort_host_mtx_sparsity_pattern : 13 ms
[OGL LOG] sort_host_mtx : 6 ms
[OGL LOG] init_preconditioner : 0 ms
[OGL LOG] solve : 177 ms
BJompGKOBiCGStab:  Solving for p, Initial residual = 0.361797, Final residual = 9.96067e-05, No Iterations 85
linear solve p 234
time step continuity errors : sum local = 1.43155e-07, global = -5.11143e-21, cumulative = -2.68142e-20
ExecutionTime = 27.04 s  ClockTime = 2 s

Time = 0.003

Courant Number mean: 0.0320998 max: 0.305894
nonePBiCGStab:  Solving for Ux, Initial residual = 0.065665, Final residual = 0.00126963, No Iterations 5
nonePBiCGStab:  Solving for Uy, Initial residual = 0.107912, Final residual = 0.00171266, No Iterations 5
nonePBiCGStab:  Solving for Uz, Initial residual = 0.174088, Final residual = 0.00692319, No Iterations 5
linear solve U 28
[OGL LOG] init_host_sparsity_pattern : 17 ms
[OGL LOG] matrix not stored update host matrix
[OGL LOG] update_host_mtx : 9 ms
[OGL LOG] matrix is not yet sorted, sorting host matrix
[OGL LOG] sort_host_mtx_sparsity_pattern : 13 ms
[OGL LOG] sort_host_mtx : 6 ms
[OGL LOG] init_preconditioner : 0 ms
[OGL LOG] solve : 375 ms
BJompGKOBiCGStab:  Solving for p, Initial residual = 0.164592, Final residual = 7.30528e-05, No Iterations 180
linear solve p 430
time step continuity errors : sum local = 8.04658e-07, global = 1.23002e-20, cumulative = -1.4514e-20
[OGL LOG] init_host_sparsity_pattern : 17 ms
[OGL LOG] matrix not stored update host matrix
[OGL LOG] update_host_mtx : 9 ms
[OGL LOG] matrix is not yet sorted, sorting host matrix
[OGL LOG] sort_host_mtx_sparsity_pattern : 13 ms
[OGL LOG] sort_host_mtx : 6 ms
[OGL LOG] init_preconditioner : 0 ms
[OGL LOG] solve : 378 ms
BJompGKOBiCGStab:  Solving for p, Initial residual = 0.12974, Final residual = 9.92165e-05, No Iterations 179
linear solve p 433
time step continuity errors : sum local = 1.1078e-06, global = -3.48025e-20, cumulative = -4.93166e-20
ExecutionTime = 42.5 s  ClockTime = 3 s

Time = 0.004

Courant Number mean: 0.0386739 max: 0.327551
nonePBiCGStab:  Solving for Ux, Initial residual = 0.0386541, Final residual = 0.000684102, No Iterations 5
nonePBiCGStab:  Solving for Uy, Initial residual = 0.0674725, Final residual = 0.000903006, No Iterations 5
nonePBiCGStab:  Solving for Uz, Initial residual = 0.133271, Final residual = 0.00441946, No Iterations 5
linear solve U 28
[OGL LOG] init_host_sparsity_pattern : 17 ms
[OGL LOG] matrix not stored update host matrix
[OGL LOG] update_host_mtx : 9 ms
[OGL LOG] matrix is not yet sorted, sorting host matrix
[OGL LOG] sort_host_mtx_sparsity_pattern : 13 ms
[OGL LOG] sort_host_mtx : 6 ms
[OGL LOG] init_preconditioner : 0 ms
[OGL LOG] solve : 379 ms
BJompGKOBiCGStab:  Solving for p, Initial residual = 0.0869794, Final residual = 8.33322e-05, No Iterations 179
linear solve p 435
time step continuity errors : sum local = 9.33594e-06, global = -1.79992e-21, cumulative = -5.11165e-20
[OGL LOG] init_host_sparsity_pattern : 18 ms
[OGL LOG] matrix not stored update host matrix
[OGL LOG] update_host_mtx : 9 ms
[OGL LOG] matrix is not yet sorted, sorting host matrix
[OGL LOG] sort_host_mtx_sparsity_pattern : 13 ms
[OGL LOG] sort_host_mtx : 6 ms
[OGL LOG] init_preconditioner : 0 ms
[OGL LOG] solve : 349 ms
BJompGKOBiCGStab:  Solving for p, Initial residual = 0.079311, Final residual = 8.27439e-05, No Iterations 170
linear solve p 404
time step continuity errors : sum local = 1.95553e-07, global = 6.93868e-21, cumulative = -4.41778e-20
ExecutionTime = 57.41 s  ClockTime = 4 s

Time = 0.005

Courant Number mean: 0.0434775 max: 0.337857
nonePBiCGStab:  Solving for Ux, Initial residual = 0.0269493, Final residual = 0.000572603, No Iterations 5
nonePBiCGStab:  Solving for Uy, Initial residual = 0.0472702, Final residual = 0.00090891, No Iterations 5
nonePBiCGStab:  Solving for Uz, Initial residual = 0.110165, Final residual = 0.00474469, No Iterations 5
linear solve U 27
[OGL LOG] init_host_sparsity_pattern : 17 ms
[OGL LOG] matrix not stored update host matrix
[OGL LOG] update_host_mtx : 9 ms
[OGL LOG] matrix is not yet sorted, sorting host matrix
[OGL LOG] sort_host_mtx_sparsity_pattern : 13 ms
[OGL LOG] sort_host_mtx : 6 ms
[OGL LOG] init_preconditioner : 0 ms
[OGL LOG] solve : 342 ms
BJompGKOBiCGStab:  Solving for p, Initial residual = 0.0477988, Final residual = 9.39582e-05, No Iterations 171
linear solve p 398
time step continuity errors : sum local = 7.19558e-08, global = -1.47247e-20, cumulative = -5.89025e-20
[OGL LOG] init_host_sparsity_pattern : 18 ms
[OGL LOG] matrix not stored update host matrix
[OGL LOG] update_host_mtx : 9 ms
[OGL LOG] matrix is not yet sorted, sorting host matrix
[OGL LOG] sort_host_mtx_sparsity_pattern : 13 ms
[OGL LOG] sort_host_mtx : 6 ms
[OGL LOG] init_preconditioner : 0 ms
[OGL LOG] solve : 273 ms
BJompGKOBiCGStab:  Solving for p, Initial residual = 0.037161, Final residual = 9.13628e-05, No Iterations 135
linear solve p 329
time step continuity errors : sum local = 1.77622e-07, global = 2.29424e-21, cumulative = -5.66083e-20
ExecutionTime = 70.1 s  ClockTime = 5 s

Time = 0.006

Courant Number mean: 0.0471915 max: 0.344008
nonePBiCGStab:  Solving for Ux, Initial residual = 0.02058, Final residual = 0.000221244, No Iterations 5
nonePBiCGStab:  Solving for Uy, Initial residual = 0.0356097, Final residual = 0.000269373, No Iterations 5
nonePBiCGStab:  Solving for Uz, Initial residual = 0.0743185, Final residual = 0.00180115, No Iterations 5
linear solve U 28
[OGL LOG] init_host_sparsity_pattern : 17 ms
[OGL LOG] matrix not stored update host matrix
[OGL LOG] update_host_mtx : 9 ms
[OGL LOG] matrix is not yet sorted, sorting host matrix
[OGL LOG] sort_host_mtx_sparsity_pattern : 13 ms
[OGL LOG] sort_host_mtx : 6 ms
[OGL LOG] init_preconditioner : 0 ms
[OGL LOG] solve : 333 ms
BJompGKOBiCGStab:  Solving for p, Initial residual = 0.0316058, Final residual = 9.6478e-05, No Iterations 163
linear solve p 388
time step continuity errors : sum local = 8.20686e-08, global = -1.85998e-20, cumulative = -7.5208e-20
[OGL LOG] init_host_sparsity_pattern : 18 ms
[OGL LOG] matrix not stored update host matrix
[OGL LOG] update_host_mtx : 9 ms
[OGL LOG] matrix is not yet sorted, sorting host matrix
[OGL LOG] sort_host_mtx_sparsity_pattern : 13 ms
[OGL LOG] sort_host_mtx : 6 ms
[OGL LOG] init_preconditioner : 0 ms
[OGL LOG] solve : 246 ms
BJompGKOBiCGStab:  Solving for p, Initial residual = 0.0255901, Final residual = 9.79488e-05, No Iterations 119
linear solve p 302
time step continuity errors : sum local = 1.38292e-07, global = 7.14102e-21, cumulative = -6.8067e-20
ExecutionTime = 82.07 s  ClockTime = 5 s

Time = 0.007

Courant Number mean: 0.0502216 max: 0.348247
nonePBiCGStab:  Solving for Ux, Initial residual = 0.0162388, Final residual = 0.000164117, No Iterations 5
nonePBiCGStab:  Solving for Uy, Initial residual = 0.0287415, Final residual = 0.000275305, No Iterations 5
nonePBiCGStab:  Solving for Uz, Initial residual = 0.0623784, Final residual = 0.00180187, No Iterations 5
linear solve U 27
[OGL LOG] init_host_sparsity_pattern : 17 ms
[OGL LOG] matrix not stored update host matrix
[OGL LOG] update_host_mtx : 9 ms
[OGL LOG] matrix is not yet sorted, sorting host matrix
[OGL LOG] sort_host_mtx_sparsity_pattern : 13 ms
[OGL LOG] sort_host_mtx : 6 ms
[OGL LOG] init_preconditioner : 0 ms
[OGL LOG] solve : 346 ms
BJompGKOBiCGStab:  Solving for p, Initial residual = 0.0240831, Final residual = 9.94696e-05, No Iterations 167
linear solve p 400
time step continuity errors : sum local = 1.03822e-07, global = -9.9468e-21, cumulative = -7.80138e-20
[OGL LOG] init_host_sparsity_pattern : 18 ms
[OGL LOG] matrix not stored update host matrix
[OGL LOG] update_host_mtx : 9 ms
[OGL LOG] matrix is not yet sorted, sorting host matrix
[OGL LOG] sort_host_mtx_sparsity_pattern : 12 ms
[OGL LOG] sort_host_mtx : 6 ms
[OGL LOG] init_preconditioner : 0 ms
[OGL LOG] solve : 278 ms
BJompGKOBiCGStab:  Solving for p, Initial residual = 0.0200259, Final residual = 9.51115e-05, No Iterations 135
linear solve p 334
time step continuity errors : sum local = 3.22985e-07, global = 2.57332e-21, cumulative = -7.54405e-20
ExecutionTime = 94.95 s  ClockTime = 6 s

Time = 0.008

Courant Number mean: 0.0527915 max: 0.351361
nonePBiCGStab:  Solving for Ux, Initial residual = 0.0134715, Final residual = 0.000126238, No Iterations 5
nonePBiCGStab:  Solving for Uy, Initial residual = 0.0235197, Final residual = 0.000193106, No Iterations 5
nonePBiCGStab:  Solving for Uz, Initial residual = 0.0510176, Final residual = 0.00139599, No Iterations 5
linear solve U 27
[OGL LOG] init_host_sparsity_pattern : 17 ms
[OGL LOG] matrix not stored update host matrix
[OGL LOG] update_host_mtx : 9 ms
[OGL LOG] matrix is not yet sorted, sorting host matrix
[OGL LOG] sort_host_mtx_sparsity_pattern : 12 ms
[OGL LOG] sort_host_mtx : 6 ms
[OGL LOG] init_preconditioner : 0 ms
[OGL LOG] solve : 347 ms
BJompGKOBiCGStab:  Solving for p, Initial residual = 0.0194547, Final residual = 8.93264e-05, No Iterations 168
linear solve p 402
time step continuity errors : sum local = 9.92457e-08, global = 5.81998e-21, cumulative = -6.96205e-20
[OGL LOG] init_host_sparsity_pattern : 18 ms
[OGL LOG] matrix not stored update host matrix
[OGL LOG] update_host_mtx : 9 ms
[OGL LOG] matrix is not yet sorted, sorting host matrix
[OGL LOG] sort_host_mtx_sparsity_pattern : 12 ms
[OGL LOG] sort_host_mtx : 6 ms
[OGL LOG] init_preconditioner : 0 ms
[OGL LOG] solve : 329 ms
BJompGKOBiCGStab:  Solving for p, Initial residual = 0.0163237, Final residual = 9.66261e-05, No Iterations 160
linear solve p 384
time step continuity errors : sum local = 6.94099e-08, global = -6.21567e-21, cumulative = -7.58362e-20
ExecutionTime = 108.85 s  ClockTime = 7 s

Time = 0.009

Courant Number mean: 0.0549771 max: 0.353772
nonePBiCGStab:  Solving for Ux, Initial residual = 0.0112278, Final residual = 6.76107e-05, No Iterations 5
nonePBiCGStab:  Solving for Uy, Initial residual = 0.0199651, Final residual = 0.000112494, No Iterations 5
nonePBiCGStab:  Solving for Uz, Initial residual = 0.0420582, Final residual = 0.000845337, No Iterations 5
linear solve U 28
[OGL LOG] init_host_sparsity_pattern : 17 ms
[OGL LOG] matrix not stored update host matrix
[OGL LOG] update_host_mtx : 9 ms
[OGL LOG] matrix is not yet sorted, sorting host matrix
[OGL LOG] sort_host_mtx_sparsity_pattern : 13 ms
[OGL LOG] sort_host_mtx : 6 ms
[OGL LOG] init_preconditioner : 0 ms
[OGL LOG] solve : 141 ms
BJompGKOBiCGStab:  Solving for p, Initial residual = 0.0157901, Final residual = 9.8034e-05, No Iterations 68
linear solve p 196
time step continuity errors : sum local = 1.05998e-07, global = -1.47985e-20, cumulative = -9.06347e-20
[OGL LOG] init_host_sparsity_pattern : 18 ms
[OGL LOG] matrix not stored update host matrix
[OGL LOG] update_host_mtx : 9 ms
[OGL LOG] matrix is not yet sorted, sorting host matrix
[OGL LOG] sort_host_mtx_sparsity_pattern : 13 ms
[OGL LOG] sort_host_mtx : 6 ms
[OGL LOG] init_preconditioner : 0 ms
[OGL LOG] solve : 127 ms
BJompGKOBiCGStab:  Solving for p, Initial residual = 0.0132392, Final residual = 8.16599e-05, No Iterations 61
linear solve p 183
time step continuity errors : sum local = 1.35335e-07, global = -2.38127e-20, cumulative = -1.14447e-19
ExecutionTime = 114.61 s  ClockTime = 7 s

Time = 0.01

Courant Number mean: 0.0568589 max: 0.355706
nonePBiCGStab:  Solving for Ux, Initial residual = 0.00952439, Final residual = 6.20305e-05, No Iterations 5
nonePBiCGStab:  Solving for Uy, Initial residual = 0.0171809, Final residual = 6.52386e-05, No Iterations 5
nonePBiCGStab:  Solving for Uz, Initial residual = 0.0345565, Final residual = 0.000362933, No Iterations 5
linear solve U 27
[OGL LOG] init_host_sparsity_pattern : 17 ms
[OGL LOG] matrix not stored update host matrix
[OGL LOG] update_host_mtx : 9 ms
[OGL LOG] matrix is not yet sorted, sorting host matrix
[OGL LOG] sort_host_mtx_sparsity_pattern : 13 ms
[OGL LOG] sort_host_mtx : 6 ms
[OGL LOG] init_preconditioner : 0 ms
[OGL LOG] solve : 133 ms
BJompGKOBiCGStab:  Solving for p, Initial residual = 0.0139181, Final residual = 6.07713e-05, No Iterations 64
linear solve p 188
time step continuity errors : sum local = 7.7385e-08, global = 1.15796e-20, cumulative = -1.02868e-19
[OGL LOG] init_host_sparsity_pattern : 18 ms
[OGL LOG] matrix not stored update host matrix
[OGL LOG] update_host_mtx : 9 ms
[OGL LOG] matrix is not yet sorted, sorting host matrix
[OGL LOG] sort_host_mtx_sparsity_pattern : 13 ms
[OGL LOG] sort_host_mtx : 6 ms
[OGL LOG] init_preconditioner : 0 ms
[OGL LOG] solve : 124 ms
BJompGKOBiCGStab:  Solving for p, Initial residual = 0.0117961, Final residual = 9.88209e-05, No Iterations 60
linear solve p 179
time step continuity errors : sum local = 8.18656e-08, global = -1.80421e-21, cumulative = -1.04672e-19
ExecutionTime = 120.15 s  ClockTime = 8 s

End

