/*---------------------------------------------------------------------------*\
  =========                 |
  \\      /  F ield         | OpenFOAM: The Open Source CFD Toolbox
   \\    /   O peration     | Website:  https://openfoam.org
    \\  /    A nd           | Version:  8
     \\/     M anipulation  |
\*---------------------------------------------------------------------------*/
Build  : 8-40a5a48f630f
Exec   : icoFoam
Date   : Jul 27 2021
Time   : 21:44:57
Host   : "uc2n481.localdomain"
PID    : 101111
I/O    : uncollated
Case   : /pfs/data5/home/kit/scc/nq7776/code/OBR/lidDrivenCavity3D/Variation_mesh/90/Variation_matrix_solver/CG_NoPrecond_CUDA/base
nProcs : 1
sigFpe : Enabling floating point exception trapping (FOAM_SIGFPE).
fileModificationChecking : Monitoring run-time modified files using timeStampMaster (fileModificationSkew 10)
allowSystemOperations : Allowing user-supplied system call operations

// * * * * * * * * * * * * * * * * * * * * * * * * * * * * * * * * * * * * * //
Create time

Create mesh for time = 0

Reading transportProperties

Reading field p

Reading field U

Reading/calculating face flux field phi


Starting time loop

Time = 0.001

Courant Number mean: 0 max: 0
nonePBiCGStab:  Solving for Ux, Initial residual = 1, Final residual = 0.0756268, No Iterations 5
nonePBiCGStab:  Solving for Uy, Initial residual = 0, Final residual = 0, No Iterations 0
nonePBiCGStab:  Solving for Uz, Initial residual = 0, Final residual = 0, No Iterations 0
linear solve U 201
[OGL LOG] init_host_sparsity_pattern : 210 ms
[OGL LOG] matrix not stored update host matrix
[OGL LOG] update_host_mtx : 109 ms
[OGL LOG] matrix is not yet sorted, compute sorting idxs
[OGL LOG] compute_sort : 6684 ms
[OGL LOG] matrix is not yet sorted, sorting host matrix
[OGL LOG] sort_host_mtx_sparsity_pattern : 149 ms
[OGL LOG] sort_host_mtx : 87 ms
[OGL LOG] init_preconditioner : 0 ms
[OGL LOG] solve : 653 ms
nonecudaGKOCG:  Solving for p, Initial residual = 1, Final residual = 9.85972e-05, No Iterations 713
linear solve p 8725
time step continuity errors : sum local = 4.00098e-08, global = -7.08105e-21, cumulative = -7.08105e-21
[OGL LOG] init_host_sparsity_pattern : 206 ms
[OGL LOG] matrix not stored update host matrix
[OGL LOG] update_host_mtx : 108 ms
[OGL LOG] matrix is not yet sorted, sorting host matrix
[OGL LOG] sort_host_mtx_sparsity_pattern : 157 ms
[OGL LOG] sort_host_mtx : 76 ms
[OGL LOG] init_preconditioner : 0 ms
[OGL LOG] solve : 646 ms
nonecudaGKOCG:  Solving for p, Initial residual = 0.70133, Final residual = 9.4435e-05, No Iterations 703
linear solve p 1238
time step continuity errors : sum local = 5.33195e-08, global = 7.77485e-21, cumulative = 6.93798e-22
ExecutionTime = 13.29 s  ClockTime = 14 s

Time = 0.002

Courant Number mean: 0.0400999 max: 0.699775
nonePBiCGStab:  Solving for Ux, Initial residual = 0.140592, Final residual = 0.035411, No Iterations 5
nonePBiCGStab:  Solving for Uy, Initial residual = 0.428237, Final residual = 0.104275, No Iterations 5
nonePBiCGStab:  Solving for Uz, Initial residual = 0.986093, Final residual = 0.278905, No Iterations 5
linear solve U 402
[OGL LOG] init_host_sparsity_pattern : 199 ms
[OGL LOG] matrix not stored update host matrix
[OGL LOG] update_host_mtx : 109 ms
[OGL LOG] matrix is not yet sorted, sorting host matrix
[OGL LOG] sort_host_mtx_sparsity_pattern : 152 ms
[OGL LOG] sort_host_mtx : 76 ms
[OGL LOG] init_preconditioner : 0 ms
[OGL LOG] solve : 637 ms
nonecudaGKOCG:  Solving for p, Initial residual = 0.76436, Final residual = 9.31561e-05, No Iterations 696
linear solve p 1220
time step continuity errors : sum local = 8.43113e-08, global = -1.69508e-21, cumulative = -1.00128e-21
[OGL LOG] init_host_sparsity_pattern : 203 ms
[OGL LOG] matrix not stored update host matrix
[OGL LOG] update_host_mtx : 109 ms
[OGL LOG] matrix is not yet sorted, sorting host matrix
[OGL LOG] sort_host_mtx_sparsity_pattern : 152 ms
[OGL LOG] sort_host_mtx : 75 ms
[OGL LOG] init_preconditioner : 0 ms
[OGL LOG] solve : 649 ms
nonecudaGKOCG:  Solving for p, Initial residual = 0.687252, Final residual = 9.37351e-05, No Iterations 694
linear solve p 1234
time step continuity errors : sum local = 8.64529e-08, global = 1.48493e-20, cumulative = 1.38481e-20
ExecutionTime = 16.63 s  ClockTime = 17 s

Time = 0.003

Courant Number mean: 0.0633456 max: 0.801261
nonePBiCGStab:  Solving for Ux, Initial residual = 0.0595875, Final residual = 0.012395, No Iterations 5
nonePBiCGStab:  Solving for Uy, Initial residual = 0.182409, Final residual = 0.0478835, No Iterations 5
nonePBiCGStab:  Solving for Uz, Initial residual = 0.662358, Final residual = 0.173353, No Iterations 5
linear solve U 400
[OGL LOG] init_host_sparsity_pattern : 199 ms
[OGL LOG] matrix not stored update host matrix
[OGL LOG] update_host_mtx : 111 ms
[OGL LOG] matrix is not yet sorted, sorting host matrix
[OGL LOG] sort_host_mtx_sparsity_pattern : 153 ms
[OGL LOG] sort_host_mtx : 76 ms
[OGL LOG] init_preconditioner : 0 ms
[OGL LOG] solve : 647 ms
nonecudaGKOCG:  Solving for p, Initial residual = 0.756359, Final residual = 9.74291e-05, No Iterations 692
linear solve p 1232
time step continuity errors : sum local = 6.67845e-08, global = -5.36033e-21, cumulative = 8.48774e-21
[OGL LOG] init_host_sparsity_pattern : 204 ms
[OGL LOG] matrix not stored update host matrix
[OGL LOG] update_host_mtx : 109 ms
[OGL LOG] matrix is not yet sorted, sorting host matrix
[OGL LOG] sort_host_mtx_sparsity_pattern : 151 ms
[OGL LOG] sort_host_mtx : 75 ms
[OGL LOG] init_preconditioner : 0 ms
[OGL LOG] solve : 647 ms
nonecudaGKOCG:  Solving for p, Initial residual = 0.685819, Final residual = 9.41218e-05, No Iterations 691
linear solve p 1232
time step continuity errors : sum local = 6.28355e-08, global = 6.72229e-21, cumulative = 1.521e-20
ExecutionTime = 19.96 s  ClockTime = 20 s

Time = 0.004

Courant Number mean: 0.0762496 max: 0.816886
nonePBiCGStab:  Solving for Ux, Initial residual = 0.0365828, Final residual = 0.00791763, No Iterations 5
nonePBiCGStab:  Solving for Uy, Initial residual = 0.127753, Final residual = 0.035533, No Iterations 5
nonePBiCGStab:  Solving for Uz, Initial residual = 0.422654, Final residual = 0.0988678, No Iterations 5
linear solve U 402
[OGL LOG] init_host_sparsity_pattern : 201 ms
[OGL LOG] matrix not stored update host matrix
[OGL LOG] update_host_mtx : 112 ms
[OGL LOG] matrix is not yet sorted, sorting host matrix
[OGL LOG] sort_host_mtx_sparsity_pattern : 156 ms
[OGL LOG] sort_host_mtx : 76 ms
[OGL LOG] init_preconditioner : 0 ms
[OGL LOG] solve : 314 ms
nonecudaGKOCG:  Solving for p, Initial residual = 0.651376, Final residual = 9.91104e-05, No Iterations 332
linear solve p 904
time step continuity errors : sum local = 6.79246e-08, global = -4.92534e-21, cumulative = 1.02847e-20
[OGL LOG] init_host_sparsity_pattern : 204 ms
[OGL LOG] matrix not stored update host matrix
[OGL LOG] update_host_mtx : 109 ms
[OGL LOG] matrix is not yet sorted, sorting host matrix
[OGL LOG] sort_host_mtx_sparsity_pattern : 151 ms
[OGL LOG] sort_host_mtx : 75 ms
[OGL LOG] init_preconditioner : 0 ms
[OGL LOG] solve : 310 ms
nonecudaGKOCG:  Solving for p, Initial residual = 0.559815, Final residual = 9.46572e-05, No Iterations 331
linear solve p 894
time step continuity errors : sum local = 6.62254e-08, global = 1.26685e-20, cumulative = 2.29532e-20
ExecutionTime = 22.6 s  ClockTime = 23 s

Time = 0.005

Courant Number mean: 0.0866634 max: 0.829152
nonePBiCGStab:  Solving for Ux, Initial residual = 0.0275159, Final residual = 0.00602834, No Iterations 5
nonePBiCGStab:  Solving for Uy, Initial residual = 0.0822634, Final residual = 0.0255441, No Iterations 5
nonePBiCGStab:  Solving for Uz, Initial residual = 0.238996, Final residual = 0.0600131, No Iterations 5
linear solve U 407
[OGL LOG] init_host_sparsity_pattern : 201 ms
[OGL LOG] matrix not stored update host matrix
[OGL LOG] update_host_mtx : 110 ms
[OGL LOG] matrix is not yet sorted, sorting host matrix
[OGL LOG] sort_host_mtx_sparsity_pattern : 152 ms
[OGL LOG] sort_host_mtx : 76 ms
[OGL LOG] init_preconditioner : 0 ms
[OGL LOG] solve : 636 ms
nonecudaGKOCG:  Solving for p, Initial residual = 0.682038, Final residual = 9.85708e-05, No Iterations 681
linear solve p 1219
time step continuity errors : sum local = 5.94744e-08, global = -2.15965e-21, cumulative = 2.07935e-20
[OGL LOG] init_host_sparsity_pattern : 204 ms
[OGL LOG] matrix not stored update host matrix
[OGL LOG] update_host_mtx : 111 ms
[OGL LOG] matrix is not yet sorted, sorting host matrix
[OGL LOG] sort_host_mtx_sparsity_pattern : 151 ms
[OGL LOG] sort_host_mtx : 75 ms
[OGL LOG] init_preconditioner : 0 ms
[OGL LOG] solve : 633 ms
nonecudaGKOCG:  Solving for p, Initial residual = 0.601771, Final residual = 9.89937e-05, No Iterations 676
linear solve p 1224
time step continuity errors : sum local = 5.89679e-08, global = 1.06132e-20, cumulative = 3.14067e-20
ExecutionTime = 25.91 s  ClockTime = 26 s

Time = 0.006

Courant Number mean: 0.0947362 max: 0.835985
nonePBiCGStab:  Solving for Ux, Initial residual = 0.0211433, Final residual = 0.00473485, No Iterations 5
nonePBiCGStab:  Solving for Uy, Initial residual = 0.0655173, Final residual = 0.0190449, No Iterations 5
nonePBiCGStab:  Solving for Uz, Initial residual = 0.185868, Final residual = 0.0500652, No Iterations 5
linear solve U 404
[OGL LOG] init_host_sparsity_pattern : 202 ms
[OGL LOG] matrix not stored update host matrix
[OGL LOG] update_host_mtx : 110 ms
[OGL LOG] matrix is not yet sorted, sorting host matrix
[OGL LOG] sort_host_mtx_sparsity_pattern : 157 ms
[OGL LOG] sort_host_mtx : 75 ms
[OGL LOG] init_preconditioner : 0 ms
[OGL LOG] solve : 301 ms
nonecudaGKOCG:  Solving for p, Initial residual = 0.601061, Final residual = 9.97719e-05, No Iterations 323
linear solve p 893
time step continuity errors : sum local = 6.47218e-08, global = -3.26529e-21, cumulative = 2.81414e-20
[OGL LOG] init_host_sparsity_pattern : 208 ms
[OGL LOG] matrix not stored update host matrix
[OGL LOG] update_host_mtx : 110 ms
[OGL LOG] matrix is not yet sorted, sorting host matrix
[OGL LOG] sort_host_mtx_sparsity_pattern : 151 ms
[OGL LOG] sort_host_mtx : 76 ms
[OGL LOG] init_preconditioner : 0 ms
[OGL LOG] solve : 297 ms
nonecudaGKOCG:  Solving for p, Initial residual = 0.514744, Final residual = 9.8367e-05, No Iterations 314
linear solve p 886
time step continuity errors : sum local = 6.3517e-08, global = -1.1885e-21, cumulative = 2.69529e-20
ExecutionTime = 28.55 s  ClockTime = 29 s

Time = 0.007

Courant Number mean: 0.101594 max: 0.841235
nonePBiCGStab:  Solving for Ux, Initial residual = 0.0176977, Final residual = 0.0037675, No Iterations 5
nonePBiCGStab:  Solving for Uy, Initial residual = 0.0504058, Final residual = 0.0154479, No Iterations 5
nonePBiCGStab:  Solving for Uz, Initial residual = 0.137441, Final residual = 0.0373801, No Iterations 5
linear solve U 410
[OGL LOG] init_host_sparsity_pattern : 199 ms
[OGL LOG] matrix not stored update host matrix
[OGL LOG] update_host_mtx : 110 ms
[OGL LOG] matrix is not yet sorted, sorting host matrix
[OGL LOG] sort_host_mtx_sparsity_pattern : 157 ms
[OGL LOG] sort_host_mtx : 76 ms
[OGL LOG] init_preconditioner : 0 ms
[OGL LOG] solve : 293 ms
nonecudaGKOCG:  Solving for p, Initial residual = 0.634757, Final residual = 9.86549e-05, No Iterations 312
linear solve p 880
time step continuity errors : sum local = 6.15576e-08, global = -4.63307e-21, cumulative = 2.23198e-20
[OGL LOG] init_host_sparsity_pattern : 205 ms
[OGL LOG] matrix not stored update host matrix
[OGL LOG] update_host_mtx : 110 ms
[OGL LOG] matrix is not yet sorted, sorting host matrix
[OGL LOG] sort_host_mtx_sparsity_pattern : 153 ms
[OGL LOG] sort_host_mtx : 76 ms
[OGL LOG] init_preconditioner : 0 ms
[OGL LOG] solve : 294 ms
nonecudaGKOCG:  Solving for p, Initial residual = 0.549966, Final residual = 9.79222e-05, No Iterations 310
linear solve p 886
time step continuity errors : sum local = 5.7668e-08, global = 6.7011e-21, cumulative = 2.90209e-20
ExecutionTime = 31.17 s  ClockTime = 32 s

Time = 0.008

Courant Number mean: 0.107405 max: 0.845019
nonePBiCGStab:  Solving for Ux, Initial residual = 0.0147155, Final residual = 0.00327456, No Iterations 5
nonePBiCGStab:  Solving for Uy, Initial residual = 0.0431544, Final residual = 0.0108788, No Iterations 5
nonePBiCGStab:  Solving for Uz, Initial residual = 0.11832, Final residual = 0.0343646, No Iterations 5
linear solve U 401
[OGL LOG] init_host_sparsity_pattern : 201 ms
[OGL LOG] matrix not stored update host matrix
[OGL LOG] update_host_mtx : 110 ms
[OGL LOG] matrix is not yet sorted, sorting host matrix
[OGL LOG] sort_host_mtx_sparsity_pattern : 153 ms
[OGL LOG] sort_host_mtx : 76 ms
[OGL LOG] init_preconditioner : 0 ms
[OGL LOG] solve : 294 ms
nonecudaGKOCG:  Solving for p, Initial residual = 0.57144, Final residual = 9.94138e-05, No Iterations 313
linear solve p 878
time step continuity errors : sum local = 6.50275e-08, global = 5.26305e-21, cumulative = 3.4284e-20
[OGL LOG] init_host_sparsity_pattern : 205 ms
[OGL LOG] matrix not stored update host matrix
[OGL LOG] update_host_mtx : 110 ms
[OGL LOG] matrix is not yet sorted, sorting host matrix
[OGL LOG] sort_host_mtx_sparsity_pattern : 164 ms
[OGL LOG] sort_host_mtx : 76 ms
[OGL LOG] init_preconditioner : 0 ms
[OGL LOG] solve : 294 ms
nonecudaGKOCG:  Solving for p, Initial residual = 0.487674, Final residual = 9.97e-05, No Iterations 311
linear solve p 900
time step continuity errors : sum local = 6.24556e-08, global = -1.54722e-20, cumulative = 1.88118e-20
ExecutionTime = 33.8 s  ClockTime = 34 s

Time = 0.009

Courant Number mean: 0.112567 max: 0.848125
nonePBiCGStab:  Solving for Ux, Initial residual = 0.0130906, Final residual = 0.00252277, No Iterations 5
nonePBiCGStab:  Solving for Uy, Initial residual = 0.035707, Final residual = 0.00957562, No Iterations 5
nonePBiCGStab:  Solving for Uz, Initial residual = 0.0978892, Final residual = 0.0281037, No Iterations 5
linear solve U 404
[OGL LOG] init_host_sparsity_pattern : 202 ms
[OGL LOG] matrix not stored update host matrix
[OGL LOG] update_host_mtx : 111 ms
[OGL LOG] matrix is not yet sorted, sorting host matrix
[OGL LOG] sort_host_mtx_sparsity_pattern : 152 ms
[OGL LOG] sort_host_mtx : 75 ms
[OGL LOG] init_preconditioner : 0 ms
[OGL LOG] solve : 611 ms
nonecudaGKOCG:  Solving for p, Initial residual = 0.60287, Final residual = 9.99002e-05, No Iterations 651
linear solve p 1197
time step continuity errors : sum local = 5.72818e-08, global = 1.00843e-20, cumulative = 2.88961e-20
[OGL LOG] init_host_sparsity_pattern : 204 ms
[OGL LOG] matrix not stored update host matrix
[OGL LOG] update_host_mtx : 110 ms
[OGL LOG] matrix is not yet sorted, sorting host matrix
[OGL LOG] sort_host_mtx_sparsity_pattern : 150 ms
[OGL LOG] sort_host_mtx : 76 ms
[OGL LOG] init_preconditioner : 0 ms
[OGL LOG] solve : 310 ms
nonecudaGKOCG:  Solving for p, Initial residual = 0.518649, Final residual = 9.99494e-05, No Iterations 330
linear solve p 895
time step continuity errors : sum local = 6.83175e-08, global = -9.20914e-22, cumulative = 2.79752e-20
ExecutionTime = 36.75 s  ClockTime = 37 s

Time = 0.01

Courant Number mean: 0.117168 max: 0.850575
nonePBiCGStab:  Solving for Ux, Initial residual = 0.0112443, Final residual = 0.00208245, No Iterations 5
nonePBiCGStab:  Solving for Uy, Initial residual = 0.0319795, Final residual = 0.00704331, No Iterations 5
nonePBiCGStab:  Solving for Uz, Initial residual = 0.0916434, Final residual = 0.0275139, No Iterations 5
linear solve U 400
[OGL LOG] init_host_sparsity_pattern : 199 ms
[OGL LOG] matrix not stored update host matrix
[OGL LOG] update_host_mtx : 111 ms
[OGL LOG] matrix is not yet sorted, sorting host matrix
[OGL LOG] sort_host_mtx_sparsity_pattern : 154 ms
[OGL LOG] sort_host_mtx : 75 ms
[OGL LOG] init_preconditioner : 0 ms
[OGL LOG] solve : 609 ms
nonecudaGKOCG:  Solving for p, Initial residual = 0.546405, Final residual = 9.87454e-05, No Iterations 648
linear solve p 1195
time step continuity errors : sum local = 5.91193e-08, global = -5.80276e-21, cumulative = 2.21724e-20
[OGL LOG] init_host_sparsity_pattern : 204 ms
[OGL LOG] matrix not stored update host matrix
[OGL LOG] update_host_mtx : 110 ms
[OGL LOG] matrix is not yet sorted, sorting host matrix
[OGL LOG] sort_host_mtx_sparsity_pattern : 151 ms
[OGL LOG] sort_host_mtx : 75 ms
[OGL LOG] init_preconditioner : 0 ms
[OGL LOG] solve : 608 ms
nonecudaGKOCG:  Solving for p, Initial residual = 0.467081, Final residual = 9.03278e-05, No Iterations 648
linear solve p 1194
time step continuity errors : sum local = 5.41794e-08, global = 5.28632e-21, cumulative = 2.74587e-20
ExecutionTime = 40 s  ClockTime = 41 s

End

