/*---------------------------------------------------------------------------*\
  =========                 |
  \\      /  F ield         | OpenFOAM: The Open Source CFD Toolbox
   \\    /   O peration     | Website:  https://openfoam.org
    \\  /    A nd           | Version:  8
     \\/     M anipulation  |
\*---------------------------------------------------------------------------*/
Build  : 8-40a5a48f630f
Exec   : icoFoam
Date   : Jul 27 2021
Time   : 21:47:26
Host   : "uc2n481.localdomain"
PID    : 103304
I/O    : uncollated
Case   : /pfs/data5/home/kit/scc/nq7776/code/OBR/lidDrivenCavity3D/Variation_mesh/90/Variation_matrix_solver/IR_NoPrecond_CUDA/base
nProcs : 1
sigFpe : Enabling floating point exception trapping (FOAM_SIGFPE).
fileModificationChecking : Monitoring run-time modified files using timeStampMaster (fileModificationSkew 10)
allowSystemOperations : Allowing user-supplied system call operations

// * * * * * * * * * * * * * * * * * * * * * * * * * * * * * * * * * * * * * //
Create time

Create mesh for time = 0

Reading transportProperties

Reading field p

Reading field U

Reading/calculating face flux field phi


Starting time loop

Time = 0.001

Courant Number mean: 0 max: 0
nonePBiCGStab:  Solving for Ux, Initial residual = 1, Final residual = 0.0756268, No Iterations 5
nonePBiCGStab:  Solving for Uy, Initial residual = 0, Final residual = 0, No Iterations 0
nonePBiCGStab:  Solving for Uz, Initial residual = 0, Final residual = 0, No Iterations 0
linear solve U 202
[OGL LOG] init_host_sparsity_pattern : 214 ms
[OGL LOG] matrix not stored update host matrix
[OGL LOG] update_host_mtx : 109 ms
[OGL LOG] matrix is not yet sorted, compute sorting idxs
[OGL LOG] compute_sort : 6668 ms
[OGL LOG] matrix is not yet sorted, sorting host matrix
[OGL LOG] sort_host_mtx_sparsity_pattern : 148 ms
[OGL LOG] sort_host_mtx : 84 ms
[OGL LOG] init_preconditioner : 0 ms
[OGL LOG] solve : 338 ms
nonecudaGKOIR:  Solving for p, Initial residual = 1, Final residual = 1.71309e-05, No Iterations 3
linear solve p 8405
time step continuity errors : sum local = 6.97564e-09, global = -4.79156e-21, cumulative = -4.79156e-21
[OGL LOG] init_host_sparsity_pattern : 206 ms
[OGL LOG] matrix not stored update host matrix
[OGL LOG] update_host_mtx : 108 ms
[OGL LOG] matrix is not yet sorted, sorting host matrix
[OGL LOG] sort_host_mtx_sparsity_pattern : 159 ms
[OGL LOG] sort_host_mtx : 75 ms
[OGL LOG] init_preconditioner : 0 ms
[OGL LOG] solve : 347 ms
nonecudaGKOIR:  Solving for p, Initial residual = 0.701358, Final residual = 8.68708e-06, No Iterations 3
linear solve p 941
time step continuity errors : sum local = 4.92323e-09, global = -4.38607e-21, cumulative = -9.17762e-21
ExecutionTime = 12.68 s  ClockTime = 13 s

Time = 0.002

Courant Number mean: 0.0401 max: 0.699775
nonePBiCGStab:  Solving for Ux, Initial residual = 0.140592, Final residual = 0.0354109, No Iterations 5
nonePBiCGStab:  Solving for Uy, Initial residual = 0.42824, Final residual = 0.104276, No Iterations 5
nonePBiCGStab:  Solving for Uz, Initial residual = 0.986102, Final residual = 0.2789, No Iterations 5
linear solve U 408
[OGL LOG] init_host_sparsity_pattern : 211 ms
[OGL LOG] matrix not stored update host matrix
[OGL LOG] update_host_mtx : 109 ms
[OGL LOG] matrix is not yet sorted, sorting host matrix
[OGL LOG] sort_host_mtx_sparsity_pattern : 152 ms
[OGL LOG] sort_host_mtx : 76 ms
[OGL LOG] init_preconditioner : 0 ms
[OGL LOG] solve : 332 ms
nonecudaGKOIR:  Solving for p, Initial residual = 0.764366, Final residual = 4.15969e-06, No Iterations 3
linear solve p 928
time step continuity errors : sum local = 3.76645e-09, global = -6.99158e-21, cumulative = -1.61692e-20
[OGL LOG] init_host_sparsity_pattern : 214 ms
[OGL LOG] matrix not stored update host matrix
[OGL LOG] update_host_mtx : 110 ms
[OGL LOG] matrix is not yet sorted, sorting host matrix
[OGL LOG] sort_host_mtx_sparsity_pattern : 168 ms
[OGL LOG] sort_host_mtx : 75 ms
[OGL LOG] init_preconditioner : 0 ms
[OGL LOG] solve : 352 ms
nonecudaGKOIR:  Solving for p, Initial residual = 0.687256, Final residual = 3.69776e-06, No Iterations 3
linear solve p 972
time step continuity errors : sum local = 3.41074e-09, global = 6.45327e-22, cumulative = -1.55239e-20
ExecutionTime = 15.41 s  ClockTime = 16 s

Time = 0.003

Courant Number mean: 0.0633456 max: 0.801259
nonePBiCGStab:  Solving for Ux, Initial residual = 0.0595879, Final residual = 0.0123952, No Iterations 5
nonePBiCGStab:  Solving for Uy, Initial residual = 0.182406, Final residual = 0.0478824, No Iterations 5
nonePBiCGStab:  Solving for Uz, Initial residual = 0.662272, Final residual = 0.173346, No Iterations 5
linear solve U 402
[OGL LOG] init_host_sparsity_pattern : 215 ms
[OGL LOG] matrix not stored update host matrix
[OGL LOG] update_host_mtx : 109 ms
[OGL LOG] matrix is not yet sorted, sorting host matrix
[OGL LOG] sort_host_mtx_sparsity_pattern : 151 ms
[OGL LOG] sort_host_mtx : 75 ms
[OGL LOG] init_preconditioner : 0 ms
[OGL LOG] solve : 327 ms
nonecudaGKOIR:  Solving for p, Initial residual = 0.756373, Final residual = 3.70951e-06, No Iterations 3
linear solve p 926
time step continuity errors : sum local = 2.5431e-09, global = 1.97975e-20, cumulative = 4.27358e-21
[OGL LOG] init_host_sparsity_pattern : 214 ms
[OGL LOG] matrix not stored update host matrix
[OGL LOG] update_host_mtx : 109 ms
[OGL LOG] matrix is not yet sorted, sorting host matrix
[OGL LOG] sort_host_mtx_sparsity_pattern : 151 ms
[OGL LOG] sort_host_mtx : 77 ms
[OGL LOG] init_preconditioner : 0 ms
[OGL LOG] solve : 331 ms
nonecudaGKOIR:  Solving for p, Initial residual = 0.685818, Final residual = 3.34739e-06, No Iterations 3
linear solve p 933
time step continuity errors : sum local = 2.23507e-09, global = -7.60989e-21, cumulative = -3.3363e-21
ExecutionTime = 18.14 s  ClockTime = 18 s

Time = 0.004

Courant Number mean: 0.0762496 max: 0.816883
nonePBiCGStab:  Solving for Ux, Initial residual = 0.0365821, Final residual = 0.0079174, No Iterations 5
nonePBiCGStab:  Solving for Uy, Initial residual = 0.127751, Final residual = 0.0355334, No Iterations 5
nonePBiCGStab:  Solving for Uz, Initial residual = 0.422661, Final residual = 0.0988638, No Iterations 5
linear solve U 404
[OGL LOG] init_host_sparsity_pattern : 210 ms
[OGL LOG] matrix not stored update host matrix
[OGL LOG] update_host_mtx : 111 ms
[OGL LOG] matrix is not yet sorted, sorting host matrix
[OGL LOG] sort_host_mtx_sparsity_pattern : 152 ms
[OGL LOG] sort_host_mtx : 75 ms
[OGL LOG] init_preconditioner : 0 ms
[OGL LOG] solve : 255 ms
nonecudaGKOIR:  Solving for p, Initial residual = 0.651309, Final residual = 2.33297e-06, No Iterations 3
linear solve p 851
time step continuity errors : sum local = 1.69075e-09, global = -1.57456e-21, cumulative = -4.91087e-21
[OGL LOG] init_host_sparsity_pattern : 213 ms
[OGL LOG] matrix not stored update host matrix
[OGL LOG] update_host_mtx : 109 ms
[OGL LOG] matrix is not yet sorted, sorting host matrix
[OGL LOG] sort_host_mtx_sparsity_pattern : 157 ms
[OGL LOG] sort_host_mtx : 75 ms
[OGL LOG] init_preconditioner : 0 ms
[OGL LOG] solve : 252 ms
nonecudaGKOIR:  Solving for p, Initial residual = 0.559749, Final residual = 2.20419e-06, No Iterations 3
linear solve p 854
time step continuity errors : sum local = 1.6574e-09, global = 1.09202e-21, cumulative = -3.81884e-21
ExecutionTime = 20.69 s  ClockTime = 21 s

Time = 0.005

Courant Number mean: 0.0866633 max: 0.829151
nonePBiCGStab:  Solving for Ux, Initial residual = 0.0275168, Final residual = 0.00602874, No Iterations 5
nonePBiCGStab:  Solving for Uy, Initial residual = 0.0822577, Final residual = 0.0255439, No Iterations 5
nonePBiCGStab:  Solving for Uz, Initial residual = 0.237635, Final residual = 0.0592107, No Iterations 5
linear solve U 402
[OGL LOG] init_host_sparsity_pattern : 212 ms
[OGL LOG] matrix not stored update host matrix
[OGL LOG] update_host_mtx : 111 ms
[OGL LOG] matrix is not yet sorted, sorting host matrix
[OGL LOG] sort_host_mtx_sparsity_pattern : 151 ms
[OGL LOG] sort_host_mtx : 75 ms
[OGL LOG] init_preconditioner : 0 ms
[OGL LOG] solve : 332 ms
nonecudaGKOIR:  Solving for p, Initial residual = 0.682033, Final residual = 2.83469e-06, No Iterations 3
linear solve p 929
time step continuity errors : sum local = 1.70996e-09, global = -9.86317e-22, cumulative = -4.80516e-21
[OGL LOG] init_host_sparsity_pattern : 215 ms
[OGL LOG] matrix not stored update host matrix
[OGL LOG] update_host_mtx : 109 ms
[OGL LOG] matrix is not yet sorted, sorting host matrix
[OGL LOG] sort_host_mtx_sparsity_pattern : 151 ms
[OGL LOG] sort_host_mtx : 76 ms
[OGL LOG] init_preconditioner : 0 ms
[OGL LOG] solve : 333 ms
nonecudaGKOIR:  Solving for p, Initial residual = 0.60176, Final residual = 2.40708e-06, No Iterations 3
linear solve p 934
time step continuity errors : sum local = 1.43346e-09, global = -2.19745e-20, cumulative = -2.67797e-20
ExecutionTime = 23.38 s  ClockTime = 23 s

Time = 0.006

Courant Number mean: 0.094736 max: 0.835983
nonePBiCGStab:  Solving for Ux, Initial residual = 0.0211418, Final residual = 0.00473468, No Iterations 5
nonePBiCGStab:  Solving for Uy, Initial residual = 0.065511, Final residual = 0.019044, No Iterations 5
nonePBiCGStab:  Solving for Uz, Initial residual = 0.184827, Final residual = 0.0496767, No Iterations 5
linear solve U 402
[OGL LOG] init_host_sparsity_pattern : 210 ms
[OGL LOG] matrix not stored update host matrix
[OGL LOG] update_host_mtx : 109 ms
[OGL LOG] matrix is not yet sorted, sorting host matrix
[OGL LOG] sort_host_mtx_sparsity_pattern : 151 ms
[OGL LOG] sort_host_mtx : 76 ms
[OGL LOG] init_preconditioner : 0 ms
[OGL LOG] solve : 330 ms
nonecudaGKOIR:  Solving for p, Initial residual = 0.60098, Final residual = 2.16097e-06, No Iterations 3
linear solve p 925
time step continuity errors : sum local = 1.37014e-09, global = 9.69628e-21, cumulative = -1.70834e-20
[OGL LOG] init_host_sparsity_pattern : 214 ms
[OGL LOG] matrix not stored update host matrix
[OGL LOG] update_host_mtx : 110 ms
[OGL LOG] matrix is not yet sorted, sorting host matrix
[OGL LOG] sort_host_mtx_sparsity_pattern : 152 ms
[OGL LOG] sort_host_mtx : 75 ms
[OGL LOG] init_preconditioner : 0 ms
[OGL LOG] solve : 331 ms
nonecudaGKOIR:  Solving for p, Initial residual = 0.514642, Final residual = 1.95715e-06, No Iterations 3
linear solve p 930
time step continuity errors : sum local = 1.25481e-09, global = -7.40603e-21, cumulative = -2.44894e-20
ExecutionTime = 26.08 s  ClockTime = 26 s

Time = 0.007

Courant Number mean: 0.101594 max: 0.841233
nonePBiCGStab:  Solving for Ux, Initial residual = 0.0177019, Final residual = 0.00376806, No Iterations 5
nonePBiCGStab:  Solving for Uy, Initial residual = 0.0503933, Final residual = 0.0154456, No Iterations 5
nonePBiCGStab:  Solving for Uz, Initial residual = 0.137202, Final residual = 0.0372689, No Iterations 5
linear solve U 403
[OGL LOG] init_host_sparsity_pattern : 209 ms
[OGL LOG] matrix not stored update host matrix
[OGL LOG] update_host_mtx : 114 ms
[OGL LOG] matrix is not yet sorted, sorting host matrix
[OGL LOG] sort_host_mtx_sparsity_pattern : 152 ms
[OGL LOG] sort_host_mtx : 75 ms
[OGL LOG] init_preconditioner : 0 ms
[OGL LOG] solve : 324 ms
nonecudaGKOIR:  Solving for p, Initial residual = 0.634683, Final residual = 2.04045e-06, No Iterations 3
linear solve p 924
time step continuity errors : sum local = 1.17984e-09, global = 9.61057e-21, cumulative = -1.48788e-20
[OGL LOG] init_host_sparsity_pattern : 214 ms
[OGL LOG] matrix not stored update host matrix
[OGL LOG] update_host_mtx : 110 ms
[OGL LOG] matrix is not yet sorted, sorting host matrix
[OGL LOG] sort_host_mtx_sparsity_pattern : 151 ms
[OGL LOG] sort_host_mtx : 76 ms
[OGL LOG] init_preconditioner : 0 ms
[OGL LOG] solve : 327 ms
nonecudaGKOIR:  Solving for p, Initial residual = 0.549894, Final residual = 1.74438e-06, No Iterations 3
linear solve p 926
time step continuity errors : sum local = 1.0027e-09, global = -6.57612e-22, cumulative = -1.55365e-20
ExecutionTime = 28.77 s  ClockTime = 29 s

Time = 0.008

Courant Number mean: 0.107405 max: 0.845017
nonePBiCGStab:  Solving for Ux, Initial residual = 0.0147211, Final residual = 0.00327535, No Iterations 5
nonePBiCGStab:  Solving for Uy, Initial residual = 0.0431296, Final residual = 0.0108709, No Iterations 5
nonePBiCGStab:  Solving for Uz, Initial residual = 0.117245, Final residual = 0.0340766, No Iterations 5
linear solve U 412
[OGL LOG] init_host_sparsity_pattern : 210 ms
[OGL LOG] matrix not stored update host matrix
[OGL LOG] update_host_mtx : 110 ms
[OGL LOG] matrix is not yet sorted, sorting host matrix
[OGL LOG] sort_host_mtx_sparsity_pattern : 156 ms
[OGL LOG] sort_host_mtx : 77 ms
[OGL LOG] init_preconditioner : 0 ms
[OGL LOG] solve : 318 ms
nonecudaGKOIR:  Solving for p, Initial residual = 0.571223, Final residual = 1.75458e-06, No Iterations 3
linear solve p 919
time step continuity errors : sum local = 1.0764e-09, global = 1.57697e-20, cumulative = 2.33217e-22
[OGL LOG] init_host_sparsity_pattern : 214 ms
[OGL LOG] matrix not stored update host matrix
[OGL LOG] update_host_mtx : 109 ms
[OGL LOG] matrix is not yet sorted, sorting host matrix
[OGL LOG] sort_host_mtx_sparsity_pattern : 151 ms
[OGL LOG] sort_host_mtx : 76 ms
[OGL LOG] init_preconditioner : 0 ms
[OGL LOG] solve : 323 ms
nonecudaGKOIR:  Solving for p, Initial residual = 0.487473, Final residual = 1.46443e-06, No Iterations 3
linear solve p 922
time step continuity errors : sum local = 9.03436e-10, global = -4.72551e-21, cumulative = -4.49229e-21
ExecutionTime = 31.46 s  ClockTime = 32 s

Time = 0.009

Courant Number mean: 0.112567 max: 0.848129
nonePBiCGStab:  Solving for Ux, Initial residual = 0.0130791, Final residual = 0.0025194, No Iterations 5
nonePBiCGStab:  Solving for Uy, Initial residual = 0.0357027, Final residual = 0.00957767, No Iterations 5
nonePBiCGStab:  Solving for Uz, Initial residual = 0.0959827, Final residual = 0.027501, No Iterations 5
linear solve U 402
[OGL LOG] init_host_sparsity_pattern : 213 ms
[OGL LOG] matrix not stored update host matrix
[OGL LOG] update_host_mtx : 109 ms
[OGL LOG] matrix is not yet sorted, sorting host matrix
[OGL LOG] sort_host_mtx_sparsity_pattern : 152 ms
[OGL LOG] sort_host_mtx : 76 ms
[OGL LOG] init_preconditioner : 0 ms
[OGL LOG] solve : 318 ms
nonecudaGKOIR:  Solving for p, Initial residual = 0.602561, Final residual = 1.61064e-06, No Iterations 3
linear solve p 915
time step continuity errors : sum local = 9.2278e-10, global = 2.39438e-22, cumulative = -4.25286e-21
[OGL LOG] init_host_sparsity_pattern : 224 ms
[OGL LOG] matrix not stored update host matrix
[OGL LOG] update_host_mtx : 114 ms
[OGL LOG] matrix is not yet sorted, sorting host matrix
[OGL LOG] sort_host_mtx_sparsity_pattern : 154 ms
[OGL LOG] sort_host_mtx : 76 ms
[OGL LOG] init_preconditioner : 0 ms
[OGL LOG] solve : 324 ms
nonecudaGKOIR:  Solving for p, Initial residual = 0.518391, Final residual = 1.32528e-06, No Iterations 3
linear solve p 942
time step continuity errors : sum local = 7.57289e-10, global = 1.19336e-20, cumulative = 7.68071e-21
ExecutionTime = 34.14 s  ClockTime = 34 s

Time = 0.01

Courant Number mean: 0.117169 max: 0.850569
nonePBiCGStab:  Solving for Ux, Initial residual = 0.0112535, Final residual = 0.00207862, No Iterations 5
nonePBiCGStab:  Solving for Uy, Initial residual = 0.0318456, Final residual = 0.00698001, No Iterations 5
nonePBiCGStab:  Solving for Uz, Initial residual = 0.086891, Final residual = 0.0259612, No Iterations 5
linear solve U 403
[OGL LOG] init_host_sparsity_pattern : 209 ms
[OGL LOG] matrix not stored update host matrix
[OGL LOG] update_host_mtx : 109 ms
[OGL LOG] matrix is not yet sorted, sorting host matrix
[OGL LOG] sort_host_mtx_sparsity_pattern : 151 ms
[OGL LOG] sort_host_mtx : 78 ms
[OGL LOG] init_preconditioner : 0 ms
[OGL LOG] solve : 318 ms
nonecudaGKOIR:  Solving for p, Initial residual = 0.545875, Final residual = 1.36851e-06, No Iterations 3
linear solve p 917
time step continuity errors : sum local = 8.18425e-10, global = 3.50671e-21, cumulative = 1.11874e-20
[OGL LOG] init_host_sparsity_pattern : 214 ms
[OGL LOG] matrix not stored update host matrix
[OGL LOG] update_host_mtx : 109 ms
[OGL LOG] matrix is not yet sorted, sorting host matrix
[OGL LOG] sort_host_mtx_sparsity_pattern : 151 ms
[OGL LOG] sort_host_mtx : 76 ms
[OGL LOG] init_preconditioner : 0 ms
[OGL LOG] solve : 323 ms
nonecudaGKOIR:  Solving for p, Initial residual = 0.46668, Final residual = 1.11286e-06, No Iterations 3
linear solve p 922
time step continuity errors : sum local = 6.66559e-10, global = -4.88738e-21, cumulative = 6.30004e-21
ExecutionTime = 36.81 s  ClockTime = 37 s

End

