/*---------------------------------------------------------------------------*\
  =========                 |
  \\      /  F ield         | OpenFOAM: The Open Source CFD Toolbox
   \\    /   O peration     | Website:  https://openfoam.org
    \\  /    A nd           | Version:  8
     \\/     M anipulation  |
\*---------------------------------------------------------------------------*/
Build  : 8-40a5a48f630f
Exec   : icoFoam
Date   : Jul 27 2021
Time   : 23:14:36
Host   : "uc2n481.localdomain"
PID    : 182855
I/O    : uncollated
Case   : /pfs/data5/home/kit/scc/nq7776/code/OBR/lidDrivenCavity3D/Variation_mesh/55/Variation_matrix_solver/IR_NoPrecond_CUDA/base
nProcs : 1
sigFpe : Enabling floating point exception trapping (FOAM_SIGFPE).
fileModificationChecking : Monitoring run-time modified files using timeStampMaster (fileModificationSkew 10)
allowSystemOperations : Allowing user-supplied system call operations

// * * * * * * * * * * * * * * * * * * * * * * * * * * * * * * * * * * * * * //
Create time

Create mesh for time = 0

Reading transportProperties

Reading field p

Reading field U

Reading/calculating face flux field phi


Starting time loop

Time = 0.001

Courant Number mean: 0 max: 0
nonePBiCGStab:  Solving for Ux, Initial residual = 1, Final residual = 0.0406479, No Iterations 5
nonePBiCGStab:  Solving for Uy, Initial residual = 0, Final residual = 0, No Iterations 0
nonePBiCGStab:  Solving for Uz, Initial residual = 0, Final residual = 0, No Iterations 0
linear solve U 43
[OGL LOG] init_host_sparsity_pattern : 45 ms
[OGL LOG] matrix not stored update host matrix
[OGL LOG] update_host_mtx : 25 ms
[OGL LOG] matrix is not yet sorted, compute sorting idxs
[OGL LOG] compute_sort : 1396 ms
[OGL LOG] matrix is not yet sorted, sorting host matrix
[OGL LOG] sort_host_mtx_sparsity_pattern : 33 ms
[OGL LOG] sort_host_mtx : 16 ms
[OGL LOG] init_preconditioner : 0 ms
[OGL LOG] solve : 81 ms
nonecudaGKOIR:  Solving for p, Initial residual = 1, Final residual = 1.07109e-05, No Iterations 3
linear solve p 2376
time step continuity errors : sum local = 5.51596e-09, global = 4.65439e-21, cumulative = 4.65439e-21
[OGL LOG] init_host_sparsity_pattern : 47 ms
[OGL LOG] matrix not stored update host matrix
[OGL LOG] update_host_mtx : 24 ms
[OGL LOG] matrix is not yet sorted, sorting host matrix
[OGL LOG] sort_host_mtx_sparsity_pattern : 36 ms
[OGL LOG] sort_host_mtx : 17 ms
[OGL LOG] init_preconditioner : 0 ms
[OGL LOG] solve : 83 ms
nonecudaGKOIR:  Solving for p, Initial residual = 0.65375, Final residual = 5.09522e-06, No Iterations 3
linear solve p 219
time step continuity errors : sum local = 3.78227e-09, global = -1.44417e-20, cumulative = -9.78736e-21
ExecutionTime = 3.36 s  ClockTime = 4 s

Time = 0.002

Courant Number mean: 0.0286202 max: 0.375271
nonePBiCGStab:  Solving for Ux, Initial residual = 0.159544, Final residual = 0.0147457, No Iterations 5
nonePBiCGStab:  Solving for Uy, Initial residual = 0.33685, Final residual = 0.0263962, No Iterations 5
nonePBiCGStab:  Solving for Uz, Initial residual = 0.97476, Final residual = 0.102972, No Iterations 5
linear solve U 84
[OGL LOG] init_host_sparsity_pattern : 44 ms
[OGL LOG] matrix not stored update host matrix
[OGL LOG] update_host_mtx : 21 ms
[OGL LOG] matrix is not yet sorted, sorting host matrix
[OGL LOG] sort_host_mtx_sparsity_pattern : 31 ms
[OGL LOG] sort_host_mtx : 17 ms
[OGL LOG] init_preconditioner : 0 ms
[OGL LOG] solve : 83 ms
nonecudaGKOIR:  Solving for p, Initial residual = 0.589436, Final residual = 2.51967e-06, No Iterations 3
linear solve p 209
time step continuity errors : sum local = 2.09426e-09, global = 2.1143e-20, cumulative = 1.13557e-20
[OGL LOG] init_host_sparsity_pattern : 44 ms
[OGL LOG] matrix not stored update host matrix
[OGL LOG] update_host_mtx : 23 ms
[OGL LOG] matrix is not yet sorted, sorting host matrix
[OGL LOG] sort_host_mtx_sparsity_pattern : 33 ms
[OGL LOG] sort_host_mtx : 17 ms
[OGL LOG] init_preconditioner : 0 ms
[OGL LOG] solve : 83 ms
nonecudaGKOIR:  Solving for p, Initial residual = 0.50212, Final residual = 1.95357e-06, No Iterations 3
linear solve p 213
time step continuity errors : sum local = 1.67414e-09, global = -7.70505e-21, cumulative = 3.65061e-21
ExecutionTime = 3.96 s  ClockTime = 4 s

Time = 0.003

Courant Number mean: 0.0436538 max: 0.457188
nonePBiCGStab:  Solving for Ux, Initial residual = 0.0563565, Final residual = 0.00392977, No Iterations 5
nonePBiCGStab:  Solving for Uy, Initial residual = 0.110148, Final residual = 0.00619747, No Iterations 5
nonePBiCGStab:  Solving for Uz, Initial residual = 0.199575, Final residual = 0.021553, No Iterations 5
linear solve U 85
[OGL LOG] init_host_sparsity_pattern : 44 ms
[OGL LOG] matrix not stored update host matrix
[OGL LOG] update_host_mtx : 21 ms
[OGL LOG] matrix is not yet sorted, sorting host matrix
[OGL LOG] sort_host_mtx_sparsity_pattern : 31 ms
[OGL LOG] sort_host_mtx : 16 ms
[OGL LOG] init_preconditioner : 0 ms
[OGL LOG] solve : 84 ms
nonecudaGKOIR:  Solving for p, Initial residual = 0.402742, Final residual = 1.31232e-06, No Iterations 3
linear solve p 209
time step continuity errors : sum local = 7.49214e-10, global = -1.3985e-20, cumulative = -1.03344e-20
[OGL LOG] init_host_sparsity_pattern : 44 ms
[OGL LOG] matrix not stored update host matrix
[OGL LOG] update_host_mtx : 21 ms
[OGL LOG] matrix is not yet sorted, sorting host matrix
[OGL LOG] sort_host_mtx_sparsity_pattern : 31 ms
[OGL LOG] sort_host_mtx : 17 ms
[OGL LOG] init_preconditioner : 0 ms
[OGL LOG] solve : 85 ms
nonecudaGKOIR:  Solving for p, Initial residual = 0.345525, Final residual = 9.5457e-07, No Iterations 3
linear solve p 211
time step continuity errors : sum local = 5.30823e-10, global = 7.07023e-21, cumulative = -3.26415e-21
ExecutionTime = 4.57 s  ClockTime = 5 s

Time = 0.004

Courant Number mean: 0.0524098 max: 0.476939
nonePBiCGStab:  Solving for Ux, Initial residual = 0.0337951, Final residual = 0.00163939, No Iterations 5
nonePBiCGStab:  Solving for Uy, Initial residual = 0.0699828, Final residual = 0.00253485, No Iterations 5
nonePBiCGStab:  Solving for Uz, Initial residual = 0.151657, Final residual = 0.0116396, No Iterations 5
linear solve U 84
[OGL LOG] init_host_sparsity_pattern : 45 ms
[OGL LOG] matrix not stored update host matrix
[OGL LOG] update_host_mtx : 21 ms
[OGL LOG] matrix is not yet sorted, sorting host matrix
[OGL LOG] sort_host_mtx_sparsity_pattern : 31 ms
[OGL LOG] sort_host_mtx : 17 ms
[OGL LOG] init_preconditioner : 0 ms
[OGL LOG] solve : 63 ms
nonecudaGKOIR:  Solving for p, Initial residual = 0.211611, Final residual = 6.82948e-05, No Iterations 2
linear solve p 188
time step continuity errors : sum local = 3.6987e-08, global = 1.35234e-21, cumulative = -1.91181e-21
[OGL LOG] init_host_sparsity_pattern : 44 ms
[OGL LOG] matrix not stored update host matrix
[OGL LOG] update_host_mtx : 21 ms
[OGL LOG] matrix is not yet sorted, sorting host matrix
[OGL LOG] sort_host_mtx_sparsity_pattern : 31 ms
[OGL LOG] sort_host_mtx : 16 ms
[OGL LOG] init_preconditioner : 0 ms
[OGL LOG] solve : 64 ms
nonecudaGKOIR:  Solving for p, Initial residual = 0.170034, Final residual = 5.01288e-05, No Iterations 2
linear solve p 188
time step continuity errors : sum local = 2.74845e-08, global = 2.27003e-21, cumulative = 3.58222e-22
ExecutionTime = 5.13 s  ClockTime = 5 s

Time = 0.005

Courant Number mean: 0.0590337 max: 0.487029
nonePBiCGStab:  Solving for Ux, Initial residual = 0.0238436, Final residual = 0.000956384, No Iterations 5
nonePBiCGStab:  Solving for Uy, Initial residual = 0.0478975, Final residual = 0.00155199, No Iterations 5
nonePBiCGStab:  Solving for Uz, Initial residual = 0.0904019, Final residual = 0.00477504, No Iterations 5
linear solve U 89
[OGL LOG] init_host_sparsity_pattern : 44 ms
[OGL LOG] matrix not stored update host matrix
[OGL LOG] update_host_mtx : 23 ms
[OGL LOG] matrix is not yet sorted, sorting host matrix
[OGL LOG] sort_host_mtx_sparsity_pattern : 33 ms
[OGL LOG] sort_host_mtx : 16 ms
[OGL LOG] init_preconditioner : 0 ms
[OGL LOG] solve : 64 ms
nonecudaGKOIR:  Solving for p, Initial residual = 0.119389, Final residual = 3.31213e-05, No Iterations 2
linear solve p 193
time step continuity errors : sum local = 1.66063e-08, global = 5.04299e-21, cumulative = 5.40122e-21
[OGL LOG] init_host_sparsity_pattern : 44 ms
[OGL LOG] matrix not stored update host matrix
[OGL LOG] update_host_mtx : 21 ms
[OGL LOG] matrix is not yet sorted, sorting host matrix
[OGL LOG] sort_host_mtx_sparsity_pattern : 32 ms
[OGL LOG] sort_host_mtx : 16 ms
[OGL LOG] init_preconditioner : 0 ms
[OGL LOG] solve : 64 ms
nonecudaGKOIR:  Solving for p, Initial residual = 0.0975927, Final residual = 2.68672e-05, No Iterations 2
linear solve p 189
time step continuity errors : sum local = 1.3436e-08, global = 1.45839e-20, cumulative = 1.99851e-20
ExecutionTime = 5.7 s  ClockTime = 6 s

Time = 0.006

Courant Number mean: 0.0642585 max: 0.493228
nonePBiCGStab:  Solving for Ux, Initial residual = 0.0180839, Final residual = 0.000578805, No Iterations 5
nonePBiCGStab:  Solving for Uy, Initial residual = 0.0364849, Final residual = 0.000806723, No Iterations 5
nonePBiCGStab:  Solving for Uz, Initial residual = 0.0701186, Final residual = 0.00369485, No Iterations 5
linear solve U 84
[OGL LOG] init_host_sparsity_pattern : 44 ms
[OGL LOG] matrix not stored update host matrix
[OGL LOG] update_host_mtx : 21 ms
[OGL LOG] matrix is not yet sorted, sorting host matrix
[OGL LOG] sort_host_mtx_sparsity_pattern : 30 ms
[OGL LOG] sort_host_mtx : 16 ms
[OGL LOG] init_preconditioner : 0 ms
[OGL LOG] solve : 64 ms
nonecudaGKOIR:  Solving for p, Initial residual = 0.0723237, Final residual = 1.77856e-05, No Iterations 2
linear solve p 188
time step continuity errors : sum local = 8.79999e-09, global = 2.94179e-20, cumulative = 4.9403e-20
[OGL LOG] init_host_sparsity_pattern : 44 ms
[OGL LOG] matrix not stored update host matrix
[OGL LOG] update_host_mtx : 21 ms
[OGL LOG] matrix is not yet sorted, sorting host matrix
[OGL LOG] sort_host_mtx_sparsity_pattern : 31 ms
[OGL LOG] sort_host_mtx : 17 ms
[OGL LOG] init_preconditioner : 0 ms
[OGL LOG] solve : 64 ms
nonecudaGKOIR:  Solving for p, Initial residual = 0.058883, Final residual = 1.41328e-05, No Iterations 2
linear solve p 190
time step continuity errors : sum local = 7.02355e-09, global = -1.71302e-21, cumulative = 4.769e-20
ExecutionTime = 6.27 s  ClockTime = 6 s

Time = 0.007

Courant Number mean: 0.0685246 max: 0.497559
nonePBiCGStab:  Solving for Ux, Initial residual = 0.0143682, Final residual = 0.00034873, No Iterations 5
nonePBiCGStab:  Solving for Uy, Initial residual = 0.0289937, Final residual = 0.000630587, No Iterations 5
nonePBiCGStab:  Solving for Uz, Initial residual = 0.0569574, Final residual = 0.00218932, No Iterations 5
linear solve U 84
[OGL LOG] init_host_sparsity_pattern : 44 ms
[OGL LOG] matrix not stored update host matrix
[OGL LOG] update_host_mtx : 21 ms
[OGL LOG] matrix is not yet sorted, sorting host matrix
[OGL LOG] sort_host_mtx_sparsity_pattern : 31 ms
[OGL LOG] sort_host_mtx : 17 ms
[OGL LOG] init_preconditioner : 0 ms
[OGL LOG] solve : 64 ms
nonecudaGKOIR:  Solving for p, Initial residual = 0.0411201, Final residual = 9.5115e-06, No Iterations 2
linear solve p 190
time step continuity errors : sum local = 4.65482e-09, global = 8.09107e-22, cumulative = 4.84991e-20
[OGL LOG] init_host_sparsity_pattern : 45 ms
[OGL LOG] matrix not stored update host matrix
[OGL LOG] update_host_mtx : 21 ms
[OGL LOG] matrix is not yet sorted, sorting host matrix
[OGL LOG] sort_host_mtx_sparsity_pattern : 31 ms
[OGL LOG] sort_host_mtx : 17 ms
[OGL LOG] init_preconditioner : 0 ms
[OGL LOG] solve : 67 ms
nonecudaGKOIR:  Solving for p, Initial residual = 0.034679, Final residual = 7.29652e-06, No Iterations 2
linear solve p 192
time step continuity errors : sum local = 3.57342e-09, global = -5.89534e-21, cumulative = 4.26038e-20
ExecutionTime = 6.83 s  ClockTime = 7 s

Time = 0.008

Courant Number mean: 0.0721281 max: 0.500767
nonePBiCGStab:  Solving for Ux, Initial residual = 0.0117897, Final residual = 0.000242711, No Iterations 5
nonePBiCGStab:  Solving for Uy, Initial residual = 0.0238736, Final residual = 0.000374482, No Iterations 5
nonePBiCGStab:  Solving for Uz, Initial residual = 0.046955, Final residual = 0.00185959, No Iterations 5
linear solve U 86
[OGL LOG] init_host_sparsity_pattern : 44 ms
[OGL LOG] matrix not stored update host matrix
[OGL LOG] update_host_mtx : 21 ms
[OGL LOG] matrix is not yet sorted, sorting host matrix
[OGL LOG] sort_host_mtx_sparsity_pattern : 31 ms
[OGL LOG] sort_host_mtx : 17 ms
[OGL LOG] init_preconditioner : 0 ms
[OGL LOG] solve : 66 ms
nonecudaGKOIR:  Solving for p, Initial residual = 0.0292655, Final residual = 6.57887e-06, No Iterations 2
linear solve p 190
time step continuity errors : sum local = 3.20542e-09, global = 1.23635e-20, cumulative = 5.49673e-20
[OGL LOG] init_host_sparsity_pattern : 44 ms
[OGL LOG] matrix not stored update host matrix
[OGL LOG] update_host_mtx : 21 ms
[OGL LOG] matrix is not yet sorted, sorting host matrix
[OGL LOG] sort_host_mtx_sparsity_pattern : 31 ms
[OGL LOG] sort_host_mtx : 16 ms
[OGL LOG] init_preconditioner : 0 ms
[OGL LOG] solve : 66 ms
nonecudaGKOIR:  Solving for p, Initial residual = 0.0248714, Final residual = 5.21757e-06, No Iterations 2
linear solve p 191
time step continuity errors : sum local = 2.54757e-09, global = 1.13281e-20, cumulative = 6.62954e-20
ExecutionTime = 7.38 s  ClockTime = 8 s

Time = 0.009

Courant Number mean: 0.0751978 max: 0.503263
nonePBiCGStab:  Solving for Ux, Initial residual = 0.00988799, Final residual = 0.000184094, No Iterations 5
nonePBiCGStab:  Solving for Uy, Initial residual = 0.0201368, Final residual = 0.000315847, No Iterations 5
nonePBiCGStab:  Solving for Uz, Initial residual = 0.0402359, Final residual = 0.00124207, No Iterations 5
linear solve U 84
[OGL LOG] init_host_sparsity_pattern : 45 ms
[OGL LOG] matrix not stored update host matrix
[OGL LOG] update_host_mtx : 21 ms
[OGL LOG] matrix is not yet sorted, sorting host matrix
[OGL LOG] sort_host_mtx_sparsity_pattern : 32 ms
[OGL LOG] sort_host_mtx : 17 ms
[OGL LOG] init_preconditioner : 0 ms
[OGL LOG] solve : 74 ms
nonecudaGKOIR:  Solving for p, Initial residual = 0.0205087, Final residual = 3.36577e-06, No Iterations 2
linear solve p 201
time step continuity errors : sum local = 1.64112e-09, global = -8.2307e-21, cumulative = 5.80647e-20
[OGL LOG] init_host_sparsity_pattern : 46 ms
[OGL LOG] matrix not stored update host matrix
[OGL LOG] update_host_mtx : 22 ms
[OGL LOG] matrix is not yet sorted, sorting host matrix
[OGL LOG] sort_host_mtx_sparsity_pattern : 34 ms
[OGL LOG] sort_host_mtx : 16 ms
[OGL LOG] init_preconditioner : 0 ms
[OGL LOG] solve : 72 ms
nonecudaGKOIR:  Solving for p, Initial residual = 0.0180647, Final residual = 2.85025e-06, No Iterations 2
linear solve p 203
time step continuity errors : sum local = 1.39114e-09, global = -4.83748e-21, cumulative = 5.32272e-20
ExecutionTime = 7.97 s  ClockTime = 8 s

Time = 0.01

Courant Number mean: 0.0778661 max: 0.505261
nonePBiCGStab:  Solving for Ux, Initial residual = 0.00844307, Final residual = 0.000132254, No Iterations 5
nonePBiCGStab:  Solving for Uy, Initial residual = 0.0172584, Final residual = 0.000221956, No Iterations 5
nonePBiCGStab:  Solving for Uz, Initial residual = 0.0346123, Final residual = 0.00109103, No Iterations 5
linear solve U 84
[OGL LOG] init_host_sparsity_pattern : 44 ms
[OGL LOG] matrix not stored update host matrix
[OGL LOG] update_host_mtx : 21 ms
[OGL LOG] matrix is not yet sorted, sorting host matrix
[OGL LOG] sort_host_mtx_sparsity_pattern : 32 ms
[OGL LOG] sort_host_mtx : 17 ms
[OGL LOG] init_preconditioner : 0 ms
[OGL LOG] solve : 68 ms
nonecudaGKOIR:  Solving for p, Initial residual = 0.016545, Final residual = 3.31492e-06, No Iterations 2
linear solve p 194
time step continuity errors : sum local = 1.61761e-09, global = -8.66808e-21, cumulative = 4.45591e-20
[OGL LOG] init_host_sparsity_pattern : 44 ms
[OGL LOG] matrix not stored update host matrix
[OGL LOG] update_host_mtx : 21 ms
[OGL LOG] matrix is not yet sorted, sorting host matrix
[OGL LOG] sort_host_mtx_sparsity_pattern : 31 ms
[OGL LOG] sort_host_mtx : 17 ms
[OGL LOG] init_preconditioner : 0 ms
[OGL LOG] solve : 69 ms
nonecudaGKOIR:  Solving for p, Initial residual = 0.0146996, Final residual = 2.74605e-06, No Iterations 2
linear solve p 193
time step continuity errors : sum local = 1.3417e-09, global = 1.29752e-20, cumulative = 5.75344e-20
ExecutionTime = 8.54 s  ClockTime = 9 s

End

