/*---------------------------------------------------------------------------*\
  =========                 |
  \\      /  F ield         | OpenFOAM: The Open Source CFD Toolbox
   \\    /   O peration     | Website:  https://openfoam.org
    \\  /    A nd           | Version:  8
     \\/     M anipulation  |
\*---------------------------------------------------------------------------*/
Build  : 8-40a5a48f630f
Exec   : icoFoam
Date   : Jul 28 2021
Time   : 02:22:54
Host   : "uc2n471.localdomain"
PID    : 2459647
I/O    : uncollated
Case   : /pfs/data5/home/kit/scc/nq7776/code/OBR/lidDrivenCavity3D/Variation_mesh/65/Variation_matrix_solver/BiCGStab_NoPrecond_OMP/base
nProcs : 1
sigFpe : Enabling floating point exception trapping (FOAM_SIGFPE).
fileModificationChecking : Monitoring run-time modified files using timeStampMaster (fileModificationSkew 10)
allowSystemOperations : Allowing user-supplied system call operations

// * * * * * * * * * * * * * * * * * * * * * * * * * * * * * * * * * * * * * //
Create time

Create mesh for time = 0

Reading transportProperties

Reading field p

Reading field U

Reading/calculating face flux field phi


Starting time loop

Time = 0.001

Courant Number mean: 0 max: 0
nonePBiCGStab:  Solving for Ux, Initial residual = 1, Final residual = 0.053017, No Iterations 5
nonePBiCGStab:  Solving for Uy, Initial residual = 0, Final residual = 0, No Iterations 0
nonePBiCGStab:  Solving for Uz, Initial residual = 0, Final residual = 0, No Iterations 0
linear solve U 70
[OGL LOG] init_host_sparsity_pattern : 78 ms
[OGL LOG] matrix not stored update host matrix
[OGL LOG] update_host_mtx : 40 ms
[OGL LOG] matrix is not yet sorted, compute sorting idxs
[OGL LOG] compute_sort : 2373 ms
[OGL LOG] matrix is not yet sorted, sorting host matrix
[OGL LOG] sort_host_mtx_sparsity_pattern : 56 ms
[OGL LOG] sort_host_mtx : 33 ms
[OGL LOG] init_preconditioner : 0 ms
[OGL LOG] solve : 6401 ms
noneompGKOBiCGStab:  Solving for p, Initial residual = 1, Final residual = 9.23015e-05, No Iterations 415
linear solve p 9042
time step continuity errors : sum local = 1.54945e-07, global = -1.26331e-21, cumulative = -1.26331e-21
[OGL LOG] init_host_sparsity_pattern : 75 ms
[OGL LOG] matrix not stored update host matrix
[OGL LOG] update_host_mtx : 40 ms
[OGL LOG] matrix is not yet sorted, sorting host matrix
[OGL LOG] sort_host_mtx_sparsity_pattern : 56 ms
[OGL LOG] sort_host_mtx : 27 ms
[OGL LOG] init_preconditioner : 0 ms
[OGL LOG] solve : 6226 ms
noneompGKOBiCGStab:  Solving for p, Initial residual = 0.674596, Final residual = 9.84261e-05, No Iterations 404
linear solve p 6458
time step continuity errors : sum local = 6.36861e-07, global = -5.82292e-21, cumulative = -7.08624e-21
ExecutionTime = 16.7 s  ClockTime = 16 s

Time = 0.002

Courant Number mean: 0.0326867 max: 0.468251
nonePBiCGStab:  Solving for Ux, Initial residual = 0.152168, Final residual = 0.0211963, No Iterations 5
nonePBiCGStab:  Solving for Uy, Initial residual = 0.364749, Final residual = 0.0459879, No Iterations 5
nonePBiCGStab:  Solving for Uz, Initial residual = 0.964689, Final residual = 0.160303, No Iterations 5
linear solve U 134
[OGL LOG] init_host_sparsity_pattern : 72 ms
[OGL LOG] matrix not stored update host matrix
[OGL LOG] update_host_mtx : 37 ms
[OGL LOG] matrix is not yet sorted, sorting host matrix
[OGL LOG] sort_host_mtx_sparsity_pattern : 56 ms
[OGL LOG] sort_host_mtx : 27 ms
[OGL LOG] init_preconditioner : 0 ms
[OGL LOG] solve : 5730 ms
noneompGKOBiCGStab:  Solving for p, Initial residual = 0.655798, Final residual = 4.99053e-05, No Iterations 372
linear solve p 5958
time step continuity errors : sum local = 8.36763e-07, global = -6.03733e-21, cumulative = -1.31236e-20
[OGL LOG] init_host_sparsity_pattern : 77 ms
[OGL LOG] matrix not stored update host matrix
[OGL LOG] update_host_mtx : 40 ms
[OGL LOG] matrix is not yet sorted, sorting host matrix
[OGL LOG] sort_host_mtx_sparsity_pattern : 55 ms
[OGL LOG] sort_host_mtx : 27 ms
[OGL LOG] init_preconditioner : 0 ms
[OGL LOG] solve : 5571 ms
noneompGKOBiCGStab:  Solving for p, Initial residual = 0.574444, Final residual = 9.97611e-05, No Iterations 362
linear solve p 5807
time step continuity errors : sum local = 1.75256e-07, global = -1.95334e-21, cumulative = -1.50769e-20
ExecutionTime = 28.74 s  ClockTime = 28 s

Time = 0.003

Courant Number mean: 0.0502312 max: 0.556592
nonePBiCGStab:  Solving for Ux, Initial residual = 0.0549387, Final residual = 0.00592764, No Iterations 5
nonePBiCGStab:  Solving for Uy, Initial residual = 0.12787, Final residual = 0.0169098, No Iterations 5
nonePBiCGStab:  Solving for Uz, Initial residual = 0.462463, Final residual = 0.092676, No Iterations 5
linear solve U 134
[OGL LOG] init_host_sparsity_pattern : 74 ms
[OGL LOG] matrix not stored update host matrix
[OGL LOG] update_host_mtx : 40 ms
[OGL LOG] matrix is not yet sorted, sorting host matrix
[OGL LOG] sort_host_mtx_sparsity_pattern : 56 ms
[OGL LOG] sort_host_mtx : 27 ms
[OGL LOG] init_preconditioner : 0 ms
[OGL LOG] solve : 5635 ms
noneompGKOBiCGStab:  Solving for p, Initial residual = 0.561343, Final residual = 9.2836e-05, No Iterations 366
linear solve p 5867
time step continuity errors : sum local = 5.89217e-08, global = 4.48942e-21, cumulative = -1.05875e-20
[OGL LOG] init_host_sparsity_pattern : 72 ms
[OGL LOG] matrix not stored update host matrix
[OGL LOG] update_host_mtx : 35 ms
[OGL LOG] matrix is not yet sorted, sorting host matrix
[OGL LOG] sort_host_mtx_sparsity_pattern : 55 ms
[OGL LOG] sort_host_mtx : 27 ms
[OGL LOG] init_preconditioner : 0 ms
[OGL LOG] solve : 5019 ms
noneompGKOBiCGStab:  Solving for p, Initial residual = 0.494231, Final residual = 9.53987e-05, No Iterations 325
linear solve p 5243
time step continuity errors : sum local = 1.17824e-07, global = -9.68996e-21, cumulative = -2.02775e-20
ExecutionTime = 40.11 s  ClockTime = 40 s

Time = 0.004

Courant Number mean: 0.0602715 max: 0.574993
nonePBiCGStab:  Solving for Ux, Initial residual = 0.0336897, Final residual = 0.00311493, No Iterations 5
nonePBiCGStab:  Solving for Uy, Initial residual = 0.0812199, Final residual = 0.00708252, No Iterations 5
nonePBiCGStab:  Solving for Uz, Initial residual = 0.272809, Final residual = 0.0354249, No Iterations 5
linear solve U 136
[OGL LOG] init_host_sparsity_pattern : 75 ms
[OGL LOG] matrix not stored update host matrix
[OGL LOG] update_host_mtx : 40 ms
[OGL LOG] matrix is not yet sorted, sorting host matrix
[OGL LOG] sort_host_mtx_sparsity_pattern : 55 ms
[OGL LOG] sort_host_mtx : 27 ms
[OGL LOG] init_preconditioner : 0 ms
[OGL LOG] solve : 5435 ms
noneompGKOBiCGStab:  Solving for p, Initial residual = 0.357805, Final residual = 9.20811e-05, No Iterations 352
linear solve p 5666
time step continuity errors : sum local = 1.14545e-07, global = 1.43854e-20, cumulative = -5.89205e-21
[OGL LOG] init_host_sparsity_pattern : 72 ms
[OGL LOG] matrix not stored update host matrix
[OGL LOG] update_host_mtx : 35 ms
[OGL LOG] matrix is not yet sorted, sorting host matrix
[OGL LOG] sort_host_mtx_sparsity_pattern : 55 ms
[OGL LOG] sort_host_mtx : 27 ms
[OGL LOG] init_preconditioner : 0 ms
[OGL LOG] solve : 5826 ms
noneompGKOBiCGStab:  Solving for p, Initial residual = 0.2962, Final residual = 9.64284e-05, No Iterations 378
linear solve p 6049
time step continuity errors : sum local = 9.7768e-08, global = 2.02552e-20, cumulative = 1.43632e-20
ExecutionTime = 52.09 s  ClockTime = 52 s

Time = 0.005

Courant Number mean: 0.0682475 max: 0.585636
nonePBiCGStab:  Solving for Ux, Initial residual = 0.0236105, Final residual = 0.00198075, No Iterations 5
nonePBiCGStab:  Solving for Uy, Initial residual = 0.0541179, Final residual = 0.00401495, No Iterations 5
nonePBiCGStab:  Solving for Uz, Initial residual = 0.157727, Final residual = 0.0277537, No Iterations 5
linear solve U 135
[OGL LOG] init_host_sparsity_pattern : 74 ms
[OGL LOG] matrix not stored update host matrix
[OGL LOG] update_host_mtx : 40 ms
[OGL LOG] matrix is not yet sorted, sorting host matrix
[OGL LOG] sort_host_mtx_sparsity_pattern : 58 ms
[OGL LOG] sort_host_mtx : 27 ms
[OGL LOG] init_preconditioner : 0 ms
[OGL LOG] solve : 4811 ms
noneompGKOBiCGStab:  Solving for p, Initial residual = 0.280308, Final residual = 8.96689e-05, No Iterations 312
linear solve p 5045
time step continuity errors : sum local = 1.12197e-07, global = 4.22821e-21, cumulative = 1.85914e-20
[OGL LOG] init_host_sparsity_pattern : 72 ms
[OGL LOG] matrix not stored update host matrix
[OGL LOG] update_host_mtx : 35 ms
[OGL LOG] matrix is not yet sorted, sorting host matrix
[OGL LOG] sort_host_mtx_sparsity_pattern : 55 ms
[OGL LOG] sort_host_mtx : 27 ms
[OGL LOG] init_preconditioner : 0 ms
[OGL LOG] solve : 4879 ms
noneompGKOBiCGStab:  Solving for p, Initial residual = 0.238045, Final residual = 7.90979e-05, No Iterations 316
linear solve p 5103
time step continuity errors : sum local = 1.21721e-07, global = 7.96937e-21, cumulative = 2.65608e-20
ExecutionTime = 62.51 s  ClockTime = 62 s

Time = 0.006

Courant Number mean: 0.0745201 max: 0.592193
nonePBiCGStab:  Solving for Ux, Initial residual = 0.0180599, Final residual = 0.00133552, No Iterations 5
nonePBiCGStab:  Solving for Uy, Initial residual = 0.0399419, Final residual = 0.00213799, No Iterations 5
nonePBiCGStab:  Solving for Uz, Initial residual = 0.128332, Final residual = 0.0217487, No Iterations 5
linear solve U 136
[OGL LOG] init_host_sparsity_pattern : 75 ms
[OGL LOG] matrix not stored update host matrix
[OGL LOG] update_host_mtx : 40 ms
[OGL LOG] matrix is not yet sorted, sorting host matrix
[OGL LOG] sort_host_mtx_sparsity_pattern : 55 ms
[OGL LOG] sort_host_mtx : 27 ms
[OGL LOG] init_preconditioner : 0 ms
[OGL LOG] solve : 5955 ms
noneompGKOBiCGStab:  Solving for p, Initial residual = 0.19076, Final residual = 8.86782e-05, No Iterations 386
linear solve p 6187
time step continuity errors : sum local = 1.46534e-07, global = -3.44237e-20, cumulative = -7.86294e-21
[OGL LOG] init_host_sparsity_pattern : 72 ms
[OGL LOG] matrix not stored update host matrix
[OGL LOG] update_host_mtx : 37 ms
[OGL LOG] matrix is not yet sorted, sorting host matrix
[OGL LOG] sort_host_mtx_sparsity_pattern : 55 ms
[OGL LOG] sort_host_mtx : 27 ms
[OGL LOG] init_preconditioner : 0 ms
[OGL LOG] solve : 5658 ms
noneompGKOBiCGStab:  Solving for p, Initial residual = 0.158898, Final residual = 8.75648e-05, No Iterations 367
linear solve p 5886
time step continuity errors : sum local = 7.0348e-08, global = 6.4429e-21, cumulative = -1.42004e-21
ExecutionTime = 74.85 s  ClockTime = 75 s

Time = 0.007

Courant Number mean: 0.0797236 max: 0.596685
nonePBiCGStab:  Solving for Ux, Initial residual = 0.0141317, Final residual = 0.000865667, No Iterations 5
nonePBiCGStab:  Solving for Uy, Initial residual = 0.0320109, Final residual = 0.00152392, No Iterations 5
nonePBiCGStab:  Solving for Uz, Initial residual = 0.101917, Final residual = 0.0127116, No Iterations 5
linear solve U 134
[OGL LOG] init_host_sparsity_pattern : 75 ms
[OGL LOG] matrix not stored update host matrix
[OGL LOG] update_host_mtx : 40 ms
[OGL LOG] matrix is not yet sorted, sorting host matrix
[OGL LOG] sort_host_mtx_sparsity_pattern : 55 ms
[OGL LOG] sort_host_mtx : 27 ms
[OGL LOG] init_preconditioner : 0 ms
[OGL LOG] solve : 4586 ms
noneompGKOBiCGStab:  Solving for p, Initial residual = 0.141463, Final residual = 9.93058e-05, No Iterations 297
linear solve p 4818
time step continuity errors : sum local = 9.82823e-08, global = -4.28953e-21, cumulative = -5.70958e-21
[OGL LOG] init_host_sparsity_pattern : 72 ms
[OGL LOG] matrix not stored update host matrix
[OGL LOG] update_host_mtx : 37 ms
[OGL LOG] matrix is not yet sorted, sorting host matrix
[OGL LOG] sort_host_mtx_sparsity_pattern : 56 ms
[OGL LOG] sort_host_mtx : 27 ms
[OGL LOG] init_preconditioner : 0 ms
[OGL LOG] solve : 4639 ms
noneompGKOBiCGStab:  Solving for p, Initial residual = 0.118642, Final residual = 9.71894e-05, No Iterations 300
linear solve p 4867
time step continuity errors : sum local = 1.04144e-07, global = 8.03009e-21, cumulative = 2.32051e-21
ExecutionTime = 84.8 s  ClockTime = 85 s

regIOobject::readIfModified() : 
    Re-reading object controlDict from file "/pfs/data5/home/kit/scc/nq7776/code/OBR/lidDrivenCavity3D/Variation_mesh/65/Variation_matrix_solver/BiCGStab_NoPrecond_OMP/base/system/controlDict"
End

