/*---------------------------------------------------------------------------*\
  =========                 |
  \\      /  F ield         | OpenFOAM: The Open Source CFD Toolbox
   \\    /   O peration     | Website:  https://openfoam.org
    \\  /    A nd           | Version:  8
     \\/     M anipulation  |
\*---------------------------------------------------------------------------*/
Build  : 8-40a5a48f630f
Exec   : icoFoam
Date   : Jul 28 2021
Time   : 01:56:46
Host   : "uc2n473.localdomain"
PID    : 999121
I/O    : uncollated
Case   : /pfs/data5/home/kit/scc/nq7776/code/OBR/lidDrivenCavity3D/Variation_mesh/40/Variation_matrix_solver/BiCGStab_NoPrecond_OMP/base
nProcs : 1
sigFpe : Enabling floating point exception trapping (FOAM_SIGFPE).
fileModificationChecking : Monitoring run-time modified files using timeStampMaster (fileModificationSkew 10)
allowSystemOperations : Allowing user-supplied system call operations

// * * * * * * * * * * * * * * * * * * * * * * * * * * * * * * * * * * * * * //
Create time

Create mesh for time = 0

Reading transportProperties

Reading field p

Reading field U

Reading/calculating face flux field phi


Starting time loop

Time = 0.001

Courant Number mean: 0 max: 0
nonePBiCGStab:  Solving for Ux, Initial residual = 1, Final residual = 0.0197517, No Iterations 5
nonePBiCGStab:  Solving for Uy, Initial residual = 0, Final residual = 0, No Iterations 0
nonePBiCGStab:  Solving for Uz, Initial residual = 0, Final residual = 0, No Iterations 0
linear solve U 14
[OGL LOG] init_host_sparsity_pattern : 18 ms
[OGL LOG] matrix not stored update host matrix
[OGL LOG] update_host_mtx : 9 ms
[OGL LOG] matrix is not yet sorted, compute sorting idxs
[OGL LOG] compute_sort : 481 ms
[OGL LOG] matrix is not yet sorted, sorting host matrix
[OGL LOG] sort_host_mtx_sparsity_pattern : 12 ms
[OGL LOG] sort_host_mtx : 7 ms
[OGL LOG] init_preconditioner : 0 ms
[OGL LOG] solve : 327 ms
noneompGKOBiCGStab:  Solving for p, Initial residual = 1, Final residual = 8.58855e-05, No Iterations 253
linear solve p 871
time step continuity errors : sum local = 1.25022e-07, global = -1.80073e-20, cumulative = -1.80073e-20
[OGL LOG] init_host_sparsity_pattern : 18 ms
[OGL LOG] matrix not stored update host matrix
[OGL LOG] update_host_mtx : 9 ms
[OGL LOG] matrix is not yet sorted, sorting host matrix
[OGL LOG] sort_host_mtx_sparsity_pattern : 12 ms
[OGL LOG] sort_host_mtx : 6 ms
[OGL LOG] init_preconditioner : 0 ms
[OGL LOG] solve : 369 ms
noneompGKOBiCGStab:  Solving for p, Initial residual = 0.598499, Final residual = 8.91669e-05, No Iterations 251
linear solve p 424
time step continuity errors : sum local = 1.68257e-06, global = 1.40695e-20, cumulative = -3.93779e-21
ExecutionTime = 7.96 s  ClockTime = 2 s

Time = 0.002

Courant Number mean: 0.0210269 max: 0.237017
nonePBiCGStab:  Solving for Ux, Initial residual = 0.177813, Final residual = 0.00672527, No Iterations 5
nonePBiCGStab:  Solving for Uy, Initial residual = 0.294122, Final residual = 0.00798221, No Iterations 5
nonePBiCGStab:  Solving for Uz, Initial residual = 0.933819, Final residual = 0.0359685, No Iterations 5
linear solve U 32
[OGL LOG] init_host_sparsity_pattern : 18 ms
[OGL LOG] matrix not stored update host matrix
[OGL LOG] update_host_mtx : 10 ms
[OGL LOG] matrix is not yet sorted, sorting host matrix
[OGL LOG] sort_host_mtx_sparsity_pattern : 13 ms
[OGL LOG] sort_host_mtx : 6 ms
[OGL LOG] init_preconditioner : 0 ms
[OGL LOG] solve : 351 ms
noneompGKOBiCGStab:  Solving for p, Initial residual = 0.458775, Final residual = 9.07734e-05, No Iterations 234
linear solve p 412
time step continuity errors : sum local = 3.0681e-07, global = -8.13015e-21, cumulative = -1.20679e-20
[OGL LOG] init_host_sparsity_pattern : 18 ms
[OGL LOG] matrix not stored update host matrix
[OGL LOG] update_host_mtx : 9 ms
[OGL LOG] matrix is not yet sorted, sorting host matrix
[OGL LOG] sort_host_mtx_sparsity_pattern : 15 ms
[OGL LOG] sort_host_mtx : 6 ms
[OGL LOG] init_preconditioner : 0 ms
[OGL LOG] solve : 335 ms
noneompGKOBiCGStab:  Solving for p, Initial residual = 0.36143, Final residual = 7.63079e-05, No Iterations 233
linear solve p 396
time step continuity errors : sum local = 5.0956e-07, global = 7.80998e-21, cumulative = -4.25796e-21
ExecutionTime = 15.14 s  ClockTime = 3 s

Time = 0.003

Courant Number mean: 0.0321013 max: 0.305901
nonePBiCGStab:  Solving for Ux, Initial residual = 0.0656025, Final residual = 0.00127988, No Iterations 5
nonePBiCGStab:  Solving for Uy, Initial residual = 0.108218, Final residual = 0.00178031, No Iterations 5
nonePBiCGStab:  Solving for Uz, Initial residual = 0.204605, Final residual = 0.0105982, No Iterations 5
linear solve U 29
[OGL LOG] init_host_sparsity_pattern : 18 ms
[OGL LOG] matrix not stored update host matrix
[OGL LOG] update_host_mtx : 10 ms
[OGL LOG] matrix is not yet sorted, sorting host matrix
[OGL LOG] sort_host_mtx_sparsity_pattern : 13 ms
[OGL LOG] sort_host_mtx : 6 ms
[OGL LOG] init_preconditioner : 0 ms
[OGL LOG] solve : 338 ms
noneompGKOBiCGStab:  Solving for p, Initial residual = 0.165589, Final residual = 9.21624e-05, No Iterations 234
linear solve p 395
time step continuity errors : sum local = 1.71486e-07, global = 1.86123e-20, cumulative = 1.43543e-20
[OGL LOG] init_host_sparsity_pattern : 18 ms
[OGL LOG] matrix not stored update host matrix
[OGL LOG] update_host_mtx : 8 ms
[OGL LOG] matrix is not yet sorted, sorting host matrix
[OGL LOG] sort_host_mtx_sparsity_pattern : 13 ms
[OGL LOG] sort_host_mtx : 6 ms
[OGL LOG] init_preconditioner : 0 ms
[OGL LOG] solve : 315 ms
noneompGKOBiCGStab:  Solving for p, Initial residual = 0.129596, Final residual = 9.96893e-05, No Iterations 218
linear solve p 370
time step continuity errors : sum local = 2.92026e-07, global = 2.54475e-20, cumulative = 3.98019e-20
ExecutionTime = 21.93 s  ClockTime = 4 s

Time = 0.004

Courant Number mean: 0.0386743 max: 0.32755
nonePBiCGStab:  Solving for Ux, Initial residual = 0.038926, Final residual = 0.000617325, No Iterations 5
nonePBiCGStab:  Solving for Uy, Initial residual = 0.0670008, Final residual = 0.000804301, No Iterations 5
nonePBiCGStab:  Solving for Uz, Initial residual = 0.132315, Final residual = 0.00457966, No Iterations 5
linear solve U 28
[OGL LOG] init_host_sparsity_pattern : 19 ms
[OGL LOG] matrix not stored update host matrix
[OGL LOG] update_host_mtx : 10 ms
[OGL LOG] matrix is not yet sorted, sorting host matrix
[OGL LOG] sort_host_mtx_sparsity_pattern : 13 ms
[OGL LOG] sort_host_mtx : 6 ms
[OGL LOG] init_preconditioner : 0 ms
[OGL LOG] solve : 317 ms
noneompGKOBiCGStab:  Solving for p, Initial residual = 0.0865346, Final residual = 9.75269e-05, No Iterations 221
linear solve p 375
time step continuity errors : sum local = 1.33385e-07, global = 2.21467e-21, cumulative = 4.20165e-20
[OGL LOG] init_host_sparsity_pattern : 18 ms
[OGL LOG] matrix not stored update host matrix
[OGL LOG] update_host_mtx : 10 ms
[OGL LOG] matrix is not yet sorted, sorting host matrix
[OGL LOG] sort_host_mtx_sparsity_pattern : 13 ms
[OGL LOG] sort_host_mtx : 6 ms
[OGL LOG] init_preconditioner : 0 ms
[OGL LOG] solve : 295 ms
noneompGKOBiCGStab:  Solving for p, Initial residual = 0.0667027, Final residual = 9.66717e-05, No Iterations 214
linear solve p 354
time step continuity errors : sum local = 1.73943e-07, global = -5.24471e-21, cumulative = 3.67718e-20
ExecutionTime = 28.33 s  ClockTime = 4 s

Time = 0.005

Courant Number mean: 0.0434769 max: 0.337861
nonePBiCGStab:  Solving for Ux, Initial residual = 0.0269388, Final residual = 0.000367927, No Iterations 5
nonePBiCGStab:  Solving for Uy, Initial residual = 0.0468199, Final residual = 0.000532609, No Iterations 5
nonePBiCGStab:  Solving for Uz, Initial residual = 0.0950144, Final residual = 0.00290419, No Iterations 5
linear solve U 28
[OGL LOG] init_host_sparsity_pattern : 19 ms
[OGL LOG] matrix not stored update host matrix
[OGL LOG] update_host_mtx : 10 ms
[OGL LOG] matrix is not yet sorted, sorting host matrix
[OGL LOG] sort_host_mtx_sparsity_pattern : 14 ms
[OGL LOG] sort_host_mtx : 6 ms
[OGL LOG] init_preconditioner : 0 ms
[OGL LOG] solve : 280 ms
noneompGKOBiCGStab:  Solving for p, Initial residual = 0.0449749, Final residual = 8.85579e-05, No Iterations 202
linear solve p 340
time step continuity errors : sum local = 1.03829e-07, global = -2.94032e-20, cumulative = 7.36861e-21
[OGL LOG] init_host_sparsity_pattern : 18 ms
[OGL LOG] matrix not stored update host matrix
[OGL LOG] update_host_mtx : 10 ms
[OGL LOG] matrix is not yet sorted, sorting host matrix
[OGL LOG] sort_host_mtx_sparsity_pattern : 13 ms
[OGL LOG] sort_host_mtx : 6 ms
[OGL LOG] init_preconditioner : 0 ms
[OGL LOG] solve : 111 ms
noneompGKOBiCGStab:  Solving for p, Initial residual = 0.0359353, Final residual = 7.07547e-05, No Iterations 79
linear solve p 168
time step continuity errors : sum local = 1.06599e-07, global = -2.61323e-20, cumulative = -1.87637e-20
ExecutionTime = 32.53 s  ClockTime = 5 s

Time = 0.006

Courant Number mean: 0.0471958 max: 0.344026
nonePBiCGStab:  Solving for Ux, Initial residual = 0.0204784, Final residual = 0.000215907, No Iterations 5
nonePBiCGStab:  Solving for Uy, Initial residual = 0.0356474, Final residual = 0.000250112, No Iterations 5
nonePBiCGStab:  Solving for Uz, Initial residual = 0.070798, Final residual = 0.00182222, No Iterations 5
linear solve U 28
[OGL LOG] init_host_sparsity_pattern : 19 ms
[OGL LOG] matrix not stored update host matrix
[OGL LOG] update_host_mtx : 10 ms
[OGL LOG] matrix is not yet sorted, sorting host matrix
[OGL LOG] sort_host_mtx_sparsity_pattern : 13 ms
[OGL LOG] sort_host_mtx : 6 ms
[OGL LOG] init_preconditioner : 0 ms
[OGL LOG] solve : 295 ms
noneompGKOBiCGStab:  Solving for p, Initial residual = 0.0305138, Final residual = 5.47227e-05, No Iterations 212
linear solve p 353
time step continuity errors : sum local = 6.05952e-08, global = -1.24822e-20, cumulative = -3.12459e-20
[OGL LOG] init_host_sparsity_pattern : 19 ms
[OGL LOG] matrix not stored update host matrix
[OGL LOG] update_host_mtx : 10 ms
[OGL LOG] matrix is not yet sorted, sorting host matrix
[OGL LOG] sort_host_mtx_sparsity_pattern : 14 ms
[OGL LOG] sort_host_mtx : 6 ms
[OGL LOG] init_preconditioner : 0 ms
[OGL LOG] solve : 111 ms
noneompGKOBiCGStab:  Solving for p, Initial residual = 0.0248183, Final residual = 9.05924e-05, No Iterations 79
linear solve p 170
time step continuity errors : sum local = 1.19812e-07, global = 5.06474e-21, cumulative = -2.61812e-20
ExecutionTime = 36.86 s  ClockTime = 6 s

Time = 0.007

Courant Number mean: 0.0502287 max: 0.348253
nonePBiCGStab:  Solving for Ux, Initial residual = 0.0162008, Final residual = 0.00015781, No Iterations 5
nonePBiCGStab:  Solving for Uy, Initial residual = 0.0286834, Final residual = 0.000222745, No Iterations 5
nonePBiCGStab:  Solving for Uz, Initial residual = 0.0566521, Final residual = 0.0013852, No Iterations 5
linear solve U 29
[OGL LOG] init_host_sparsity_pattern : 19 ms
[OGL LOG] matrix not stored update host matrix
[OGL LOG] update_host_mtx : 10 ms
[OGL LOG] matrix is not yet sorted, sorting host matrix
[OGL LOG] sort_host_mtx_sparsity_pattern : 13 ms
[OGL LOG] sort_host_mtx : 6 ms
[OGL LOG] init_preconditioner : 0 ms
[OGL LOG] solve : 243 ms
noneompGKOBiCGStab:  Solving for p, Initial residual = 0.0237524, Final residual = 9.96088e-05, No Iterations 174
linear solve p 301
time step continuity errors : sum local = 1.40316e-07, global = -1.87157e-20, cumulative = -4.48969e-20
[OGL LOG] init_host_sparsity_pattern : 18 ms
[OGL LOG] matrix not stored update host matrix
[OGL LOG] update_host_mtx : 10 ms
[OGL LOG] matrix is not yet sorted, sorting host matrix
[OGL LOG] sort_host_mtx_sparsity_pattern : 13 ms
[OGL LOG] sort_host_mtx : 6 ms
[OGL LOG] init_preconditioner : 0 ms
[OGL LOG] solve : 117 ms
noneompGKOBiCGStab:  Solving for p, Initial residual = 0.0196732, Final residual = 9.25115e-05, No Iterations 83
linear solve p 174
time step continuity errors : sum local = 9.80863e-08, global = -1.46923e-21, cumulative = -4.63662e-20
ExecutionTime = 40.74 s  ClockTime = 6 s

Time = 0.008

Courant Number mean: 0.0527978 max: 0.351366
nonePBiCGStab:  Solving for Ux, Initial residual = 0.0133657, Final residual = 9.90766e-05, No Iterations 5
nonePBiCGStab:  Solving for Uy, Initial residual = 0.0235472, Final residual = 0.000119781, No Iterations 5
nonePBiCGStab:  Solving for Uz, Initial residual = 0.0466845, Final residual = 0.000831232, No Iterations 5
linear solve U 28
[OGL LOG] init_host_sparsity_pattern : 19 ms
[OGL LOG] matrix not stored update host matrix
[OGL LOG] update_host_mtx : 10 ms
[OGL LOG] matrix is not yet sorted, sorting host matrix
[OGL LOG] sort_host_mtx_sparsity_pattern : 14 ms
[OGL LOG] sort_host_mtx : 6 ms
[OGL LOG] init_preconditioner : 0 ms
[OGL LOG] solve : 113 ms
noneompGKOBiCGStab:  Solving for p, Initial residual = 0.018518, Final residual = 8.95836e-05, No Iterations 81
linear solve p 171
time step continuity errors : sum local = 6.68982e-08, global = 1.5852e-20, cumulative = -3.05142e-20
[OGL LOG] init_host_sparsity_pattern : 18 ms
[OGL LOG] matrix not stored update host matrix
[OGL LOG] update_host_mtx : 10 ms
[OGL LOG] matrix is not yet sorted, sorting host matrix
[OGL LOG] sort_host_mtx_sparsity_pattern : 13 ms
[OGL LOG] sort_host_mtx : 6 ms
[OGL LOG] init_preconditioner : 0 ms
[OGL LOG] solve : 112 ms
noneompGKOBiCGStab:  Solving for p, Initial residual = 0.0155552, Final residual = 9.01009e-05, No Iterations 80
linear solve p 170
time step continuity errors : sum local = 7.38128e-08, global = -2.87606e-21, cumulative = -3.33902e-20
ExecutionTime = 43.27 s  ClockTime = 7 s

Time = 0.009

Courant Number mean: 0.0549851 max: 0.353778
nonePBiCGStab:  Solving for Ux, Initial residual = 0.0111561, Final residual = 7.58232e-05, No Iterations 5
nonePBiCGStab:  Solving for Uy, Initial residual = 0.0199917, Final residual = 9.69286e-05, No Iterations 5
nonePBiCGStab:  Solving for Uz, Initial residual = 0.0384077, Final residual = 0.000485261, No Iterations 5
linear solve U 28
[OGL LOG] init_host_sparsity_pattern : 19 ms
[OGL LOG] matrix not stored update host matrix
[OGL LOG] update_host_mtx : 10 ms
[OGL LOG] matrix is not yet sorted, sorting host matrix
[OGL LOG] sort_host_mtx_sparsity_pattern : 13 ms
[OGL LOG] sort_host_mtx : 6 ms
[OGL LOG] init_preconditioner : 0 ms
[OGL LOG] solve : 109 ms
noneompGKOBiCGStab:  Solving for p, Initial residual = 0.0157786, Final residual = 9.97601e-05, No Iterations 78
linear solve p 167
time step continuity errors : sum local = 9.43177e-08, global = -1.34441e-20, cumulative = -4.68343e-20
[OGL LOG] init_host_sparsity_pattern : 19 ms
[OGL LOG] matrix not stored update host matrix
[OGL LOG] update_host_mtx : 10 ms
[OGL LOG] matrix is not yet sorted, sorting host matrix
[OGL LOG] sort_host_mtx_sparsity_pattern : 14 ms
[OGL LOG] sort_host_mtx : 6 ms
[OGL LOG] init_preconditioner : 0 ms
[OGL LOG] solve : 107 ms
noneompGKOBiCGStab:  Solving for p, Initial residual = 0.0133605, Final residual = 8.90656e-05, No Iterations 76
linear solve p 166
time step continuity errors : sum local = 1.00275e-07, global = 3.96495e-20, cumulative = -7.18483e-21
ExecutionTime = 45.72 s  ClockTime = 7 s

Time = 0.01

Courant Number mean: 0.0568669 max: 0.355706
nonePBiCGStab:  Solving for Ux, Initial residual = 0.00951852, Final residual = 4.76286e-05, No Iterations 5
nonePBiCGStab:  Solving for Uy, Initial residual = 0.0171238, Final residual = 7.09175e-05, No Iterations 5
nonePBiCGStab:  Solving for Uz, Initial residual = 0.033021, Final residual = 0.000274205, No Iterations 5
linear solve U 32
[OGL LOG] init_host_sparsity_pattern : 19 ms
[OGL LOG] matrix not stored update host matrix
[OGL LOG] update_host_mtx : 10 ms
[OGL LOG] matrix is not yet sorted, sorting host matrix
[OGL LOG] sort_host_mtx_sparsity_pattern : 14 ms
[OGL LOG] sort_host_mtx : 6 ms
[OGL LOG] init_preconditioner : 0 ms
[OGL LOG] solve : 107 ms
noneompGKOBiCGStab:  Solving for p, Initial residual = 0.0132019, Final residual = 9.87639e-05, No Iterations 76
linear solve p 166
time step continuity errors : sum local = 7.83955e-08, global = 1.34066e-20, cumulative = 6.22175e-21
[OGL LOG] init_host_sparsity_pattern : 18 ms
[OGL LOG] matrix not stored update host matrix
[OGL LOG] update_host_mtx : 10 ms
[OGL LOG] matrix is not yet sorted, sorting host matrix
[OGL LOG] sort_host_mtx_sparsity_pattern : 13 ms
[OGL LOG] sort_host_mtx : 6 ms
[OGL LOG] init_preconditioner : 0 ms
[OGL LOG] solve : 108 ms
noneompGKOBiCGStab:  Solving for p, Initial residual = 0.0112397, Final residual = 9.78448e-05, No Iterations 77
linear solve p 166
time step continuity errors : sum local = 7.78371e-08, global = -2.16523e-20, cumulative = -1.54305e-20
ExecutionTime = 48.16 s  ClockTime = 7 s

End

