/*---------------------------------------------------------------------------*\
  =========                 |
  \\      /  F ield         | OpenFOAM: The Open Source CFD Toolbox
   \\    /   O peration     | Website:  https://openfoam.org
    \\  /    A nd           | Version:  8
     \\/     M anipulation  |
\*---------------------------------------------------------------------------*/
Build  : 8-40a5a48f630f
Exec   : icoFoam
Date   : Jul 28 2021
Time   : 02:29:46
Host   : "uc2n450.localdomain"
PID    : 361095
I/O    : uncollated
Case   : /pfs/data5/home/kit/scc/nq7776/code/OBR/lidDrivenCavity3D/Variation_mesh/40/Variation_matrix_solver/BiCGStab_NoPrecond_OMP/base
nProcs : 1
sigFpe : Enabling floating point exception trapping (FOAM_SIGFPE).
fileModificationChecking : Monitoring run-time modified files using timeStampMaster (fileModificationSkew 10)
allowSystemOperations : Allowing user-supplied system call operations

// * * * * * * * * * * * * * * * * * * * * * * * * * * * * * * * * * * * * * //
Create time

Create mesh for time = 0

Reading transportProperties

Reading field p

Reading field U

Reading/calculating face flux field phi


Starting time loop

Time = 0.001

Courant Number mean: 0 max: 0
nonePBiCGStab:  Solving for Ux, Initial residual = 1, Final residual = 0.0197517, No Iterations 5
nonePBiCGStab:  Solving for Uy, Initial residual = 0, Final residual = 0, No Iterations 0
nonePBiCGStab:  Solving for Uz, Initial residual = 0, Final residual = 0, No Iterations 0
linear solve U 14
[OGL LOG] init_host_sparsity_pattern : 18 ms
[OGL LOG] matrix not stored update host matrix
[OGL LOG] update_host_mtx : 9 ms
[OGL LOG] matrix is not yet sorted, compute sorting idxs
[OGL LOG] compute_sort : 481 ms
[OGL LOG] matrix is not yet sorted, sorting host matrix
[OGL LOG] sort_host_mtx_sparsity_pattern : 12 ms
[OGL LOG] sort_host_mtx : 7 ms
[OGL LOG] init_preconditioner : 0 ms
[OGL LOG] solve : 46406 ms
noneompGKOBiCGStab:  Solving for p, Initial residual = 1, Final residual = 8.58855e-05, No Iterations 253
linear solve p 46989
time step continuity errors : sum local = 1.77717e-07, global = -1.80404e-20, cumulative = -1.80404e-20
[OGL LOG] init_host_sparsity_pattern : 18 ms
[OGL LOG] matrix not stored update host matrix
[OGL LOG] update_host_mtx : 9 ms
[OGL LOG] matrix is not yet sorted, sorting host matrix
[OGL LOG] sort_host_mtx_sparsity_pattern : 13 ms
[OGL LOG] sort_host_mtx : 6 ms
[OGL LOG] init_preconditioner : 0 ms
[OGL LOG] solve : 46189 ms
noneompGKOBiCGStab:  Solving for p, Initial residual = 0.598507, Final residual = 7.51669e-05, No Iterations 251
linear solve p 46261
time step continuity errors : sum local = 6.55692e-07, global = 4.5923e-21, cumulative = -1.34481e-20
ExecutionTime = 1329.04 s  ClockTime = 94 s

Time = 0.002

Courant Number mean: 0.0210265 max: 0.237017
nonePBiCGStab:  Solving for Ux, Initial residual = 0.177817, Final residual = 0.00671956, No Iterations 5
nonePBiCGStab:  Solving for Uy, Initial residual = 0.294124, Final residual = 0.00777703, No Iterations 5
nonePBiCGStab:  Solving for Uz, Initial residual = 0.941664, Final residual = 0.0381272, No Iterations 5
linear solve U 27
[OGL LOG] init_host_sparsity_pattern : 17 ms
[OGL LOG] matrix not stored update host matrix
[OGL LOG] update_host_mtx : 9 ms
[OGL LOG] matrix is not yet sorted, sorting host matrix
[OGL LOG] sort_host_mtx_sparsity_pattern : 13 ms
[OGL LOG] sort_host_mtx : 6 ms
[OGL LOG] init_preconditioner : 0 ms
[OGL LOG] solve : 42792 ms
noneompGKOBiCGStab:  Solving for p, Initial residual = 0.458197, Final residual = 7.93402e-05, No Iterations 233
linear solve p 42861
time step continuity errors : sum local = 1.118e-06, global = 8.83393e-21, cumulative = -4.61417e-21
[OGL LOG] init_host_sparsity_pattern : 18 ms
[OGL LOG] matrix not stored update host matrix
[OGL LOG] update_host_mtx : 9 ms
[OGL LOG] matrix is not yet sorted, sorting host matrix
[OGL LOG] sort_host_mtx_sparsity_pattern : 13 ms
[OGL LOG] sort_host_mtx : 6 ms
[OGL LOG] init_preconditioner : 0 ms
[OGL LOG] solve : 42940 ms
noneompGKOBiCGStab:  Solving for p, Initial residual = 0.361985, Final residual = 9.61989e-05, No Iterations 234
linear solve p 43013
time step continuity errors : sum local = 3.53466e-07, global = -1.52742e-20, cumulative = -1.98884e-20
ExecutionTime = 2552.06 s  ClockTime = 180 s

Time = 0.003

Courant Number mean: 0.0321035 max: 0.305907
nonePBiCGStab:  Solving for Ux, Initial residual = 0.0655695, Final residual = 0.00129159, No Iterations 5
nonePBiCGStab:  Solving for Uy, Initial residual = 0.108321, Final residual = 0.0019836, No Iterations 5
nonePBiCGStab:  Solving for Uz, Initial residual = 0.217721, Final residual = 0.0112422, No Iterations 5
linear solve U 27
[OGL LOG] init_host_sparsity_pattern : 16 ms
[OGL LOG] matrix not stored update host matrix
[OGL LOG] update_host_mtx : 9 ms
[OGL LOG] matrix is not yet sorted, sorting host matrix
[OGL LOG] sort_host_mtx_sparsity_pattern : 13 ms
[OGL LOG] sort_host_mtx : 6 ms
[OGL LOG] init_preconditioner : 0 ms
[OGL LOG] solve : 40792 ms
noneompGKOBiCGStab:  Solving for p, Initial residual = 0.165704, Final residual = 9.22169e-05, No Iterations 222
linear solve p 40863
time step continuity errors : sum local = 1.45735e-07, global = 1.79795e-20, cumulative = -1.90885e-21
[OGL LOG] init_host_sparsity_pattern : 17 ms
[OGL LOG] matrix not stored update host matrix
[OGL LOG] update_host_mtx : 9 ms
[OGL LOG] matrix is not yet sorted, sorting host matrix
[OGL LOG] sort_host_mtx_sparsity_pattern : 13 ms
[OGL LOG] sort_host_mtx : 6 ms
[OGL LOG] init_preconditioner : 0 ms
[OGL LOG] solve : 2724 ms
noneompGKOBiCGStab:  Solving for p, Initial residual = 0.129444, Final residual = 9.9342e-05, No Iterations 208
linear solve p 2789
time step continuity errors : sum local = 1.65715e-07, global = -1.08238e-20, cumulative = -1.27326e-20
ExecutionTime = 3181.85 s  ClockTime = 223 s

Time = 0.004

Courant Number mean: 0.038675 max: 0.327549
nonePBiCGStab:  Solving for Ux, Initial residual = 0.0389627, Final residual = 0.00062011, No Iterations 5
nonePBiCGStab:  Solving for Uy, Initial residual = 0.0669789, Final residual = 0.000656182, No Iterations 5
nonePBiCGStab:  Solving for Uz, Initial residual = 0.137933, Final residual = 0.00512768, No Iterations 5
linear solve U 27
[OGL LOG] init_host_sparsity_pattern : 17 ms
[OGL LOG] matrix not stored update host matrix
[OGL LOG] update_host_mtx : 9 ms
[OGL LOG] matrix is not yet sorted, sorting host matrix
[OGL LOG] sort_host_mtx_sparsity_pattern : 14 ms
[OGL LOG] sort_host_mtx : 6 ms
[OGL LOG] init_preconditioner : 0 ms
[OGL LOG] solve : 38352 ms
noneompGKOBiCGStab:  Solving for p, Initial residual = 0.086817, Final residual = 9.62645e-05, No Iterations 209
linear solve p 38424
time step continuity errors : sum local = 1.7592e-07, global = -1.37979e-20, cumulative = -2.65305e-20
[OGL LOG] init_host_sparsity_pattern : 18 ms
[OGL LOG] matrix not stored update host matrix
[OGL LOG] update_host_mtx : 9 ms
[OGL LOG] matrix is not yet sorted, sorting host matrix
[OGL LOG] sort_host_mtx_sparsity_pattern : 13 ms
[OGL LOG] sort_host_mtx : 6 ms
[OGL LOG] init_preconditioner : 0 ms
[OGL LOG] solve : 39375 ms
noneompGKOBiCGStab:  Solving for p, Initial residual = 0.067021, Final residual = 9.99805e-05, No Iterations 215
linear solve p 39445
time step continuity errors : sum local = 1.12727e-07, global = -1.51281e-20, cumulative = -4.16586e-20
ExecutionTime = 4291.99 s  ClockTime = 301 s

Time = 0.005

Courant Number mean: 0.0434786 max: 0.337866
nonePBiCGStab:  Solving for Ux, Initial residual = 0.0269156, Final residual = 0.000368739, No Iterations 5
nonePBiCGStab:  Solving for Uy, Initial residual = 0.046926, Final residual = 0.000527115, No Iterations 5
nonePBiCGStab:  Solving for Uz, Initial residual = 0.0993796, Final residual = 0.00327991, No Iterations 5
linear solve U 27
[OGL LOG] init_host_sparsity_pattern : 17 ms
[OGL LOG] matrix not stored update host matrix
[OGL LOG] update_host_mtx : 9 ms
[OGL LOG] matrix is not yet sorted, sorting host matrix
[OGL LOG] sort_host_mtx_sparsity_pattern : 13 ms
[OGL LOG] sort_host_mtx : 6 ms
[OGL LOG] init_preconditioner : 0 ms
[OGL LOG] solve : 39460 ms
noneompGKOBiCGStab:  Solving for p, Initial residual = 0.0454551, Final residual = 9.75377e-05, No Iterations 215
linear solve p 39528
time step continuity errors : sum local = 1.22209e-07, global = 3.02648e-20, cumulative = -1.13938e-20
[OGL LOG] init_host_sparsity_pattern : 17 ms
[OGL LOG] matrix not stored update host matrix
[OGL LOG] update_host_mtx : 9 ms
[OGL LOG] matrix is not yet sorted, sorting host matrix
[OGL LOG] sort_host_mtx_sparsity_pattern : 12 ms
[OGL LOG] sort_host_mtx : 6 ms
[OGL LOG] init_preconditioner : 0 ms
[OGL LOG] solve : 34085 ms
noneompGKOBiCGStab:  Solving for p, Initial residual = 0.0364513, Final residual = 9.52093e-05, No Iterations 186
linear solve p 34152
time step continuity errors : sum local = 1.1669e-07, global = 5.02947e-21, cumulative = -6.36431e-21
ExecutionTime = 5323.83 s  ClockTime = 375 s

Time = 0.006

Courant Number mean: 0.0471981 max: 0.344025
nonePBiCGStab:  Solving for Ux, Initial residual = 0.0205679, Final residual = 0.000225232, No Iterations 5
nonePBiCGStab:  Solving for Uy, Initial residual = 0.0355499, Final residual = 0.000285328, No Iterations 5
nonePBiCGStab:  Solving for Uz, Initial residual = 0.0725463, Final residual = 0.00215111, No Iterations 5
linear solve U 27
[OGL LOG] init_host_sparsity_pattern : 17 ms
[OGL LOG] matrix not stored update host matrix
[OGL LOG] update_host_mtx : 9 ms
[OGL LOG] matrix is not yet sorted, sorting host matrix
[OGL LOG] sort_host_mtx_sparsity_pattern : 13 ms
[OGL LOG] sort_host_mtx : 6 ms
[OGL LOG] init_preconditioner : 0 ms
[OGL LOG] solve : 39562 ms
noneompGKOBiCGStab:  Solving for p, Initial residual = 0.0306925, Final residual = 6.85132e-05, No Iterations 216
linear solve p 39631
time step continuity errors : sum local = 5.40063e-07, global = -1.75209e-20, cumulative = -2.38852e-20
[OGL LOG] init_host_sparsity_pattern : 17 ms
[OGL LOG] matrix not stored update host matrix
[OGL LOG] update_host_mtx : 9 ms
[OGL LOG] matrix is not yet sorted, sorting host matrix
[OGL LOG] sort_host_mtx_sparsity_pattern : 13 ms
[OGL LOG] sort_host_mtx : 6 ms
[OGL LOG] init_preconditioner : 0 ms
[OGL LOG] solve : 38125 ms
noneompGKOBiCGStab:  Solving for p, Initial residual = 0.0257176, Final residual = 8.44964e-05, No Iterations 208
linear solve p 38192
time step continuity errors : sum local = 1.18509e-07, global = -2.84731e-21, cumulative = -2.67325e-20
ExecutionTime = 6486.94 s  ClockTime = 453 s

Time = 0.007

Courant Number mean: 0.0502301 max: 0.348255
nonePBiCGStab:  Solving for Ux, Initial residual = 0.0162501, Final residual = 0.000164551, No Iterations 5
nonePBiCGStab:  Solving for Uy, Initial residual = 0.0286474, Final residual = 0.000258757, No Iterations 5
nonePBiCGStab:  Solving for Uz, Initial residual = 0.0624172, Final residual = 0.00175229, No Iterations 5
linear solve U 27
[OGL LOG] init_host_sparsity_pattern : 17 ms
[OGL LOG] matrix not stored update host matrix
[OGL LOG] update_host_mtx : 9 ms
[OGL LOG] matrix is not yet sorted, sorting host matrix
[OGL LOG] sort_host_mtx_sparsity_pattern : 12 ms
[OGL LOG] sort_host_mtx : 6 ms
[OGL LOG] init_preconditioner : 0 ms
[OGL LOG] solve : 22688 ms
noneompGKOBiCGStab:  Solving for p, Initial residual = 0.0238327, Final residual = 8.51429e-05, No Iterations 184
linear solve p 22747
time step continuity errors : sum local = 1.03209e-07, global = 1.84114e-20, cumulative = -8.32113e-21
[OGL LOG] init_host_sparsity_pattern : 17 ms
[OGL LOG] matrix not stored update host matrix
[OGL LOG] update_host_mtx : 9 ms
[OGL LOG] matrix is not yet sorted, sorting host matrix
[OGL LOG] sort_host_mtx_sparsity_pattern : 13 ms
[OGL LOG] sort_host_mtx : 6 ms
[OGL LOG] init_preconditioner : 0 ms
[OGL LOG] solve : 103 ms
noneompGKOBiCGStab:  Solving for p, Initial residual = 0.0197213, Final residual = 9.79519e-05, No Iterations 80
linear solve p 158
time step continuity errors : sum local = 6.56096e-08, global = 1.02542e-21, cumulative = -7.29571e-21
ExecutionTime = 6828.63 s  ClockTime = 476 s

Time = 0.008

Courant Number mean: 0.0527989 max: 0.351375
nonePBiCGStab:  Solving for Ux, Initial residual = 0.0133775, Final residual = 0.000109102, No Iterations 5
nonePBiCGStab:  Solving for Uy, Initial residual = 0.0235477, Final residual = 0.000136169, No Iterations 5
nonePBiCGStab:  Solving for Uz, Initial residual = 0.0486184, Final residual = 0.0010933, No Iterations 5
linear solve U 27
[OGL LOG] init_host_sparsity_pattern : 17 ms
[OGL LOG] matrix not stored update host matrix
[OGL LOG] update_host_mtx : 9 ms
[OGL LOG] matrix is not yet sorted, sorting host matrix
[OGL LOG] sort_host_mtx_sparsity_pattern : 12 ms
[OGL LOG] sort_host_mtx : 6 ms
[OGL LOG] init_preconditioner : 0 ms
[OGL LOG] solve : 109 ms
noneompGKOBiCGStab:  Solving for p, Initial residual = 0.018784, Final residual = 9.91691e-05, No Iterations 85
linear solve p 163
time step continuity errors : sum local = 1.24805e-07, global = 1.99989e-20, cumulative = 1.27032e-20
[OGL LOG] init_host_sparsity_pattern : 17 ms
[OGL LOG] matrix not stored update host matrix
[OGL LOG] update_host_mtx : 9 ms
[OGL LOG] matrix is not yet sorted, sorting host matrix
[OGL LOG] sort_host_mtx_sparsity_pattern : 12 ms
[OGL LOG] sort_host_mtx : 6 ms
[OGL LOG] init_preconditioner : 0 ms
[OGL LOG] solve : 104 ms
noneompGKOBiCGStab:  Solving for p, Initial residual = 0.0157381, Final residual = 7.71328e-05, No Iterations 81
linear solve p 158
time step continuity errors : sum local = 1.03394e-07, global = -1.97766e-21, cumulative = 1.07255e-20
ExecutionTime = 6832.4 s  ClockTime = 476 s

Time = 0.009

Courant Number mean: 0.054986 max: 0.353779
nonePBiCGStab:  Solving for Ux, Initial residual = 0.0111538, Final residual = 7.96227e-05, No Iterations 5
nonePBiCGStab:  Solving for Uy, Initial residual = 0.0200242, Final residual = 0.00011465, No Iterations 5
nonePBiCGStab:  Solving for Uz, Initial residual = 0.0389679, Final residual = 0.000535307, No Iterations 5
linear solve U 27
[OGL LOG] init_host_sparsity_pattern : 17 ms
[OGL LOG] matrix not stored update host matrix
[OGL LOG] update_host_mtx : 9 ms
[OGL LOG] matrix is not yet sorted, sorting host matrix
[OGL LOG] sort_host_mtx_sparsity_pattern : 13 ms
[OGL LOG] sort_host_mtx : 6 ms
[OGL LOG] init_preconditioner : 0 ms
[OGL LOG] solve : 102 ms
noneompGKOBiCGStab:  Solving for p, Initial residual = 0.0159082, Final residual = 9.69218e-05, No Iterations 81
linear solve p 157
time step continuity errors : sum local = 6.60566e-08, global = -8.11744e-21, cumulative = 2.60808e-21
[OGL LOG] init_host_sparsity_pattern : 17 ms
[OGL LOG] matrix not stored update host matrix
[OGL LOG] update_host_mtx : 9 ms
[OGL LOG] matrix is not yet sorted, sorting host matrix
[OGL LOG] sort_host_mtx_sparsity_pattern : 12 ms
[OGL LOG] sort_host_mtx : 6 ms
[OGL LOG] init_preconditioner : 0 ms
[OGL LOG] solve : 100 ms
noneompGKOBiCGStab:  Solving for p, Initial residual = 0.0134552, Final residual = 9.67893e-05, No Iterations 78
linear solve p 154
time step continuity errors : sum local = 9.37612e-08, global = 1.94011e-20, cumulative = 2.20092e-20
ExecutionTime = 6836.02 s  ClockTime = 477 s

Time = 0.01

Courant Number mean: 0.0568678 max: 0.355706
nonePBiCGStab:  Solving for Ux, Initial residual = 0.00951901, Final residual = 5.23976e-05, No Iterations 5
nonePBiCGStab:  Solving for Uy, Initial residual = 0.017148, Final residual = 6.10892e-05, No Iterations 5
nonePBiCGStab:  Solving for Uz, Initial residual = 0.0339573, Final residual = 0.000316849, No Iterations 5
linear solve U 27
[OGL LOG] init_host_sparsity_pattern : 17 ms
[OGL LOG] matrix not stored update host matrix
[OGL LOG] update_host_mtx : 9 ms
[OGL LOG] matrix is not yet sorted, sorting host matrix
[OGL LOG] sort_host_mtx_sparsity_pattern : 13 ms
[OGL LOG] sort_host_mtx : 6 ms
[OGL LOG] init_preconditioner : 0 ms
[OGL LOG] solve : 104 ms
noneompGKOBiCGStab:  Solving for p, Initial residual = 0.0134809, Final residual = 9.61644e-05, No Iterations 82
linear solve p 159
time step continuity errors : sum local = 6.55802e-07, global = 3.84373e-21, cumulative = 2.58529e-20
[OGL LOG] init_host_sparsity_pattern : 17 ms
[OGL LOG] matrix not stored update host matrix
[OGL LOG] update_host_mtx : 9 ms
[OGL LOG] matrix is not yet sorted, sorting host matrix
[OGL LOG] sort_host_mtx_sparsity_pattern : 12 ms
[OGL LOG] sort_host_mtx : 6 ms
[OGL LOG] init_preconditioner : 0 ms
[OGL LOG] solve : 99 ms
noneompGKOBiCGStab:  Solving for p, Initial residual = 0.012367, Final residual = 8.579e-05, No Iterations 77
linear solve p 153
time step continuity errors : sum local = 1.1518e-07, global = 1.05254e-20, cumulative = 3.63784e-20
ExecutionTime = 6839.64 s  ClockTime = 477 s

End

