/*---------------------------------------------------------------------------*\
  =========                 |
  \\      /  F ield         | OpenFOAM: The Open Source CFD Toolbox
   \\    /   O peration     | Website:  https://openfoam.org
    \\  /    A nd           | Version:  8
     \\/     M anipulation  |
\*---------------------------------------------------------------------------*/
Build  : 8-40a5a48f630f
Exec   : icoFoam
Date   : Jul 27 2021
Time   : 21:37:33
Host   : "uc2n481.localdomain"
PID    : 94489
I/O    : uncollated
Case   : /pfs/data5/home/kit/scc/nq7776/code/OBR/lidDrivenCavity3D/Variation_mesh/15/Variation_matrix_solver/IR_NoPrecond_CUDA/base
nProcs : 1
sigFpe : Enabling floating point exception trapping (FOAM_SIGFPE).
fileModificationChecking : Monitoring run-time modified files using timeStampMaster (fileModificationSkew 10)
allowSystemOperations : Allowing user-supplied system call operations

// * * * * * * * * * * * * * * * * * * * * * * * * * * * * * * * * * * * * * //
Create time

Create mesh for time = 0

Reading transportProperties

Reading field p

Reading field U

Reading/calculating face flux field phi


Starting time loop

Time = 0.001

Courant Number mean: 0 max: 0
nonePBiCGStab:  Solving for Ux, Initial residual = 1, Final residual = 7.02612e-05, No Iterations 5
nonePBiCGStab:  Solving for Uy, Initial residual = 0, Final residual = 0, No Iterations 0
nonePBiCGStab:  Solving for Uz, Initial residual = 0, Final residual = 0, No Iterations 0
linear solve U 0
[OGL LOG] init_host_sparsity_pattern : 0 ms
[OGL LOG] matrix not stored update host matrix
[OGL LOG] update_host_mtx : 0 ms
[OGL LOG] matrix is not yet sorted, compute sorting idxs
[OGL LOG] compute_sort : 20 ms
[OGL LOG] matrix is not yet sorted, sorting host matrix
[OGL LOG] sort_host_mtx_sparsity_pattern : 0 ms
[OGL LOG] sort_host_mtx : 0 ms
[OGL LOG] init_preconditioner : 0 ms
[OGL LOG] solve : 19 ms
nonecudaGKOIR:  Solving for p, Initial residual = 1, Final residual = 5.13506e-06, No Iterations 3
linear solve p 803
time step continuity errors : sum local = 2.1743e-09, global = 7.24081e-22, cumulative = 7.24081e-22
[OGL LOG] init_host_sparsity_pattern : 0 ms
[OGL LOG] matrix not stored update host matrix
[OGL LOG] update_host_mtx : 0 ms
[OGL LOG] matrix is not yet sorted, sorting host matrix
[OGL LOG] sort_host_mtx_sparsity_pattern : 0 ms
[OGL LOG] sort_host_mtx : 0 ms
[OGL LOG] init_preconditioner : 0 ms
[OGL LOG] solve : 14 ms
nonecudaGKOIR:  Solving for p, Initial residual = 0.316796, Final residual = 7.82738e-05, No Iterations 2
linear solve p 17
time step continuity errors : sum local = 5.77642e-08, global = -3.0106e-21, cumulative = -2.28652e-21
ExecutionTime = 0.85 s  ClockTime = 1 s

Time = 0.002

Courant Number mean: 0.00559438 max: 0.0357001
nonePBiCGStab:  Solving for Ux, Initial residual = 0.242389, Final residual = 1.25093e-05, No Iterations 5
nonePBiCGStab:  Solving for Uy, Initial residual = 0.296219, Final residual = 8.52135e-06, No Iterations 5
nonePBiCGStab:  Solving for Uz, Initial residual = 0.685573, Final residual = 3.70101e-05, No Iterations 5
linear solve U 1
[OGL LOG] init_host_sparsity_pattern : 0 ms
[OGL LOG] matrix not stored update host matrix
[OGL LOG] update_host_mtx : 0 ms
[OGL LOG] matrix is not yet sorted, sorting host matrix
[OGL LOG] sort_host_mtx_sparsity_pattern : 0 ms
[OGL LOG] sort_host_mtx : 0 ms
[OGL LOG] init_preconditioner : 0 ms
[OGL LOG] solve : 14 ms
nonecudaGKOIR:  Solving for p, Initial residual = 0.156956, Final residual = 2.75013e-05, No Iterations 2
linear solve p 17
time step continuity errors : sum local = 1.97775e-08, global = 2.07323e-20, cumulative = 1.84457e-20
[OGL LOG] init_host_sparsity_pattern : 0 ms
[OGL LOG] matrix not stored update host matrix
[OGL LOG] update_host_mtx : 0 ms
[OGL LOG] matrix is not yet sorted, sorting host matrix
[OGL LOG] sort_host_mtx_sparsity_pattern : 0 ms
[OGL LOG] sort_host_mtx : 0 ms
[OGL LOG] init_preconditioner : 0 ms
[OGL LOG] solve : 14 ms
nonecudaGKOIR:  Solving for p, Initial residual = 0.0605615, Final residual = 9.18799e-06, No Iterations 2
linear solve p 17
time step continuity errors : sum local = 7.19123e-09, global = 1.74668e-21, cumulative = 2.01924e-20
ExecutionTime = 0.89 s  ClockTime = 1 s

Time = 0.003

Courant Number mean: 0.00940317 max: 0.0587296
nonePBiCGStab:  Solving for Ux, Initial residual = 0.117976, Final residual = 4.35385e-06, No Iterations 5
nonePBiCGStab:  Solving for Uy, Initial residual = 0.148711, Final residual = 3.24262e-06, No Iterations 5
nonePBiCGStab:  Solving for Uz, Initial residual = 0.319294, Final residual = 9.70475e-06, No Iterations 5
linear solve U 1
[OGL LOG] init_host_sparsity_pattern : 0 ms
[OGL LOG] matrix not stored update host matrix
[OGL LOG] update_host_mtx : 0 ms
[OGL LOG] matrix is not yet sorted, sorting host matrix
[OGL LOG] sort_host_mtx_sparsity_pattern : 0 ms
[OGL LOG] sort_host_mtx : 0 ms
[OGL LOG] init_preconditioner : 0 ms
[OGL LOG] solve : 14 ms
nonecudaGKOIR:  Solving for p, Initial residual = 0.0758508, Final residual = 1.52307e-05, No Iterations 2
linear solve p 17
time step continuity errors : sum local = 1.22607e-08, global = -1.18772e-20, cumulative = 8.3152e-21
[OGL LOG] init_host_sparsity_pattern : 0 ms
[OGL LOG] matrix not stored update host matrix
[OGL LOG] update_host_mtx : 0 ms
[OGL LOG] matrix is not yet sorted, sorting host matrix
[OGL LOG] sort_host_mtx_sparsity_pattern : 0 ms
[OGL LOG] sort_host_mtx : 0 ms
[OGL LOG] init_preconditioner : 0 ms
[OGL LOG] solve : 14 ms
nonecudaGKOIR:  Solving for p, Initial residual = 0.0340355, Final residual = 5.64748e-06, No Iterations 2
linear solve p 17
time step continuity errors : sum local = 4.73663e-09, global = 1.83076e-21, cumulative = 1.0146e-20
ExecutionTime = 0.93 s  ClockTime = 1 s

Time = 0.004

Courant Number mean: 0.0121905 max: 0.0737268
nonePBiCGStab:  Solving for Ux, Initial residual = 0.072335, Final residual = 2.50592e-06, No Iterations 5
nonePBiCGStab:  Solving for Uy, Initial residual = 0.091658, Final residual = 1.32815e-06, No Iterations 5
nonePBiCGStab:  Solving for Uz, Initial residual = 0.182435, Final residual = 4.77009e-06, No Iterations 5
linear solve U 1
[OGL LOG] init_host_sparsity_pattern : 0 ms
[OGL LOG] matrix not stored update host matrix
[OGL LOG] update_host_mtx : 0 ms
[OGL LOG] matrix is not yet sorted, sorting host matrix
[OGL LOG] sort_host_mtx_sparsity_pattern : 0 ms
[OGL LOG] sort_host_mtx : 0 ms
[OGL LOG] init_preconditioner : 0 ms
[OGL LOG] solve : 14 ms
nonecudaGKOIR:  Solving for p, Initial residual = 0.0491761, Final residual = 9.23241e-06, No Iterations 2
linear solve p 17
time step continuity errors : sum local = 7.9074e-09, global = -1.24215e-20, cumulative = -2.27558e-21
[OGL LOG] init_host_sparsity_pattern : 0 ms
[OGL LOG] matrix not stored update host matrix
[OGL LOG] update_host_mtx : 0 ms
[OGL LOG] matrix is not yet sorted, sorting host matrix
[OGL LOG] sort_host_mtx_sparsity_pattern : 0 ms
[OGL LOG] sort_host_mtx : 0 ms
[OGL LOG] init_preconditioner : 0 ms
[OGL LOG] solve : 14 ms
nonecudaGKOIR:  Solving for p, Initial residual = 0.0220717, Final residual = 3.36157e-06, No Iterations 2
linear solve p 17
time step continuity errors : sum local = 2.94393e-09, global = 1.17656e-20, cumulative = 9.49005e-21
ExecutionTime = 0.97 s  ClockTime = 1 s

Time = 0.005

Courant Number mean: 0.014306 max: 0.0838051
nonePBiCGStab:  Solving for Ux, Initial residual = 0.0485643, Final residual = 1.20672e-06, No Iterations 5
nonePBiCGStab:  Solving for Uy, Initial residual = 0.0627373, Final residual = 5.40307e-07, No Iterations 5
nonePBiCGStab:  Solving for Uz, Initial residual = 0.129749, Final residual = 2.99509e-06, No Iterations 5
linear solve U 1
[OGL LOG] init_host_sparsity_pattern : 0 ms
[OGL LOG] matrix not stored update host matrix
[OGL LOG] update_host_mtx : 0 ms
[OGL LOG] matrix is not yet sorted, sorting host matrix
[OGL LOG] sort_host_mtx_sparsity_pattern : 0 ms
[OGL LOG] sort_host_mtx : 0 ms
[OGL LOG] init_preconditioner : 0 ms
[OGL LOG] solve : 14 ms
nonecudaGKOIR:  Solving for p, Initial residual = 0.035918, Final residual = 6.45246e-06, No Iterations 2
linear solve p 17
time step continuity errors : sum local = 5.74746e-09, global = -1.24948e-20, cumulative = -3.00471e-21
[OGL LOG] init_host_sparsity_pattern : 0 ms
[OGL LOG] matrix not stored update host matrix
[OGL LOG] update_host_mtx : 0 ms
[OGL LOG] matrix is not yet sorted, sorting host matrix
[OGL LOG] sort_host_mtx_sparsity_pattern : 0 ms
[OGL LOG] sort_host_mtx : 0 ms
[OGL LOG] init_preconditioner : 0 ms
[OGL LOG] solve : 14 ms
nonecudaGKOIR:  Solving for p, Initial residual = 0.0152253, Final residual = 2.32367e-06, No Iterations 2
linear solve p 17
time step continuity errors : sum local = 2.10112e-09, global = -4.01568e-21, cumulative = -7.02039e-21
ExecutionTime = 1.01 s  ClockTime = 1 s

Time = 0.006

Courant Number mean: 0.0159483 max: 0.0908032
nonePBiCGStab:  Solving for Ux, Initial residual = 0.0353497, Final residual = 9.43892e-07, No Iterations 5
nonePBiCGStab:  Solving for Uy, Initial residual = 0.0460972, Final residual = 5.18346e-07, No Iterations 5
nonePBiCGStab:  Solving for Uz, Initial residual = 0.0994339, Final residual = 1.65008e-06, No Iterations 5
linear solve U 1
[OGL LOG] init_host_sparsity_pattern : 0 ms
[OGL LOG] matrix not stored update host matrix
[OGL LOG] update_host_mtx : 0 ms
[OGL LOG] matrix is not yet sorted, sorting host matrix
[OGL LOG] sort_host_mtx_sparsity_pattern : 0 ms
[OGL LOG] sort_host_mtx : 0 ms
[OGL LOG] init_preconditioner : 0 ms
[OGL LOG] solve : 14 ms
nonecudaGKOIR:  Solving for p, Initial residual = 0.0288116, Final residual = 4.96422e-06, No Iterations 2
linear solve p 17
time step continuity errors : sum local = 4.5641e-09, global = 2.85145e-20, cumulative = 2.14942e-20
[OGL LOG] init_host_sparsity_pattern : 0 ms
[OGL LOG] matrix not stored update host matrix
[OGL LOG] update_host_mtx : 0 ms
[OGL LOG] matrix is not yet sorted, sorting host matrix
[OGL LOG] sort_host_mtx_sparsity_pattern : 0 ms
[OGL LOG] sort_host_mtx : 0 ms
[OGL LOG] init_preconditioner : 0 ms
[OGL LOG] solve : 14 ms
nonecudaGKOIR:  Solving for p, Initial residual = 0.0109978, Final residual = 1.66045e-06, No Iterations 2
linear solve p 17
time step continuity errors : sum local = 1.5473e-09, global = 2.97405e-21, cumulative = 2.44682e-20
ExecutionTime = 1.05 s  ClockTime = 1 s

Time = 0.007

Courant Number mean: 0.0172718 max: 0.0958251
nonePBiCGStab:  Solving for Ux, Initial residual = 0.0271635, Final residual = 4.68973e-07, No Iterations 5
nonePBiCGStab:  Solving for Uy, Initial residual = 0.0356261, Final residual = 9.40829e-07, No Iterations 4
nonePBiCGStab:  Solving for Uz, Initial residual = 0.0794121, Final residual = 1.26302e-06, No Iterations 5
linear solve U 1
[OGL LOG] init_host_sparsity_pattern : 0 ms
[OGL LOG] matrix not stored update host matrix
[OGL LOG] update_host_mtx : 0 ms
[OGL LOG] matrix is not yet sorted, sorting host matrix
[OGL LOG] sort_host_mtx_sparsity_pattern : 0 ms
[OGL LOG] sort_host_mtx : 0 ms
[OGL LOG] init_preconditioner : 0 ms
[OGL LOG] solve : 14 ms
nonecudaGKOIR:  Solving for p, Initial residual = 0.021735, Final residual = 3.47431e-06, No Iterations 2
linear solve p 17
time step continuity errors : sum local = 3.27362e-09, global = 3.2902e-21, cumulative = 2.77584e-20
[OGL LOG] init_host_sparsity_pattern : 0 ms
[OGL LOG] matrix not stored update host matrix
[OGL LOG] update_host_mtx : 0 ms
[OGL LOG] matrix is not yet sorted, sorting host matrix
[OGL LOG] sort_host_mtx_sparsity_pattern : 0 ms
[OGL LOG] sort_host_mtx : 0 ms
[OGL LOG] init_preconditioner : 0 ms
[OGL LOG] solve : 15 ms
nonecudaGKOIR:  Solving for p, Initial residual = 0.00859321, Final residual = 1.11285e-06, No Iterations 2
linear solve p 17
time step continuity errors : sum local = 1.05865e-09, global = -1.87574e-20, cumulative = 9.00104e-21
ExecutionTime = 1.08 s  ClockTime = 1 s

Time = 0.008

Courant Number mean: 0.0183554 max: 0.0995501
nonePBiCGStab:  Solving for Ux, Initial residual = 0.0216576, Final residual = 2.92952e-07, No Iterations 5
nonePBiCGStab:  Solving for Uy, Initial residual = 0.0286129, Final residual = 6.80661e-07, No Iterations 4
nonePBiCGStab:  Solving for Uz, Initial residual = 0.0649539, Final residual = 1.02528e-06, No Iterations 5
linear solve U 1
[OGL LOG] init_host_sparsity_pattern : 0 ms
[OGL LOG] matrix not stored update host matrix
[OGL LOG] update_host_mtx : 0 ms
[OGL LOG] matrix is not yet sorted, sorting host matrix
[OGL LOG] sort_host_mtx_sparsity_pattern : 0 ms
[OGL LOG] sort_host_mtx : 0 ms
[OGL LOG] init_preconditioner : 0 ms
[OGL LOG] solve : 14 ms
nonecudaGKOIR:  Solving for p, Initial residual = 0.0162657, Final residual = 2.70646e-06, No Iterations 2
linear solve p 17
time step continuity errors : sum local = 2.59696e-09, global = 9.29785e-21, cumulative = 1.82989e-20
[OGL LOG] init_host_sparsity_pattern : 0 ms
[OGL LOG] matrix not stored update host matrix
[OGL LOG] update_host_mtx : 0 ms
[OGL LOG] matrix is not yet sorted, sorting host matrix
[OGL LOG] sort_host_mtx_sparsity_pattern : 0 ms
[OGL LOG] sort_host_mtx : 0 ms
[OGL LOG] init_preconditioner : 0 ms
[OGL LOG] solve : 4 ms
nonecudaGKOIR:  Solving for p, Initial residual = 0.00660475, Final residual = 9.67472e-05, No Iterations 1
linear solve p 7
time step continuity errors : sum local = 1.13517e-07, global = -2.29072e-20, cumulative = -4.60833e-21
ExecutionTime = 1.11 s  ClockTime = 1 s

Time = 0.009

Courant Number mean: 0.0192552 max: 0.102395
nonePBiCGStab:  Solving for Ux, Initial residual = 0.0176784, Final residual = 6.89186e-07, No Iterations 4
nonePBiCGStab:  Solving for Uy, Initial residual = 0.0236277, Final residual = 5.51694e-07, No Iterations 4
nonePBiCGStab:  Solving for Uz, Initial residual = 0.0543727, Final residual = 7.49212e-07, No Iterations 5
linear solve U 0
[OGL LOG] init_host_sparsity_pattern : 0 ms
[OGL LOG] matrix not stored update host matrix
[OGL LOG] update_host_mtx : 0 ms
[OGL LOG] matrix is not yet sorted, sorting host matrix
[OGL LOG] sort_host_mtx_sparsity_pattern : 0 ms
[OGL LOG] sort_host_mtx : 0 ms
[OGL LOG] init_preconditioner : 0 ms
[OGL LOG] solve : 14 ms
nonecudaGKOIR:  Solving for p, Initial residual = 0.0133007, Final residual = 2.47302e-06, No Iterations 2
linear solve p 17
time step continuity errors : sum local = 2.41057e-09, global = -8.28635e-21, cumulative = -1.28947e-20
[OGL LOG] init_host_sparsity_pattern : 0 ms
[OGL LOG] matrix not stored update host matrix
[OGL LOG] update_host_mtx : 0 ms
[OGL LOG] matrix is not yet sorted, sorting host matrix
[OGL LOG] sort_host_mtx_sparsity_pattern : 0 ms
[OGL LOG] sort_host_mtx : 0 ms
[OGL LOG] init_preconditioner : 0 ms
[OGL LOG] solve : 4 ms
nonecudaGKOIR:  Solving for p, Initial residual = 0.00539291, Final residual = 8.46788e-05, No Iterations 1
linear solve p 7
time step continuity errors : sum local = 9.24305e-08, global = -1.70734e-20, cumulative = -2.99681e-20
ExecutionTime = 1.14 s  ClockTime = 1 s

Time = 0.01

Courant Number mean: 0.0200142 max: 0.104627
nonePBiCGStab:  Solving for Ux, Initial residual = 0.0147299, Final residual = 4.74769e-07, No Iterations 4
nonePBiCGStab:  Solving for Uy, Initial residual = 0.0199288, Final residual = 8.6071e-07, No Iterations 4
nonePBiCGStab:  Solving for Uz, Initial residual = 0.0462938, Final residual = 5.73449e-07, No Iterations 5
linear solve U 0
[OGL LOG] init_host_sparsity_pattern : 0 ms
[OGL LOG] matrix not stored update host matrix
[OGL LOG] update_host_mtx : 0 ms
[OGL LOG] matrix is not yet sorted, sorting host matrix
[OGL LOG] sort_host_mtx_sparsity_pattern : 0 ms
[OGL LOG] sort_host_mtx : 0 ms
[OGL LOG] init_preconditioner : 0 ms
[OGL LOG] solve : 14 ms
nonecudaGKOIR:  Solving for p, Initial residual = 0.0111333, Final residual = 1.74115e-06, No Iterations 2
linear solve p 17
time step continuity errors : sum local = 1.72102e-09, global = -1.02224e-20, cumulative = -4.01905e-20
[OGL LOG] init_host_sparsity_pattern : 0 ms
[OGL LOG] matrix not stored update host matrix
[OGL LOG] update_host_mtx : 0 ms
[OGL LOG] matrix is not yet sorted, sorting host matrix
[OGL LOG] sort_host_mtx_sparsity_pattern : 0 ms
[OGL LOG] sort_host_mtx : 0 ms
[OGL LOG] init_preconditioner : 0 ms
[OGL LOG] solve : 5 ms
nonecudaGKOIR:  Solving for p, Initial residual = 0.00446656, Final residual = 6.64171e-05, No Iterations 1
linear solve p 7
time step continuity errors : sum local = 7.7855e-08, global = 3.42345e-20, cumulative = -5.95597e-21
ExecutionTime = 1.16 s  ClockTime = 1 s

End

