/*---------------------------------------------------------------------------*\
  =========                 |
  \\      /  F ield         | OpenFOAM: The Open Source CFD Toolbox
   \\    /   O peration     | Website:  https://openfoam.org
    \\  /    A nd           | Version:  8
     \\/     M anipulation  |
\*---------------------------------------------------------------------------*/
Build  : 8-40a5a48f630f
Exec   : icoFoam
Date   : Jul 28 2021
Time   : 02:08:44
Host   : "uc2n550.localdomain"
PID    : 1020881
I/O    : uncollated
Case   : /pfs/data5/home/kit/scc/nq7776/code/OBR/lidDrivenCavity3D/Variation_mesh/65/Variation_matrix_solver/BiCGStab_BJ_OMP/base
nProcs : 1
sigFpe : Enabling floating point exception trapping (FOAM_SIGFPE).
fileModificationChecking : Monitoring run-time modified files using timeStampMaster (fileModificationSkew 10)
allowSystemOperations : Allowing user-supplied system call operations

// * * * * * * * * * * * * * * * * * * * * * * * * * * * * * * * * * * * * * //
Create time

Create mesh for time = 0

Reading transportProperties

Reading field p

Reading field U

Reading/calculating face flux field phi


Starting time loop

Time = 0.001

Courant Number mean: 0 max: 0
nonePBiCGStab:  Solving for Ux, Initial residual = 1, Final residual = 0.053017, No Iterations 5
nonePBiCGStab:  Solving for Uy, Initial residual = 0, Final residual = 0, No Iterations 0
nonePBiCGStab:  Solving for Uz, Initial residual = 0, Final residual = 0, No Iterations 0
linear solve U 70
[OGL LOG] init_host_sparsity_pattern : 78 ms
[OGL LOG] matrix not stored update host matrix
[OGL LOG] update_host_mtx : 40 ms
[OGL LOG] matrix is not yet sorted, compute sorting idxs
[OGL LOG] compute_sort : 2378 ms
[OGL LOG] matrix is not yet sorted, sorting host matrix
[OGL LOG] sort_host_mtx_sparsity_pattern : 56 ms
[OGL LOG] sort_host_mtx : 33 ms
[OGL LOG] init_preconditioner : 22 ms
[OGL LOG] solve : 4804 ms
BJompGKOBiCGStab:  Solving for p, Initial residual = 1, Final residual = 2.89219e-05, No Iterations 324
linear solve p 7473
time step continuity errors : sum local = 2.18262e-07, global = -5.81746e-21, cumulative = -5.81746e-21
[OGL LOG] init_host_sparsity_pattern : 75 ms
[OGL LOG] matrix not stored update host matrix
[OGL LOG] update_host_mtx : 40 ms
[OGL LOG] matrix is not yet sorted, sorting host matrix
[OGL LOG] sort_host_mtx_sparsity_pattern : 56 ms
[OGL LOG] sort_host_mtx : 27 ms
[OGL LOG] init_preconditioner : 0 ms
[OGL LOG] solve : 4634 ms
BJompGKOBiCGStab:  Solving for p, Initial residual = 0.674743, Final residual = 7.92043e-05, No Iterations 314
linear solve p 4873
time step continuity errors : sum local = 2.34322e-06, global = 6.68519e-21, cumulative = 8.67732e-22
ExecutionTime = 41.93 s  ClockTime = 14 s

Time = 0.002

Courant Number mean: 0.0326862 max: 0.468251
nonePBiCGStab:  Solving for Ux, Initial residual = 0.152101, Final residual = 0.0211995, No Iterations 5
nonePBiCGStab:  Solving for Uy, Initial residual = 0.364735, Final residual = 0.046503, No Iterations 5
nonePBiCGStab:  Solving for Uz, Initial residual = 0.961841, Final residual = 0.158432, No Iterations 5
linear solve U 138
[OGL LOG] init_host_sparsity_pattern : 73 ms
[OGL LOG] matrix not stored update host matrix
[OGL LOG] update_host_mtx : 39 ms
[OGL LOG] matrix is not yet sorted, sorting host matrix
[OGL LOG] sort_host_mtx_sparsity_pattern : 58 ms
[OGL LOG] sort_host_mtx : 28 ms
[OGL LOG] init_preconditioner : 0 ms
[OGL LOG] solve : 4476 ms
BJompGKOBiCGStab:  Solving for p, Initial residual = 0.655908, Final residual = 9.38131e-05, No Iterations 304
linear solve p 4714
time step continuity errors : sum local = 9.96021e-08, global = 1.9991e-20, cumulative = 2.08587e-20
[OGL LOG] init_host_sparsity_pattern : 72 ms
[OGL LOG] matrix not stored update host matrix
[OGL LOG] update_host_mtx : 35 ms
[OGL LOG] matrix is not yet sorted, sorting host matrix
[OGL LOG] sort_host_mtx_sparsity_pattern : 56 ms
[OGL LOG] sort_host_mtx : 28 ms
[OGL LOG] init_preconditioner : 0 ms
[OGL LOG] solve : 4197 ms
BJompGKOBiCGStab:  Solving for p, Initial residual = 0.572976, Final residual = 9.93656e-05, No Iterations 284
linear solve p 4423
time step continuity errors : sum local = 4.3324e-07, global = -5.22279e-21, cumulative = 1.56359e-20
ExecutionTime = 77.36 s  ClockTime = 23 s

Time = 0.003

Courant Number mean: 0.0502202 max: 0.556567
nonePBiCGStab:  Solving for Ux, Initial residual = 0.0551095, Final residual = 0.00592757, No Iterations 5
nonePBiCGStab:  Solving for Uy, Initial residual = 0.126438, Final residual = 0.0169683, No Iterations 5
nonePBiCGStab:  Solving for Uz, Initial residual = 0.409469, Final residual = 0.0770374, No Iterations 5
linear solve U 140
[OGL LOG] init_host_sparsity_pattern : 74 ms
[OGL LOG] matrix not stored update host matrix
[OGL LOG] update_host_mtx : 40 ms
[OGL LOG] matrix is not yet sorted, sorting host matrix
[OGL LOG] sort_host_mtx_sparsity_pattern : 58 ms
[OGL LOG] sort_host_mtx : 28 ms
[OGL LOG] init_preconditioner : 0 ms
[OGL LOG] solve : 4562 ms
BJompGKOBiCGStab:  Solving for p, Initial residual = 0.558868, Final residual = 8.18303e-05, No Iterations 309
linear solve p 4800
time step continuity errors : sum local = 1.6984e-07, global = 1.50564e-20, cumulative = 3.06924e-20
[OGL LOG] init_host_sparsity_pattern : 72 ms
[OGL LOG] matrix not stored update host matrix
[OGL LOG] update_host_mtx : 35 ms
[OGL LOG] matrix is not yet sorted, sorting host matrix
[OGL LOG] sort_host_mtx_sparsity_pattern : 58 ms
[OGL LOG] sort_host_mtx : 28 ms
[OGL LOG] init_preconditioner : 0 ms
[OGL LOG] solve : 3992 ms
BJompGKOBiCGStab:  Solving for p, Initial residual = 0.49285, Final residual = 1.68056e-05, No Iterations 271
linear solve p 4219
time step continuity errors : sum local = 1.56297e-08, global = -1.05507e-21, cumulative = 2.96373e-20
ExecutionTime = 112.34 s  ClockTime = 33 s

Time = 0.004

Courant Number mean: 0.0602532 max: 0.574989
nonePBiCGStab:  Solving for Ux, Initial residual = 0.0332668, Final residual = 0.00316386, No Iterations 5
nonePBiCGStab:  Solving for Uy, Initial residual = 0.0809187, Final residual = 0.00704278, No Iterations 5
nonePBiCGStab:  Solving for Uz, Initial residual = 0.228191, Final residual = 0.027589, No Iterations 5
linear solve U 139
[OGL LOG] init_host_sparsity_pattern : 74 ms
[OGL LOG] matrix not stored update host matrix
[OGL LOG] update_host_mtx : 40 ms
[OGL LOG] matrix is not yet sorted, sorting host matrix
[OGL LOG] sort_host_mtx_sparsity_pattern : 56 ms
[OGL LOG] sort_host_mtx : 27 ms
[OGL LOG] init_preconditioner : 0 ms
[OGL LOG] solve : 4506 ms
BJompGKOBiCGStab:  Solving for p, Initial residual = 0.356015, Final residual = 9.99574e-05, No Iterations 307
linear solve p 4739
time step continuity errors : sum local = 6.00296e-08, global = 7.19573e-22, cumulative = 3.03569e-20
[OGL LOG] init_host_sparsity_pattern : 73 ms
[OGL LOG] matrix not stored update host matrix
[OGL LOG] update_host_mtx : 37 ms
[OGL LOG] matrix is not yet sorted, sorting host matrix
[OGL LOG] sort_host_mtx_sparsity_pattern : 56 ms
[OGL LOG] sort_host_mtx : 28 ms
[OGL LOG] init_preconditioner : 0 ms
[OGL LOG] solve : 3519 ms
BJompGKOBiCGStab:  Solving for p, Initial residual = 0.294701, Final residual = 9.91203e-05, No Iterations 240
linear solve p 3752
time step continuity errors : sum local = 7.67279e-08, global = -4.11777e-21, cumulative = 2.62391e-20
ExecutionTime = 145.19 s  ClockTime = 42 s

Time = 0.005

Courant Number mean: 0.06824 max: 0.585618
nonePBiCGStab:  Solving for Ux, Initial residual = 0.023591, Final residual = 0.00196031, No Iterations 5
nonePBiCGStab:  Solving for Uy, Initial residual = 0.0533076, Final residual = 0.00415969, No Iterations 5
nonePBiCGStab:  Solving for Uz, Initial residual = 0.126255, Final residual = 0.0169984, No Iterations 5
linear solve U 138
[OGL LOG] init_host_sparsity_pattern : 74 ms
[OGL LOG] matrix not stored update host matrix
[OGL LOG] update_host_mtx : 40 ms
[OGL LOG] matrix is not yet sorted, sorting host matrix
[OGL LOG] sort_host_mtx_sparsity_pattern : 56 ms
[OGL LOG] sort_host_mtx : 27 ms
[OGL LOG] init_preconditioner : 0 ms
[OGL LOG] solve : 3888 ms
BJompGKOBiCGStab:  Solving for p, Initial residual = 0.275665, Final residual = 9.96589e-05, No Iterations 263
linear solve p 4120
time step continuity errors : sum local = 7.83298e-08, global = 1.02184e-20, cumulative = 3.64576e-20
[OGL LOG] init_host_sparsity_pattern : 72 ms
[OGL LOG] matrix not stored update host matrix
[OGL LOG] update_host_mtx : 35 ms
[OGL LOG] matrix is not yet sorted, sorting host matrix
[OGL LOG] sort_host_mtx_sparsity_pattern : 58 ms
[OGL LOG] sort_host_mtx : 27 ms
[OGL LOG] init_preconditioner : 0 ms
[OGL LOG] solve : 3682 ms
BJompGKOBiCGStab:  Solving for p, Initial residual = 0.233881, Final residual = 9.78029e-05, No Iterations 250
linear solve p 3908
time step continuity errors : sum local = 1.08073e-07, global = 3.70705e-22, cumulative = 3.68283e-20
ExecutionTime = 176.22 s  ClockTime = 50 s

Time = 0.006

Courant Number mean: 0.0745175 max: 0.592184
nonePBiCGStab:  Solving for Ux, Initial residual = 0.0177687, Final residual = 0.00111013, No Iterations 5
nonePBiCGStab:  Solving for Uy, Initial residual = 0.0397506, Final residual = 0.00196188, No Iterations 5
nonePBiCGStab:  Solving for Uz, Initial residual = 0.0954378, Final residual = 0.0102433, No Iterations 5
linear solve U 139
[OGL LOG] init_host_sparsity_pattern : 74 ms
[OGL LOG] matrix not stored update host matrix
[OGL LOG] update_host_mtx : 40 ms
[OGL LOG] matrix is not yet sorted, sorting host matrix
[OGL LOG] sort_host_mtx_sparsity_pattern : 56 ms
[OGL LOG] sort_host_mtx : 28 ms
[OGL LOG] init_preconditioner : 0 ms
[OGL LOG] solve : 4387 ms
BJompGKOBiCGStab:  Solving for p, Initial residual = 0.180601, Final residual = 9.15145e-05, No Iterations 298
linear solve p 4619
time step continuity errors : sum local = 5.59684e-08, global = 1.23025e-20, cumulative = 4.91307e-20
[OGL LOG] init_host_sparsity_pattern : 72 ms
[OGL LOG] matrix not stored update host matrix
[OGL LOG] update_host_mtx : 35 ms
[OGL LOG] matrix is not yet sorted, sorting host matrix
[OGL LOG] sort_host_mtx_sparsity_pattern : 56 ms
[OGL LOG] sort_host_mtx : 27 ms
[OGL LOG] init_preconditioner : 0 ms
[OGL LOG] solve : 4149 ms
BJompGKOBiCGStab:  Solving for p, Initial residual = 0.14979, Final residual = 9.77136e-05, No Iterations 282
linear solve p 4373
time step continuity errors : sum local = 4.73875e-08, global = -8.368e-21, cumulative = 4.07627e-20
ExecutionTime = 211.08 s  ClockTime = 59 s

Time = 0.007

Courant Number mean: 0.0797323 max: 0.596663
nonePBiCGStab:  Solving for Ux, Initial residual = 0.0140058, Final residual = 0.000755098, No Iterations 5
nonePBiCGStab:  Solving for Uy, Initial residual = 0.0314357, Final residual = 0.00139951, No Iterations 5
nonePBiCGStab:  Solving for Uz, Initial residual = 0.0739123, Final residual = 0.00638937, No Iterations 5
linear solve U 139
[OGL LOG] init_host_sparsity_pattern : 74 ms
[OGL LOG] matrix not stored update host matrix
[OGL LOG] update_host_mtx : 40 ms
[OGL LOG] matrix is not yet sorted, sorting host matrix
[OGL LOG] sort_host_mtx_sparsity_pattern : 56 ms
[OGL LOG] sort_host_mtx : 27 ms
[OGL LOG] init_preconditioner : 0 ms
[OGL LOG] solve : 1636 ms
BJompGKOBiCGStab:  Solving for p, Initial residual = 0.131605, Final residual = 9.63498e-05, No Iterations 111
linear solve p 1867
time step continuity errors : sum local = 7.51581e-08, global = -1.10995e-20, cumulative = 2.96632e-20
[OGL LOG] init_host_sparsity_pattern : 72 ms
[OGL LOG] matrix not stored update host matrix
[OGL LOG] update_host_mtx : 35 ms
[OGL LOG] matrix is not yet sorted, sorting host matrix
[OGL LOG] sort_host_mtx_sparsity_pattern : 56 ms
[OGL LOG] sort_host_mtx : 28 ms
[OGL LOG] init_preconditioner : 0 ms
[OGL LOG] solve : 1581 ms
BJompGKOBiCGStab:  Solving for p, Initial residual = 0.110236, Final residual = 9.98603e-05, No Iterations 107
linear solve p 1805
time step continuity errors : sum local = 6.58822e-08, global = 3.39935e-20, cumulative = 6.36567e-20
ExecutionTime = 224.73 s  ClockTime = 63 s

Time = 0.008

Courant Number mean: 0.0841039 max: 0.600068
nonePBiCGStab:  Solving for Ux, Initial residual = 0.0113542, Final residual = 0.000570199, No Iterations 5
nonePBiCGStab:  Solving for Uy, Initial residual = 0.025486, Final residual = 0.000874832, No Iterations 5
nonePBiCGStab:  Solving for Uz, Initial residual = 0.0601905, Final residual = 0.00479124, No Iterations 5
linear solve U 139
[OGL LOG] init_host_sparsity_pattern : 74 ms
[OGL LOG] matrix not stored update host matrix
[OGL LOG] update_host_mtx : 40 ms
[OGL LOG] matrix is not yet sorted, sorting host matrix
[OGL LOG] sort_host_mtx_sparsity_pattern : 56 ms
[OGL LOG] sort_host_mtx : 28 ms
[OGL LOG] init_preconditioner : 0 ms
[OGL LOG] solve : 1781 ms
BJompGKOBiCGStab:  Solving for p, Initial residual = 0.0919364, Final residual = 9.88401e-05, No Iterations 120
linear solve p 2012
time step continuity errors : sum local = 6.93681e-08, global = -1.74923e-20, cumulative = 4.61644e-20
[OGL LOG] init_host_sparsity_pattern : 72 ms
[OGL LOG] matrix not stored update host matrix
[OGL LOG] update_host_mtx : 35 ms
[OGL LOG] matrix is not yet sorted, sorting host matrix
[OGL LOG] sort_host_mtx_sparsity_pattern : 56 ms
[OGL LOG] sort_host_mtx : 27 ms
[OGL LOG] init_preconditioner : 0 ms
[OGL LOG] solve : 1742 ms
BJompGKOBiCGStab:  Solving for p, Initial residual = 0.0771711, Final residual = 9.97552e-05, No Iterations 118
linear solve p 1966
time step continuity errors : sum local = 4.71052e-08, global = 1.13039e-20, cumulative = 5.74684e-20
ExecutionTime = 239.59 s  ClockTime = 68 s

Time = 0.009

Courant Number mean: 0.0878616 max: 0.602633
nonePBiCGStab:  Solving for Ux, Initial residual = 0.00947494, Final residual = 0.000410176, No Iterations 5
nonePBiCGStab:  Solving for Uy, Initial residual = 0.0215092, Final residual = 0.00070858, No Iterations 5
nonePBiCGStab:  Solving for Uz, Initial residual = 0.051257, Final residual = 0.0037946, No Iterations 5
linear solve U 139
[OGL LOG] init_host_sparsity_pattern : 74 ms
[OGL LOG] matrix not stored update host matrix
[OGL LOG] update_host_mtx : 40 ms
[OGL LOG] matrix is not yet sorted, sorting host matrix
[OGL LOG] sort_host_mtx_sparsity_pattern : 56 ms
[OGL LOG] sort_host_mtx : 27 ms
[OGL LOG] init_preconditioner : 0 ms
[OGL LOG] solve : 1731 ms
BJompGKOBiCGStab:  Solving for p, Initial residual = 0.0664447, Final residual = 9.78722e-05, No Iterations 117
linear solve p 1963
time step continuity errors : sum local = 8.50554e-08, global = -5.31536e-21, cumulative = 5.2153e-20
[OGL LOG] init_host_sparsity_pattern : 72 ms
[OGL LOG] matrix not stored update host matrix
[OGL LOG] update_host_mtx : 35 ms
[OGL LOG] matrix is not yet sorted, sorting host matrix
[OGL LOG] sort_host_mtx_sparsity_pattern : 56 ms
[OGL LOG] sort_host_mtx : 27 ms
[OGL LOG] init_preconditioner : 0 ms
[OGL LOG] solve : 1604 ms
BJompGKOBiCGStab:  Solving for p, Initial residual = 0.0561502, Final residual = 9.99838e-05, No Iterations 109
linear solve p 1828
time step continuity errors : sum local = 5.82058e-08, global = -1.14468e-20, cumulative = 4.07062e-20
ExecutionTime = 253.72 s  ClockTime = 72 s

Time = 0.01

Courant Number mean: 0.0911246 max: 0.604731
nonePBiCGStab:  Solving for Ux, Initial residual = 0.00813892, Final residual = 0.000362709, No Iterations 5
nonePBiCGStab:  Solving for Uy, Initial residual = 0.0181297, Final residual = 0.000552122, No Iterations 5
nonePBiCGStab:  Solving for Uz, Initial residual = 0.0458741, Final residual = 0.0040963, No Iterations 5
linear solve U 138
[OGL LOG] init_host_sparsity_pattern : 74 ms
[OGL LOG] matrix not stored update host matrix
[OGL LOG] update_host_mtx : 40 ms
[OGL LOG] matrix is not yet sorted, sorting host matrix
[OGL LOG] sort_host_mtx_sparsity_pattern : 56 ms
[OGL LOG] sort_host_mtx : 27 ms
[OGL LOG] init_preconditioner : 0 ms
[OGL LOG] solve : 1955 ms
BJompGKOBiCGStab:  Solving for p, Initial residual = 0.0499097, Final residual = 9.98048e-05, No Iterations 132
linear solve p 2187
time step continuity errors : sum local = 8.40749e-08, global = -4.30214e-21, cumulative = 3.64041e-20
[OGL LOG] init_host_sparsity_pattern : 72 ms
[OGL LOG] matrix not stored update host matrix
[OGL LOG] update_host_mtx : 37 ms
[OGL LOG] matrix is not yet sorted, sorting host matrix
[OGL LOG] sort_host_mtx_sparsity_pattern : 56 ms
[OGL LOG] sort_host_mtx : 27 ms
[OGL LOG] init_preconditioner : 0 ms
[OGL LOG] solve : 1534 ms
BJompGKOBiCGStab:  Solving for p, Initial residual = 0.0424244, Final residual = 9.17927e-05, No Iterations 104
linear solve p 1760
time step continuity errors : sum local = 4.81616e-08, global = -8.37521e-21, cumulative = 2.80289e-20
ExecutionTime = 268.45 s  ClockTime = 76 s

End

