/*---------------------------------------------------------------------------*\
  =========                 |
  \\      /  F ield         | OpenFOAM: The Open Source CFD Toolbox
   \\    /   O peration     | Website:  https://openfoam.org
    \\  /    A nd           | Version:  8
     \\/     M anipulation  |
\*---------------------------------------------------------------------------*/
Build  : 8-40a5a48f630f
Exec   : icoFoam
Date   : Jul 28 2021
Time   : 03:17:29
Host   : "uc2n450.localdomain"
PID    : 365987
I/O    : uncollated
Case   : /pfs/data5/home/kit/scc/nq7776/code/OBR/lidDrivenCavity3D/Variation_mesh/95/Variation_matrix_solver/CG_NoPrecond_OMP/base
nProcs : 1
sigFpe : Enabling floating point exception trapping (FOAM_SIGFPE).
fileModificationChecking : Monitoring run-time modified files using timeStampMaster (fileModificationSkew 10)
allowSystemOperations : Allowing user-supplied system call operations

// * * * * * * * * * * * * * * * * * * * * * * * * * * * * * * * * * * * * * //
Create time

Create mesh for time = 0

Reading transportProperties

Reading field p

Reading field U

Reading/calculating face flux field phi


Starting time loop

Time = 0.001

Courant Number mean: 0 max: 0
nonePBiCGStab:  Solving for Ux, Initial residual = 1, Final residual = 0.078913, No Iterations 5
nonePBiCGStab:  Solving for Uy, Initial residual = 0, Final residual = 0, No Iterations 0
nonePBiCGStab:  Solving for Uz, Initial residual = 0, Final residual = 0, No Iterations 0
linear solve U 222
[OGL LOG] init_host_sparsity_pattern : 247 ms
[OGL LOG] matrix not stored update host matrix
[OGL LOG] update_host_mtx : 127 ms
[OGL LOG] matrix is not yet sorted, compute sorting idxs
[OGL LOG] compute_sort : 7721 ms
[OGL LOG] matrix is not yet sorted, sorting host matrix
[OGL LOG] sort_host_mtx_sparsity_pattern : 177 ms
[OGL LOG] sort_host_mtx : 105 ms
[OGL LOG] init_preconditioner : 0 ms
[OGL LOG] solve : 6774 ms
noneompGKOCG:  Solving for p, Initial residual = 1, Final residual = 9.66186e-05, No Iterations 754
linear solve p 15343
time step continuity errors : sum local = 3.78707e-08, global = 7.15191e-21, cumulative = 7.15191e-21
[OGL LOG] init_host_sparsity_pattern : 237 ms
[OGL LOG] matrix not stored update host matrix
[OGL LOG] update_host_mtx : 129 ms
[OGL LOG] matrix is not yet sorted, sorting host matrix
[OGL LOG] sort_host_mtx_sparsity_pattern : 185 ms
[OGL LOG] sort_host_mtx : 106 ms
[OGL LOG] init_preconditioner : 0 ms
[OGL LOG] solve : 6627 ms
noneompGKOCG:  Solving for p, Initial residual = 0.704606, Final residual = 9.80501e-05, No Iterations 742
linear solve p 7431
time step continuity errors : sum local = 5.33445e-08, global = -5.22977e-22, cumulative = 6.62894e-21
ExecutionTime = 227.16 s  ClockTime = 26 s

Time = 0.002

Courant Number mean: 0.0412052 max: 0.745797
nonePBiCGStab:  Solving for Ux, Initial residual = 0.139163, Final residual = 0.0377852, No Iterations 5
nonePBiCGStab:  Solving for Uy, Initial residual = 0.440104, Final residual = 0.117163, No Iterations 5
nonePBiCGStab:  Solving for Uz, Initial residual = 0.986846, Final residual = 0.301642, No Iterations 5
linear solve U 447
[OGL LOG] init_host_sparsity_pattern : 234 ms
[OGL LOG] matrix not stored update host matrix
[OGL LOG] update_host_mtx : 131 ms
[OGL LOG] matrix is not yet sorted, sorting host matrix
[OGL LOG] sort_host_mtx_sparsity_pattern : 189 ms
[OGL LOG] sort_host_mtx : 105 ms
[OGL LOG] init_preconditioner : 0 ms
[OGL LOG] solve : 4037 ms
noneompGKOCG:  Solving for p, Initial residual = 0.777957, Final residual = 9.88368e-05, No Iterations 448
linear solve p 4844
time step continuity errors : sum local = 1.05135e-07, global = 8.56494e-21, cumulative = 1.51939e-20
[OGL LOG] init_host_sparsity_pattern : 231 ms
[OGL LOG] matrix not stored update host matrix
[OGL LOG] update_host_mtx : 127 ms
[OGL LOG] matrix is not yet sorted, sorting host matrix
[OGL LOG] sort_host_mtx_sparsity_pattern : 178 ms
[OGL LOG] sort_host_mtx : 105 ms
[OGL LOG] init_preconditioner : 0 ms
[OGL LOG] solve : 4037 ms
noneompGKOCG:  Solving for p, Initial residual = 0.701334, Final residual = 9.39817e-05, No Iterations 443
linear solve p 4808
time step continuity errors : sum local = 9.40501e-08, global = -3.11479e-21, cumulative = 1.20791e-20
ExecutionTime = 358.71 s  ClockTime = 37 s

Time = 0.003

Courant Number mean: 0.0654742 max: 0.85009
nonePBiCGStab:  Solving for Ux, Initial residual = 0.0603441, Final residual = 0.0137586, No Iterations 5
nonePBiCGStab:  Solving for Uy, Initial residual = 0.195594, Final residual = 0.0536791, No Iterations 5
nonePBiCGStab:  Solving for Uz, Initial residual = 0.690626, Final residual = 0.194522, No Iterations 5
linear solve U 442
[OGL LOG] init_host_sparsity_pattern : 226 ms
[OGL LOG] matrix not stored update host matrix
[OGL LOG] update_host_mtx : 127 ms
[OGL LOG] matrix is not yet sorted, sorting host matrix
[OGL LOG] sort_host_mtx_sparsity_pattern : 184 ms
[OGL LOG] sort_host_mtx : 107 ms
[OGL LOG] init_preconditioner : 0 ms
[OGL LOG] solve : 6509 ms
noneompGKOCG:  Solving for p, Initial residual = 0.778391, Final residual = 9.87063e-05, No Iterations 731
linear solve p 7295
time step continuity errors : sum local = 6.96714e-08, global = 1.17985e-20, cumulative = 2.38776e-20
[OGL LOG] init_host_sparsity_pattern : 231 ms
[OGL LOG] matrix not stored update host matrix
[OGL LOG] update_host_mtx : 127 ms
[OGL LOG] matrix is not yet sorted, sorting host matrix
[OGL LOG] sort_host_mtx_sparsity_pattern : 178 ms
[OGL LOG] sort_host_mtx : 105 ms
[OGL LOG] init_preconditioner : 0 ms
[OGL LOG] solve : 6614 ms
noneompGKOCG:  Solving for p, Initial residual = 0.707023, Final residual = 9.55138e-05, No Iterations 730
linear solve p 7385
time step continuity errors : sum local = 6.56992e-08, global = -2.86621e-21, cumulative = 2.10114e-20
ExecutionTime = 570.71 s  ClockTime = 53 s

Time = 0.004

Courant Number mean: 0.0789373 max: 0.864942
nonePBiCGStab:  Solving for Ux, Initial residual = 0.03764, Final residual = 0.00929836, No Iterations 5
nonePBiCGStab:  Solving for Uy, Initial residual = 0.138329, Final residual = 0.0427885, No Iterations 5
nonePBiCGStab:  Solving for Uz, Initial residual = 0.459937, Final residual = 0.116874, No Iterations 5
linear solve U 454
[OGL LOG] init_host_sparsity_pattern : 229 ms
[OGL LOG] matrix not stored update host matrix
[OGL LOG] update_host_mtx : 127 ms
[OGL LOG] matrix is not yet sorted, sorting host matrix
[OGL LOG] sort_host_mtx_sparsity_pattern : 183 ms
[OGL LOG] sort_host_mtx : 105 ms
[OGL LOG] init_preconditioner : 0 ms
[OGL LOG] solve : 3178 ms
noneompGKOCG:  Solving for p, Initial residual = 0.688447, Final residual = 9.87639e-05, No Iterations 351
linear solve p 3963
time step continuity errors : sum local = 7.65367e-08, global = 1.227e-21, cumulative = 2.22384e-20
[OGL LOG] init_host_sparsity_pattern : 226 ms
[OGL LOG] matrix not stored update host matrix
[OGL LOG] update_host_mtx : 127 ms
[OGL LOG] matrix is not yet sorted, sorting host matrix
[OGL LOG] sort_host_mtx_sparsity_pattern : 178 ms
[OGL LOG] sort_host_mtx : 105 ms
[OGL LOG] init_preconditioner : 0 ms
[OGL LOG] solve : 3175 ms
noneompGKOCG:  Solving for p, Initial residual = 0.592653, Final residual = 9.78279e-05, No Iterations 349
linear solve p 3939
time step continuity errors : sum local = 7.37405e-08, global = -6.79587e-21, cumulative = 1.54425e-20
ExecutionTime = 674.79 s  ClockTime = 62 s

Time = 0.005

Courant Number mean: 0.0895856 max: 0.877408
nonePBiCGStab:  Solving for Ux, Initial residual = 0.0286417, Final residual = 0.0074678, No Iterations 5
nonePBiCGStab:  Solving for Uy, Initial residual = 0.0903063, Final residual = 0.0307364, No Iterations 5
nonePBiCGStab:  Solving for Uz, Initial residual = 0.271896, Final residual = 0.0689128, No Iterations 5
linear solve U 442
[OGL LOG] init_host_sparsity_pattern : 226 ms
[OGL LOG] matrix not stored update host matrix
[OGL LOG] update_host_mtx : 127 ms
[OGL LOG] matrix is not yet sorted, sorting host matrix
[OGL LOG] sort_host_mtx_sparsity_pattern : 178 ms
[OGL LOG] sort_host_mtx : 106 ms
[OGL LOG] init_preconditioner : 0 ms
[OGL LOG] solve : 3145 ms
noneompGKOCG:  Solving for p, Initial residual = 0.723936, Final residual = 9.52897e-05, No Iterations 346
linear solve p 3910
time step continuity errors : sum local = 6.49849e-08, global = 1.12483e-20, cumulative = 2.66908e-20
[OGL LOG] init_host_sparsity_pattern : 226 ms
[OGL LOG] matrix not stored update host matrix
[OGL LOG] update_host_mtx : 127 ms
[OGL LOG] matrix is not yet sorted, sorting host matrix
[OGL LOG] sort_host_mtx_sparsity_pattern : 178 ms
[OGL LOG] sort_host_mtx : 105 ms
[OGL LOG] init_preconditioner : 0 ms
[OGL LOG] solve : 3141 ms
noneompGKOCG:  Solving for p, Initial residual = 0.640192, Final residual = 9.66704e-05, No Iterations 344
linear solve p 3906
time step continuity errors : sum local = 6.29557e-08, global = 6.39381e-21, cumulative = 3.30846e-20
ExecutionTime = 777.75 s  ClockTime = 70 s

Time = 0.006

Courant Number mean: 0.0978353 max: 0.884253
nonePBiCGStab:  Solving for Ux, Initial residual = 0.022296, Final residual = 0.00592536, No Iterations 5
nonePBiCGStab:  Solving for Uy, Initial residual = 0.0723763, Final residual = 0.0240805, No Iterations 5
nonePBiCGStab:  Solving for Uz, Initial residual = 0.212579, Final residual = 0.0606794, No Iterations 5
linear solve U 443
[OGL LOG] init_host_sparsity_pattern : 228 ms
[OGL LOG] matrix not stored update host matrix
[OGL LOG] update_host_mtx : 128 ms
[OGL LOG] matrix is not yet sorted, sorting host matrix
[OGL LOG] sort_host_mtx_sparsity_pattern : 178 ms
[OGL LOG] sort_host_mtx : 105 ms
[OGL LOG] init_preconditioner : 0 ms
[OGL LOG] solve : 3101 ms
noneompGKOCG:  Solving for p, Initial residual = 0.651063, Final residual = 9.97533e-05, No Iterations 341
linear solve p 3868
time step continuity errors : sum local = 7.12162e-08, global = 5.51132e-21, cumulative = 3.85959e-20
[OGL LOG] init_host_sparsity_pattern : 229 ms
[OGL LOG] matrix not stored update host matrix
[OGL LOG] update_host_mtx : 127 ms
[OGL LOG] matrix is not yet sorted, sorting host matrix
[OGL LOG] sort_host_mtx_sparsity_pattern : 178 ms
[OGL LOG] sort_host_mtx : 105 ms
[OGL LOG] init_preconditioner : 0 ms
[OGL LOG] solve : 2993 ms
noneompGKOCG:  Solving for p, Initial residual = 0.558532, Final residual = 9.86299e-05, No Iterations 331
linear solve p 3760
time step continuity errors : sum local = 6.95112e-08, global = 1.98733e-20, cumulative = 5.84692e-20
ExecutionTime = 877.66 s  ClockTime = 79 s

Time = 0.007

Courant Number mean: 0.104798 max: 0.889602
nonePBiCGStab:  Solving for Ux, Initial residual = 0.0189468, Final residual = 0.00480462, No Iterations 5
nonePBiCGStab:  Solving for Uy, Initial residual = 0.0561813, Final residual = 0.0194372, No Iterations 5
nonePBiCGStab:  Solving for Uz, Initial residual = 0.159637, Final residual = 0.0447715, No Iterations 5
linear solve U 444
[OGL LOG] init_host_sparsity_pattern : 227 ms
[OGL LOG] matrix not stored update host matrix
[OGL LOG] update_host_mtx : 127 ms
[OGL LOG] matrix is not yet sorted, sorting host matrix
[OGL LOG] sort_host_mtx_sparsity_pattern : 178 ms
[OGL LOG] sort_host_mtx : 105 ms
[OGL LOG] init_preconditioner : 0 ms
[OGL LOG] solve : 2982 ms
noneompGKOCG:  Solving for p, Initial residual = 0.687881, Final residual = 9.79679e-05, No Iterations 330
linear solve p 3746
time step continuity errors : sum local = 6.4362e-08, global = 5.52639e-21, cumulative = 6.39956e-20
[OGL LOG] init_host_sparsity_pattern : 227 ms
[OGL LOG] matrix not stored update host matrix
[OGL LOG] update_host_mtx : 127 ms
[OGL LOG] matrix is not yet sorted, sorting host matrix
[OGL LOG] sort_host_mtx_sparsity_pattern : 178 ms
[OGL LOG] sort_host_mtx : 105 ms
[OGL LOG] init_preconditioner : 0 ms
[OGL LOG] solve : 2975 ms
noneompGKOCG:  Solving for p, Initial residual = 0.596932, Final residual = 9.98869e-05, No Iterations 328
linear solve p 3741
time step continuity errors : sum local = 6.3452e-08, global = -3.92916e-21, cumulative = 6.00664e-20
ExecutionTime = 975.36 s  ClockTime = 87 s

Time = 0.008

Courant Number mean: 0.110772 max: 0.893421
nonePBiCGStab:  Solving for Ux, Initial residual = 0.0158774, Final residual = 0.00431004, No Iterations 5
nonePBiCGStab:  Solving for Uy, Initial residual = 0.0483867, Final residual = 0.0143958, No Iterations 5
nonePBiCGStab:  Solving for Uz, Initial residual = 0.136275, Final residual = 0.0417548, No Iterations 5
linear solve U 442
[OGL LOG] init_host_sparsity_pattern : 226 ms
[OGL LOG] matrix not stored update host matrix
[OGL LOG] update_host_mtx : 128 ms
[OGL LOG] matrix is not yet sorted, sorting host matrix
[OGL LOG] sort_host_mtx_sparsity_pattern : 185 ms
[OGL LOG] sort_host_mtx : 105 ms
[OGL LOG] init_preconditioner : 0 ms
[OGL LOG] solve : 2991 ms
noneompGKOCG:  Solving for p, Initial residual = 0.627625, Final residual = 9.47033e-05, No Iterations 332
linear solve p 3776
time step continuity errors : sum local = 6.30701e-08, global = -5.0502e-21, cumulative = 5.50162e-20
[OGL LOG] init_host_sparsity_pattern : 231 ms
[OGL LOG] matrix not stored update host matrix
[OGL LOG] update_host_mtx : 127 ms
[OGL LOG] matrix is not yet sorted, sorting host matrix
[OGL LOG] sort_host_mtx_sparsity_pattern : 178 ms
[OGL LOG] sort_host_mtx : 105 ms
[OGL LOG] init_preconditioner : 0 ms
[OGL LOG] solve : 3005 ms
noneompGKOCG:  Solving for p, Initial residual = 0.536294, Final residual = 9.72842e-05, No Iterations 330
linear solve p 3774
time step continuity errors : sum local = 6.58628e-08, global = -4.79476e-21, cumulative = 5.02215e-20
ExecutionTime = 1073.71 s  ClockTime = 96 s

Time = 0.009

Courant Number mean: 0.116048 max: 0.896651
nonePBiCGStab:  Solving for Ux, Initial residual = 0.0143156, Final residual = 0.00340161, No Iterations 5
nonePBiCGStab:  Solving for Uy, Initial residual = 0.0404788, Final residual = 0.0127258, No Iterations 5
nonePBiCGStab:  Solving for Uz, Initial residual = 0.112581, Final residual = 0.0338257, No Iterations 5
linear solve U 443
[OGL LOG] init_host_sparsity_pattern : 226 ms
[OGL LOG] matrix not stored update host matrix
[OGL LOG] update_host_mtx : 127 ms
[OGL LOG] matrix is not yet sorted, sorting host matrix
[OGL LOG] sort_host_mtx_sparsity_pattern : 178 ms
[OGL LOG] sort_host_mtx : 105 ms
[OGL LOG] init_preconditioner : 0 ms
[OGL LOG] solve : 3103 ms
noneompGKOCG:  Solving for p, Initial residual = 0.665898, Final residual = 9.97975e-05, No Iterations 341
linear solve p 3866
time step continuity errors : sum local = 6.93677e-08, global = -5.66654e-22, cumulative = 4.96548e-20
[OGL LOG] init_host_sparsity_pattern : 228 ms
[OGL LOG] matrix not stored update host matrix
[OGL LOG] update_host_mtx : 127 ms
[OGL LOG] matrix is not yet sorted, sorting host matrix
[OGL LOG] sort_host_mtx_sparsity_pattern : 178 ms
[OGL LOG] sort_host_mtx : 105 ms
[OGL LOG] init_preconditioner : 0 ms
[OGL LOG] solve : 3003 ms
noneompGKOCG:  Solving for p, Initial residual = 0.573321, Final residual = 9.54688e-05, No Iterations 330
linear solve p 3767
time step continuity errors : sum local = 6.27208e-08, global = 9.62992e-21, cumulative = 5.92847e-20
ExecutionTime = 1173.77 s  ClockTime = 105 s

Time = 0.01

Courant Number mean: 0.12081 max: 0.899112
nonePBiCGStab:  Solving for Ux, Initial residual = 0.0124618, Final residual = 0.00287267, No Iterations 5
nonePBiCGStab:  Solving for Uy, Initial residual = 0.0364127, Final residual = 0.00974489, No Iterations 5
nonePBiCGStab:  Solving for Uz, Initial residual = 0.103736, Final residual = 0.0328504, No Iterations 5
linear solve U 441
[OGL LOG] init_host_sparsity_pattern : 227 ms
[OGL LOG] matrix not stored update host matrix
[OGL LOG] update_host_mtx : 127 ms
[OGL LOG] matrix is not yet sorted, sorting host matrix
[OGL LOG] sort_host_mtx_sparsity_pattern : 178 ms
[OGL LOG] sort_host_mtx : 106 ms
[OGL LOG] init_preconditioner : 0 ms
[OGL LOG] solve : 3007 ms
noneompGKOCG:  Solving for p, Initial residual = 0.612982, Final residual = 9.53665e-05, No Iterations 331
linear solve p 3772
time step continuity errors : sum local = 6.79696e-08, global = -3.43468e-21, cumulative = 5.585e-20
[OGL LOG] init_host_sparsity_pattern : 226 ms
[OGL LOG] matrix not stored update host matrix
[OGL LOG] update_host_mtx : 128 ms
[OGL LOG] matrix is not yet sorted, sorting host matrix
[OGL LOG] sort_host_mtx_sparsity_pattern : 178 ms
[OGL LOG] sort_host_mtx : 105 ms
[OGL LOG] init_preconditioner : 0 ms
[OGL LOG] solve : 2971 ms
noneompGKOCG:  Solving for p, Initial residual = 0.524234, Final residual = 9.77189e-05, No Iterations 328
linear solve p 3737
time step continuity errors : sum local = 6.47976e-08, global = -2.72115e-21, cumulative = 5.31289e-20
ExecutionTime = 1271.81 s  ClockTime = 113 s

End

