/*---------------------------------------------------------------------------*\
  =========                 |
  \\      /  F ield         | OpenFOAM: The Open Source CFD Toolbox
   \\    /   O peration     | Website:  https://openfoam.org
    \\  /    A nd           | Version:  8
     \\/     M anipulation  |
\*---------------------------------------------------------------------------*/
Build  : 8-40a5a48f630f
Exec   : icoFoam
Date   : Jul 28 2021
Time   : 01:47:56
Host   : "uc2n559.localdomain"
PID    : 3610346
I/O    : uncollated
Case   : /pfs/data5/home/kit/scc/nq7776/code/OBR/lidDrivenCavity3D/Variation_mesh/90/Variation_matrix_solver/BiCGStab_BJ_OMP/base
nProcs : 1
sigFpe : Enabling floating point exception trapping (FOAM_SIGFPE).
fileModificationChecking : Monitoring run-time modified files using timeStampMaster (fileModificationSkew 10)
allowSystemOperations : Allowing user-supplied system call operations

// * * * * * * * * * * * * * * * * * * * * * * * * * * * * * * * * * * * * * //
Create time

Create mesh for time = 0

Reading transportProperties

Reading field p

Reading field U

Reading/calculating face flux field phi


Starting time loop

Time = 0.001

Courant Number mean: 0 max: 0
nonePBiCGStab:  Solving for Ux, Initial residual = 1, Final residual = 0.0756268, No Iterations 5
nonePBiCGStab:  Solving for Uy, Initial residual = 0, Final residual = 0, No Iterations 0
nonePBiCGStab:  Solving for Uz, Initial residual = 0, Final residual = 0, No Iterations 0
linear solve U 197
[OGL LOG] init_host_sparsity_pattern : 220 ms
[OGL LOG] matrix not stored update host matrix
[OGL LOG] update_host_mtx : 114 ms
[OGL LOG] matrix is not yet sorted, compute sorting idxs
[OGL LOG] compute_sort : 6951 ms
[OGL LOG] matrix is not yet sorted, sorting host matrix
[OGL LOG] sort_host_mtx_sparsity_pattern : 159 ms
[OGL LOG] sort_host_mtx : 93 ms
[OGL LOG] init_preconditioner : 36 ms
[OGL LOG] solve : 11534 ms
BJompGKOBiCGStab:  Solving for p, Initial residual = 1, Final residual = 8.64788e-05, No Iterations 485
linear solve p 19315
time step continuity errors : sum local = 6.75104e-08, global = -7.35084e-21, cumulative = -7.35084e-21
[OGL LOG] init_host_sparsity_pattern : 207 ms
[OGL LOG] matrix not stored update host matrix
[OGL LOG] update_host_mtx : 107 ms
[OGL LOG] matrix is not yet sorted, sorting host matrix
[OGL LOG] sort_host_mtx_sparsity_pattern : 167 ms
[OGL LOG] sort_host_mtx : 89 ms
[OGL LOG] init_preconditioner : 0 ms
[OGL LOG] solve : 9324 ms
BJompGKOBiCGStab:  Solving for p, Initial residual = 0.701132, Final residual = 9.69855e-05, No Iterations 448
linear solve p 10044
time step continuity errors : sum local = 1.4212e-07, global = 6.037e-22, cumulative = -6.74714e-21
ExecutionTime = 670.53 s  ClockTime = 34 s

Time = 0.002

Courant Number mean: 0.0401009 max: 0.699777
nonePBiCGStab:  Solving for Ux, Initial residual = 0.140413, Final residual = 0.0352795, No Iterations 5
nonePBiCGStab:  Solving for Uy, Initial residual = 0.428673, Final residual = 0.104698, No Iterations 5
nonePBiCGStab:  Solving for Uz, Initial residual = 0.978406, Final residual = 0.28112, No Iterations 5
linear solve U 391
[OGL LOG] init_host_sparsity_pattern : 200 ms
[OGL LOG] matrix not stored update host matrix
[OGL LOG] update_host_mtx : 108 ms
[OGL LOG] matrix is not yet sorted, sorting host matrix
[OGL LOG] sort_host_mtx_sparsity_pattern : 155 ms
[OGL LOG] sort_host_mtx : 89 ms
[OGL LOG] init_preconditioner : 0 ms
[OGL LOG] solve : 8995 ms
BJompGKOBiCGStab:  Solving for p, Initial residual = 0.764409, Final residual = 9.82208e-05, No Iterations 451
linear solve p 9668
time step continuity errors : sum local = 1.81479e-07, global = 9.27237e-21, cumulative = 2.52523e-21
[OGL LOG] init_host_sparsity_pattern : 198 ms
[OGL LOG] matrix not stored update host matrix
[OGL LOG] update_host_mtx : 107 ms
[OGL LOG] matrix is not yet sorted, sorting host matrix
[OGL LOG] sort_host_mtx_sparsity_pattern : 155 ms
[OGL LOG] sort_host_mtx : 89 ms
[OGL LOG] init_preconditioner : 0 ms
[OGL LOG] solve : 9967 ms
BJompGKOBiCGStab:  Solving for p, Initial residual = 0.686729, Final residual = 8.8697e-05, No Iterations 448
linear solve p 10646
time step continuity errors : sum local = 1.66174e-06, global = -5.65039e-21, cumulative = -3.12516e-21
ExecutionTime = 1277.34 s  ClockTime = 55 s

Time = 0.003

Courant Number mean: 0.0633501 max: 0.80123
nonePBiCGStab:  Solving for Ux, Initial residual = 0.0595553, Final residual = 0.0123909, No Iterations 5
nonePBiCGStab:  Solving for Uy, Initial residual = 0.183512, Final residual = 0.048267, No Iterations 5
nonePBiCGStab:  Solving for Uz, Initial residual = 0.685074, Final residual = 0.200882, No Iterations 5
linear solve U 406
[OGL LOG] init_host_sparsity_pattern : 204 ms
[OGL LOG] matrix not stored update host matrix
[OGL LOG] update_host_mtx : 107 ms
[OGL LOG] matrix is not yet sorted, sorting host matrix
[OGL LOG] sort_host_mtx_sparsity_pattern : 154 ms
[OGL LOG] sort_host_mtx : 88 ms
[OGL LOG] init_preconditioner : 0 ms
[OGL LOG] solve : 4038 ms
BJompGKOBiCGStab:  Solving for p, Initial residual = 0.755989, Final residual = 9.57014e-05, No Iterations 191
linear solve p 4723
time step continuity errors : sum local = 1.1897e-07, global = -1.40048e-20, cumulative = -1.713e-20
[OGL LOG] init_host_sparsity_pattern : 197 ms
[OGL LOG] matrix not stored update host matrix
[OGL LOG] update_host_mtx : 107 ms
[OGL LOG] matrix is not yet sorted, sorting host matrix
[OGL LOG] sort_host_mtx_sparsity_pattern : 154 ms
[OGL LOG] sort_host_mtx : 89 ms
[OGL LOG] init_preconditioner : 0 ms
[OGL LOG] solve : 4217 ms
BJompGKOBiCGStab:  Solving for p, Initial residual = 0.68556, Final residual = 8.20637e-05, No Iterations 189
linear solve p 4894
time step continuity errors : sum local = 1.07434e-07, global = -1.88674e-21, cumulative = -1.90167e-20
ExecutionTime = 1542.89 s  ClockTime = 65 s

Time = 0.004

Courant Number mean: 0.0762413 max: 0.81691
nonePBiCGStab:  Solving for Ux, Initial residual = 0.0364878, Final residual = 0.00792448, No Iterations 5
nonePBiCGStab:  Solving for Uy, Initial residual = 0.127735, Final residual = 0.0362554, No Iterations 5
nonePBiCGStab:  Solving for Uz, Initial residual = 0.429453, Final residual = 0.102176, No Iterations 5
linear solve U 399
[OGL LOG] init_host_sparsity_pattern : 200 ms
[OGL LOG] matrix not stored update host matrix
[OGL LOG] update_host_mtx : 107 ms
[OGL LOG] matrix is not yet sorted, sorting host matrix
[OGL LOG] sort_host_mtx_sparsity_pattern : 155 ms
[OGL LOG] sort_host_mtx : 89 ms
[OGL LOG] init_preconditioner : 0 ms
[OGL LOG] solve : 4194 ms
BJompGKOBiCGStab:  Solving for p, Initial residual = 0.651181, Final residual = 6.49064e-05, No Iterations 188
linear solve p 4870
time step continuity errors : sum local = 1.33876e-07, global = -9.57218e-21, cumulative = -2.85889e-20
[OGL LOG] init_host_sparsity_pattern : 197 ms
[OGL LOG] matrix not stored update host matrix
[OGL LOG] update_host_mtx : 108 ms
[OGL LOG] matrix is not yet sorted, sorting host matrix
[OGL LOG] sort_host_mtx_sparsity_pattern : 155 ms
[OGL LOG] sort_host_mtx : 89 ms
[OGL LOG] init_preconditioner : 0 ms
[OGL LOG] solve : 4139 ms
BJompGKOBiCGStab:  Solving for p, Initial residual = 0.559598, Final residual = 9.52097e-05, No Iterations 182
linear solve p 4809
time step continuity errors : sum local = 1.23762e-07, global = 1.58137e-22, cumulative = -2.84308e-20
ExecutionTime = 1811.28 s  ClockTime = 76 s

Time = 0.005

Courant Number mean: 0.0866306 max: 0.829074
nonePBiCGStab:  Solving for Ux, Initial residual = 0.0276061, Final residual = 0.0060399, No Iterations 5
nonePBiCGStab:  Solving for Uy, Initial residual = 0.0831421, Final residual = 0.0263755, No Iterations 5
nonePBiCGStab:  Solving for Uz, Initial residual = 0.239831, Final residual = 0.0594048, No Iterations 5
linear solve U 398
[OGL LOG] init_host_sparsity_pattern : 200 ms
[OGL LOG] matrix not stored update host matrix
[OGL LOG] update_host_mtx : 107 ms
[OGL LOG] matrix is not yet sorted, sorting host matrix
[OGL LOG] sort_host_mtx_sparsity_pattern : 151 ms
[OGL LOG] sort_host_mtx : 89 ms
[OGL LOG] init_preconditioner : 0 ms
[OGL LOG] solve : 4167 ms
BJompGKOBiCGStab:  Solving for p, Initial residual = 0.682941, Final residual = 9.31186e-05, No Iterations 175
linear solve p 4833
time step continuity errors : sum local = 2.6612e-07, global = 6.07393e-21, cumulative = -2.23568e-20
[OGL LOG] init_host_sparsity_pattern : 197 ms
[OGL LOG] matrix not stored update host matrix
[OGL LOG] update_host_mtx : 108 ms
[OGL LOG] matrix is not yet sorted, sorting host matrix
[OGL LOG] sort_host_mtx_sparsity_pattern : 155 ms
[OGL LOG] sort_host_mtx : 89 ms
[OGL LOG] init_preconditioner : 0 ms
[OGL LOG] solve : 4046 ms
BJompGKOBiCGStab:  Solving for p, Initial residual = 0.602411, Final residual = 9.96647e-05, No Iterations 176
linear solve p 4716
time step continuity errors : sum local = 1.08879e-07, global = 2.74275e-20, cumulative = 5.0707e-21
ExecutionTime = 2073.97 s  ClockTime = 86 s

Time = 0.006

Courant Number mean: 0.0947062 max: 0.836052
nonePBiCGStab:  Solving for Ux, Initial residual = 0.0208016, Final residual = 0.00460987, No Iterations 5
nonePBiCGStab:  Solving for Uy, Initial residual = 0.0666531, Final residual = 0.0194195, No Iterations 5
nonePBiCGStab:  Solving for Uz, Initial residual = 0.185944, Final residual = 0.0502566, No Iterations 5
linear solve U 397
[OGL LOG] init_host_sparsity_pattern : 201 ms
[OGL LOG] matrix not stored update host matrix
[OGL LOG] update_host_mtx : 108 ms
[OGL LOG] matrix is not yet sorted, sorting host matrix
[OGL LOG] sort_host_mtx_sparsity_pattern : 150 ms
[OGL LOG] sort_host_mtx : 89 ms
[OGL LOG] init_preconditioner : 0 ms
[OGL LOG] solve : 4048 ms
BJompGKOBiCGStab:  Solving for p, Initial residual = 0.601118, Final residual = 9.69021e-05, No Iterations 184
linear solve p 4704
time step continuity errors : sum local = 1.36278e-07, global = 1.59093e-21, cumulative = 6.66163e-21
[OGL LOG] init_host_sparsity_pattern : 195 ms
[OGL LOG] matrix not stored update host matrix
[OGL LOG] update_host_mtx : 108 ms
[OGL LOG] matrix is not yet sorted, sorting host matrix
[OGL LOG] sort_host_mtx_sparsity_pattern : 152 ms
[OGL LOG] sort_host_mtx : 93 ms
[OGL LOG] init_preconditioner : 0 ms
[OGL LOG] solve : 4552 ms
BJompGKOBiCGStab:  Solving for p, Initial residual = 0.514827, Final residual = 8.13358e-05, No Iterations 179
linear solve p 5214
time step continuity errors : sum local = 1.03063e-07, global = -2.83806e-21, cumulative = 3.82357e-21
ExecutionTime = 2349.86 s  ClockTime = 97 s

Time = 0.007

Courant Number mean: 0.101573 max: 0.841241
nonePBiCGStab:  Solving for Ux, Initial residual = 0.0179402, Final residual = 0.00371918, No Iterations 5
nonePBiCGStab:  Solving for Uy, Initial residual = 0.049965, Final residual = 0.0154172, No Iterations 5
nonePBiCGStab:  Solving for Uz, Initial residual = 0.141233, Final residual = 0.0395791, No Iterations 5
linear solve U 392
[OGL LOG] init_host_sparsity_pattern : 200 ms
[OGL LOG] matrix not stored update host matrix
[OGL LOG] update_host_mtx : 107 ms
[OGL LOG] matrix is not yet sorted, sorting host matrix
[OGL LOG] sort_host_mtx_sparsity_pattern : 150 ms
[OGL LOG] sort_host_mtx : 89 ms
[OGL LOG] init_preconditioner : 0 ms
[OGL LOG] solve : 3887 ms
BJompGKOBiCGStab:  Solving for p, Initial residual = 0.6327, Final residual = 8.36865e-05, No Iterations 177
linear solve p 4542
time step continuity errors : sum local = 1.58649e-07, global = -3.59841e-21, cumulative = 2.25157e-22
[OGL LOG] init_host_sparsity_pattern : 194 ms
[OGL LOG] matrix not stored update host matrix
[OGL LOG] update_host_mtx : 107 ms
[OGL LOG] matrix is not yet sorted, sorting host matrix
[OGL LOG] sort_host_mtx_sparsity_pattern : 150 ms
[OGL LOG] sort_host_mtx : 89 ms
[OGL LOG] init_preconditioner : 0 ms
[OGL LOG] solve : 3919 ms
BJompGKOBiCGStab:  Solving for p, Initial residual = 0.548322, Final residual = 9.83705e-05, No Iterations 176
linear solve p 4572
time step continuity errors : sum local = 1.04913e-07, global = -2.09944e-21, cumulative = -1.87428e-21
ExecutionTime = 2601.71 s  ClockTime = 107 s

Time = 0.008

Courant Number mean: 0.107398 max: 0.844994
nonePBiCGStab:  Solving for Ux, Initial residual = 0.0144962, Final residual = 0.00324544, No Iterations 5
nonePBiCGStab:  Solving for Uy, Initial residual = 0.0444011, Final residual = 0.0115861, No Iterations 5
nonePBiCGStab:  Solving for Uz, Initial residual = 0.125151, Final residual = 0.0365842, No Iterations 5
linear solve U 392
[OGL LOG] init_host_sparsity_pattern : 201 ms
[OGL LOG] matrix not stored update host matrix
[OGL LOG] update_host_mtx : 108 ms
[OGL LOG] matrix is not yet sorted, sorting host matrix
[OGL LOG] sort_host_mtx_sparsity_pattern : 150 ms
[OGL LOG] sort_host_mtx : 89 ms
[OGL LOG] init_preconditioner : 0 ms
[OGL LOG] solve : 6767 ms
BJompGKOBiCGStab:  Solving for p, Initial residual = 0.571114, Final residual = 6.08566e-05, No Iterations 309
linear solve p 7423
time step continuity errors : sum local = 3.60503e-05, global = -9.86334e-21, cumulative = -1.17376e-20
[OGL LOG] init_host_sparsity_pattern : 193 ms
[OGL LOG] matrix not stored update host matrix
[OGL LOG] update_host_mtx : 107 ms
[OGL LOG] matrix is not yet sorted, sorting host matrix
[OGL LOG] sort_host_mtx_sparsity_pattern : 151 ms
[OGL LOG] sort_host_mtx : 89 ms
[OGL LOG] init_preconditioner : 0 ms
[OGL LOG] solve : 9010 ms
BJompGKOBiCGStab:  Solving for p, Initial residual = 0.509026, Final residual = 9.993e-05, No Iterations 415
linear solve p 9668
time step continuity errors : sum local = 6.92235e-08, global = 8.08267e-21, cumulative = -3.65494e-21
ExecutionTime = 3107.11 s  ClockTime = 125 s

Time = 0.009

Courant Number mean: 0.112551 max: 0.848141
nonePBiCGStab:  Solving for Ux, Initial residual = 0.013603, Final residual = 0.00475033, No Iterations 5
nonePBiCGStab:  Solving for Uy, Initial residual = 0.0412079, Final residual = 0.0162634, No Iterations 5
nonePBiCGStab:  Solving for Uz, Initial residual = 0.247605, Final residual = 0.0971932, No Iterations 5
linear solve U 387
[OGL LOG] init_host_sparsity_pattern : 200 ms
[OGL LOG] matrix not stored update host matrix
[OGL LOG] update_host_mtx : 108 ms
[OGL LOG] matrix is not yet sorted, sorting host matrix
[OGL LOG] sort_host_mtx_sparsity_pattern : 155 ms
[OGL LOG] sort_host_mtx : 89 ms
[OGL LOG] init_preconditioner : 0 ms
[OGL LOG] solve : 9238 ms
BJompGKOBiCGStab:  Solving for p, Initial residual = 0.631166, Final residual = 3.24299e-05, No Iterations 420
linear solve p 9912
time step continuity errors : sum local = 6.65848e-07, global = -4.9888e-22, cumulative = -4.15382e-21
[OGL LOG] init_host_sparsity_pattern : 193 ms
[OGL LOG] matrix not stored update host matrix
[OGL LOG] update_host_mtx : 107 ms
[OGL LOG] matrix is not yet sorted, sorting host matrix
[OGL LOG] sort_host_mtx_sparsity_pattern : 150 ms
[OGL LOG] sort_host_mtx : 89 ms
[OGL LOG] init_preconditioner : 0 ms
[OGL LOG] solve : 8291 ms
BJompGKOBiCGStab:  Solving for p, Initial residual = 0.541458, Final residual = 5.4598e-05, No Iterations 391
linear solve p 8940
time step continuity errors : sum local = 3.66931e-08, global = -5.32352e-22, cumulative = -4.68618e-21
ExecutionTime = 3668.62 s  ClockTime = 145 s

Time = 0.01

Courant Number mean: 0.116175 max: 0.849972
nonePBiCGStab:  Solving for Ux, Initial residual = 0.012096, Final residual = 0.00294172, No Iterations 5
nonePBiCGStab:  Solving for Uy, Initial residual = 0.0347357, Final residual = 0.00986006, No Iterations 5
nonePBiCGStab:  Solving for Uz, Initial residual = 0.145847, Final residual = 0.0416151, No Iterations 5
linear solve U 400
[OGL LOG] init_host_sparsity_pattern : 202 ms
[OGL LOG] matrix not stored update host matrix
[OGL LOG] update_host_mtx : 108 ms
[OGL LOG] matrix is not yet sorted, sorting host matrix
[OGL LOG] sort_host_mtx_sparsity_pattern : 155 ms
[OGL LOG] sort_host_mtx : 89 ms
[OGL LOG] init_preconditioner : 0 ms
[OGL LOG] solve : 7745 ms
BJompGKOBiCGStab:  Solving for p, Initial residual = 0.588201, Final residual = 9.94956e-05, No Iterations 346
linear solve p 8418
time step continuity errors : sum local = 1.22196e-07, global = -5.68628e-21, cumulative = -1.03725e-20
[OGL LOG] init_host_sparsity_pattern : 193 ms
[OGL LOG] matrix not stored update host matrix
[OGL LOG] update_host_mtx : 108 ms
[OGL LOG] matrix is not yet sorted, sorting host matrix
[OGL LOG] sort_host_mtx_sparsity_pattern : 151 ms
[OGL LOG] sort_host_mtx : 90 ms
[OGL LOG] init_preconditioner : 0 ms
[OGL LOG] solve : 7469 ms
BJompGKOBiCGStab:  Solving for p, Initial residual = 0.498667, Final residual = 8.99858e-05, No Iterations 333
linear solve p 8123
time step continuity errors : sum local = 2.07459e-05, global = -8.93478e-21, cumulative = -1.93072e-20
ExecutionTime = 4156.6 s  ClockTime = 162 s

End

