/*---------------------------------------------------------------------------*\
  =========                 |
  \\      /  F ield         | OpenFOAM: The Open Source CFD Toolbox
   \\    /   O peration     | Website:  https://openfoam.org
    \\  /    A nd           | Version:  8
     \\/     M anipulation  |
\*---------------------------------------------------------------------------*/
Build  : 8-40a5a48f630f
Exec   : icoFoam
Date   : Jul 27 2021
Time   : 23:20:39
Host   : "uc2n481.localdomain"
PID    : 188801
I/O    : uncollated
Case   : /pfs/data5/home/kit/scc/nq7776/code/OBR/lidDrivenCavity3D/Variation_mesh/60/Variation_matrix_solver/BiCGStab_NoPrecond_CUDA/base
nProcs : 1
sigFpe : Enabling floating point exception trapping (FOAM_SIGFPE).
fileModificationChecking : Monitoring run-time modified files using timeStampMaster (fileModificationSkew 10)
allowSystemOperations : Allowing user-supplied system call operations

// * * * * * * * * * * * * * * * * * * * * * * * * * * * * * * * * * * * * * //
Create time

Create mesh for time = 0

Reading transportProperties

Reading field p

Reading field U

Reading/calculating face flux field phi


Starting time loop

Time = 0.001

Courant Number mean: 0 max: 0
nonePBiCGStab:  Solving for Ux, Initial residual = 1, Final residual = 0.0470662, No Iterations 5
nonePBiCGStab:  Solving for Uy, Initial residual = 0, Final residual = 0, No Iterations 0
nonePBiCGStab:  Solving for Uz, Initial residual = 0, Final residual = 0, No Iterations 0
linear solve U 57
[OGL LOG] init_host_sparsity_pattern : 62 ms
[OGL LOG] matrix not stored update host matrix
[OGL LOG] update_host_mtx : 32 ms
[OGL LOG] matrix is not yet sorted, compute sorting idxs
[OGL LOG] compute_sort : 1807 ms
[OGL LOG] matrix is not yet sorted, sorting host matrix
[OGL LOG] sort_host_mtx_sparsity_pattern : 43 ms
[OGL LOG] sort_host_mtx : 21 ms
[OGL LOG] init_preconditioner : 0 ms
[OGL LOG] solve : 254 ms
nonecudaGKOBiCGStab:  Solving for p, Initial residual = 1, Final residual = 7.3042e-05, No Iterations 380
linear solve p 3015
time step continuity errors : sum local = 7.24821e-08, global = -1.86471e-20, cumulative = -1.86471e-20
[OGL LOG] init_host_sparsity_pattern : 59 ms
[OGL LOG] matrix not stored update host matrix
[OGL LOG] update_host_mtx : 32 ms
[OGL LOG] matrix is not yet sorted, sorting host matrix
[OGL LOG] sort_host_mtx_sparsity_pattern : 52 ms
[OGL LOG] sort_host_mtx : 25 ms
[OGL LOG] init_preconditioner : 0 ms
[OGL LOG] solve : 253 ms
nonecudaGKOBiCGStab:  Solving for p, Initial residual = 0.665382, Final residual = 9.98366e-05, No Iterations 376
linear solve p 440
time step continuity errors : sum local = 0.000114788, global = 1.14346e-19, cumulative = 9.56984e-20
ExecutionTime = 4.43 s  ClockTime = 4 s

Time = 0.002

Courant Number mean: 0.0308088 max: 0.423178
nonePBiCGStab:  Solving for Ux, Initial residual = 0.155572, Final residual = 0.0178545, No Iterations 5
nonePBiCGStab:  Solving for Uy, Initial residual = 0.350965, Final residual = 0.0353533, No Iterations 5
nonePBiCGStab:  Solving for Uz, Initial residual = 0.75135, Final residual = 0.110646, No Iterations 5
linear solve U 112
[OGL LOG] init_host_sparsity_pattern : 58 ms
[OGL LOG] matrix not stored update host matrix
[OGL LOG] update_host_mtx : 28 ms
[OGL LOG] matrix is not yet sorted, sorting host matrix
[OGL LOG] sort_host_mtx_sparsity_pattern : 41 ms
[OGL LOG] sort_host_mtx : 22 ms
[OGL LOG] init_preconditioner : 0 ms
[OGL LOG] solve : 254 ms
nonecudaGKOBiCGStab:  Solving for p, Initial residual = 0.764706, Final residual = 2.79029e-05, No Iterations 376
linear solve p 418
time step continuity errors : sum local = 0.00177321, global = -3.19994e-18, cumulative = -3.10425e-18
[OGL LOG] init_host_sparsity_pattern : 58 ms
[OGL LOG] matrix not stored update host matrix
[OGL LOG] update_host_mtx : 28 ms
[OGL LOG] matrix is not yet sorted, sorting host matrix
[OGL LOG] sort_host_mtx_sparsity_pattern : 42 ms
[OGL LOG] sort_host_mtx : 22 ms
[OGL LOG] init_preconditioner : 0 ms
[OGL LOG] solve : 114 ms
nonecudaGKOBiCGStab:  Solving for p, Initial residual = 0.772922, Final residual = 9.72627e-05, No Iterations 167
linear solve p 280
time step continuity errors : sum local = 5.81327e-07, global = 9.90657e-21, cumulative = -3.09434e-18
ExecutionTime = 5.36 s  ClockTime = 5 s

Time = 0.003

Courant Number mean: 0.0471554 max: 0.512533
nonePBiCGStab:  Solving for Ux, Initial residual = 0.0551272, Final residual = 0.00471638, No Iterations 5
nonePBiCGStab:  Solving for Uy, Initial residual = 0.12493, Final residual = 0.014636, No Iterations 5
nonePBiCGStab:  Solving for Uz, Initial residual = 0.836466, Final residual = 0.113516, No Iterations 5
linear solve U 112
[OGL LOG] init_host_sparsity_pattern : 58 ms
[OGL LOG] matrix not stored update host matrix
[OGL LOG] update_host_mtx : 27 ms
[OGL LOG] matrix is not yet sorted, sorting host matrix
[OGL LOG] sort_host_mtx_sparsity_pattern : 41 ms
[OGL LOG] sort_host_mtx : 22 ms
[OGL LOG] init_preconditioner : 0 ms
[OGL LOG] solve : 222 ms
nonecudaGKOBiCGStab:  Solving for p, Initial residual = 0.953786, Final residual = 9.33473e-05, No Iterations 330
linear solve p 385
time step continuity errors : sum local = 0.000665642, global = -1.95755e-19, cumulative = -3.29009e-18
[OGL LOG] init_host_sparsity_pattern : 58 ms
[OGL LOG] matrix not stored update host matrix
[OGL LOG] update_host_mtx : 28 ms
[OGL LOG] matrix is not yet sorted, sorting host matrix
[OGL LOG] sort_host_mtx_sparsity_pattern : 40 ms
[OGL LOG] sort_host_mtx : 22 ms
[OGL LOG] init_preconditioner : 0 ms
[OGL LOG] solve : 108 ms
nonecudaGKOBiCGStab:  Solving for p, Initial residual = 0.782088, Final residual = 9.44623e-05, No Iterations 158
linear solve p 271
time step continuity errors : sum local = 1.13351e-06, global = -5.30869e-21, cumulative = -3.2954e-18
ExecutionTime = 6.25 s  ClockTime = 6 s

Time = 0.004

Courant Number mean: 0.0580987 max: 0.563612
nonePBiCGStab:  Solving for Ux, Initial residual = 0.0390533, Final residual = 0.00331735, No Iterations 5
nonePBiCGStab:  Solving for Uy, Initial residual = 0.0993427, Final residual = 0.00956655, No Iterations 5
nonePBiCGStab:  Solving for Uz, Initial residual = 0.809723, Final residual = 0.0817569, No Iterations 5
linear solve U 113
[OGL LOG] init_host_sparsity_pattern : 60 ms
[OGL LOG] matrix not stored update host matrix
[OGL LOG] update_host_mtx : 28 ms
[OGL LOG] matrix is not yet sorted, sorting host matrix
[OGL LOG] sort_host_mtx_sparsity_pattern : 41 ms
[OGL LOG] sort_host_mtx : 22 ms
[OGL LOG] init_preconditioner : 0 ms
[OGL LOG] solve : 222 ms
nonecudaGKOBiCGStab:  Solving for p, Initial residual = 0.926516, Final residual = 9.96621e-05, No Iterations 329
linear solve p 389
time step continuity errors : sum local = 0.000723775, global = 6.694e-19, cumulative = -2.626e-18
[OGL LOG] init_host_sparsity_pattern : 58 ms
[OGL LOG] matrix not stored update host matrix
[OGL LOG] update_host_mtx : 28 ms
[OGL LOG] matrix is not yet sorted, sorting host matrix
[OGL LOG] sort_host_mtx_sparsity_pattern : 40 ms
[OGL LOG] sort_host_mtx : 22 ms
[OGL LOG] init_preconditioner : 0 ms
[OGL LOG] solve : 211 ms
nonecudaGKOBiCGStab:  Solving for p, Initial residual = 0.751994, Final residual = 9.9875e-05, No Iterations 314
linear solve p 374
time step continuity errors : sum local = 4.10165e-05, global = -2.30907e-20, cumulative = -2.64909e-18
ExecutionTime = 7.26 s  ClockTime = 7 s

Time = 0.005

Courant Number mean: 0.0640661 max: 0.55712
nonePBiCGStab:  Solving for Ux, Initial residual = 0.0259064, Final residual = 0.0024263, No Iterations 5
nonePBiCGStab:  Solving for Uy, Initial residual = 0.0717791, Final residual = 0.00950842, No Iterations 5
nonePBiCGStab:  Solving for Uz, Initial residual = 0.842653, Final residual = 0.0772447, No Iterations 5
linear solve U 113
[OGL LOG] init_host_sparsity_pattern : 59 ms
[OGL LOG] matrix not stored update host matrix
[OGL LOG] update_host_mtx : 28 ms
[OGL LOG] matrix is not yet sorted, sorting host matrix
[OGL LOG] sort_host_mtx_sparsity_pattern : 41 ms
[OGL LOG] sort_host_mtx : 22 ms
[OGL LOG] init_preconditioner : 0 ms
[OGL LOG] solve : 220 ms
nonecudaGKOBiCGStab:  Solving for p, Initial residual = 0.926451, Final residual = 9.70517e-05, No Iterations 326
linear solve p 383
time step continuity errors : sum local = 0.000893902, global = 8.27282e-19, cumulative = -1.82181e-18
[OGL LOG] init_host_sparsity_pattern : 58 ms
[OGL LOG] matrix not stored update host matrix
[OGL LOG] update_host_mtx : 29 ms
[OGL LOG] matrix is not yet sorted, sorting host matrix
[OGL LOG] sort_host_mtx_sparsity_pattern : 40 ms
[OGL LOG] sort_host_mtx : 22 ms
[OGL LOG] init_preconditioner : 0 ms
[OGL LOG] solve : 220 ms
nonecudaGKOBiCGStab:  Solving for p, Initial residual = 0.742212, Final residual = 9.73606e-05, No Iterations 327
linear solve p 384
time step continuity errors : sum local = 0.000632092, global = -1.11508e-18, cumulative = -2.93689e-18
ExecutionTime = 8.27 s  ClockTime = 8 s

Time = 0.006

Courant Number mean: 0.0701394 max: 0.573158
nonePBiCGStab:  Solving for Ux, Initial residual = 0.0241827, Final residual = 0.00235961, No Iterations 5
nonePBiCGStab:  Solving for Uy, Initial residual = 0.061062, Final residual = 0.0100336, No Iterations 5
nonePBiCGStab:  Solving for Uz, Initial residual = 0.844946, Final residual = 0.0957498, No Iterations 5
linear solve U 112
[OGL LOG] init_host_sparsity_pattern : 58 ms
[OGL LOG] matrix not stored update host matrix
[OGL LOG] update_host_mtx : 28 ms
[OGL LOG] matrix is not yet sorted, sorting host matrix
[OGL LOG] sort_host_mtx_sparsity_pattern : 40 ms
[OGL LOG] sort_host_mtx : 22 ms
[OGL LOG] init_preconditioner : 0 ms
[OGL LOG] solve : 224 ms
nonecudaGKOBiCGStab:  Solving for p, Initial residual = 0.947536, Final residual = 8.43166e-05, No Iterations 332
linear solve p 387
time step continuity errors : sum local = 0.00151304, global = 3.64383e-18, cumulative = 7.06939e-19
[OGL LOG] init_host_sparsity_pattern : 59 ms
[OGL LOG] matrix not stored update host matrix
[OGL LOG] update_host_mtx : 28 ms
[OGL LOG] matrix is not yet sorted, sorting host matrix
[OGL LOG] sort_host_mtx_sparsity_pattern : 40 ms
[OGL LOG] sort_host_mtx : 21 ms
[OGL LOG] init_preconditioner : 0 ms
[OGL LOG] solve : 225 ms
nonecudaGKOBiCGStab:  Solving for p, Initial residual = 0.755987, Final residual = 9.99511e-05, No Iterations 331
linear solve p 390
time step continuity errors : sum local = 6.36479e-05, global = -5.14189e-20, cumulative = 6.55521e-19
ExecutionTime = 9.28 s  ClockTime = 9 s

Time = 0.007

Courant Number mean: 0.0748554 max: 0.58871
nonePBiCGStab:  Solving for Ux, Initial residual = 0.0207789, Final residual = 0.00230294, No Iterations 5
nonePBiCGStab:  Solving for Uy, Initial residual = 0.0685296, Final residual = 0.0114442, No Iterations 5
nonePBiCGStab:  Solving for Uz, Initial residual = 0.83507, Final residual = 0.080066, No Iterations 5
linear solve U 114
[OGL LOG] init_host_sparsity_pattern : 59 ms
[OGL LOG] matrix not stored update host matrix
[OGL LOG] update_host_mtx : 30 ms
[OGL LOG] matrix is not yet sorted, sorting host matrix
[OGL LOG] sort_host_mtx_sparsity_pattern : 44 ms
[OGL LOG] sort_host_mtx : 22 ms
[OGL LOG] init_preconditioner : 0 ms
[OGL LOG] solve : 224 ms
nonecudaGKOBiCGStab:  Solving for p, Initial residual = 0.950776, Final residual = 9.01528e-05, No Iterations 332
linear solve p 393
time step continuity errors : sum local = 0.000697394, global = 2.14544e-19, cumulative = 8.70065e-19
[OGL LOG] init_host_sparsity_pattern : 58 ms
[OGL LOG] matrix not stored update host matrix
[OGL LOG] update_host_mtx : 28 ms
[OGL LOG] matrix is not yet sorted, sorting host matrix
[OGL LOG] sort_host_mtx_sparsity_pattern : 40 ms
[OGL LOG] sort_host_mtx : 22 ms
[OGL LOG] init_preconditioner : 0 ms
[OGL LOG] solve : 222 ms
nonecudaGKOBiCGStab:  Solving for p, Initial residual = 0.745681, Final residual = 9.72544e-05, No Iterations 329
linear solve p 385
time step continuity errors : sum local = 0.00101239, global = -1.32088e-18, cumulative = -4.50816e-19
ExecutionTime = 10.29 s  ClockTime = 10 s

Time = 0.008

Courant Number mean: 0.0788584 max: 0.603859
nonePBiCGStab:  Solving for Ux, Initial residual = 0.0226031, Final residual = 0.00275254, No Iterations 5
nonePBiCGStab:  Solving for Uy, Initial residual = 0.0654791, Final residual = 0.010658, No Iterations 5
nonePBiCGStab:  Solving for Uz, Initial residual = 0.83387, Final residual = 0.0856943, No Iterations 5
linear solve U 113
[OGL LOG] init_host_sparsity_pattern : 57 ms
[OGL LOG] matrix not stored update host matrix
[OGL LOG] update_host_mtx : 28 ms
[OGL LOG] matrix is not yet sorted, sorting host matrix
[OGL LOG] sort_host_mtx_sparsity_pattern : 40 ms
[OGL LOG] sort_host_mtx : 22 ms
[OGL LOG] init_preconditioner : 0 ms
[OGL LOG] solve : 223 ms
nonecudaGKOBiCGStab:  Solving for p, Initial residual = 0.958197, Final residual = 8.54665e-05, No Iterations 332
linear solve p 385
time step continuity errors : sum local = 0.0022536, global = 4.99735e-18, cumulative = 4.54653e-18
[OGL LOG] init_host_sparsity_pattern : 60 ms
[OGL LOG] matrix not stored update host matrix
[OGL LOG] update_host_mtx : 29 ms
[OGL LOG] matrix is not yet sorted, sorting host matrix
[OGL LOG] sort_host_mtx_sparsity_pattern : 41 ms
[OGL LOG] sort_host_mtx : 22 ms
[OGL LOG] init_preconditioner : 0 ms
[OGL LOG] solve : 220 ms
nonecudaGKOBiCGStab:  Solving for p, Initial residual = 0.754944, Final residual = 8.16494e-05, No Iterations 327
linear solve p 389
time step continuity errors : sum local = 1.64433e-06, global = -1.23666e-20, cumulative = 4.53417e-18
ExecutionTime = 11.31 s  ClockTime = 11 s

Time = 0.009

Courant Number mean: 0.0818104 max: 0.604741
nonePBiCGStab:  Solving for Ux, Initial residual = 0.0182327, Final residual = 0.00213847, No Iterations 5
nonePBiCGStab:  Solving for Uy, Initial residual = 0.0649132, Final residual = 0.0109051, No Iterations 5
nonePBiCGStab:  Solving for Uz, Initial residual = 0.838702, Final residual = 0.0764953, No Iterations 5
linear solve U 113
[OGL LOG] init_host_sparsity_pattern : 58 ms
[OGL LOG] matrix not stored update host matrix
[OGL LOG] update_host_mtx : 28 ms
[OGL LOG] matrix is not yet sorted, sorting host matrix
[OGL LOG] sort_host_mtx_sparsity_pattern : 40 ms
[OGL LOG] sort_host_mtx : 22 ms
[OGL LOG] init_preconditioner : 0 ms
[OGL LOG] solve : 222 ms
nonecudaGKOBiCGStab:  Solving for p, Initial residual = 0.959929, Final residual = 8.61937e-05, No Iterations 330
linear solve p 385
time step continuity errors : sum local = 0.00216948, global = 2.13517e-18, cumulative = 6.66934e-18
[OGL LOG] init_host_sparsity_pattern : 57 ms
[OGL LOG] matrix not stored update host matrix
[OGL LOG] update_host_mtx : 27 ms
[OGL LOG] matrix is not yet sorted, sorting host matrix
[OGL LOG] sort_host_mtx_sparsity_pattern : 41 ms
[OGL LOG] sort_host_mtx : 22 ms
[OGL LOG] init_preconditioner : 0 ms
[OGL LOG] solve : 217 ms
nonecudaGKOBiCGStab:  Solving for p, Initial residual = 0.766458, Final residual = 9.91407e-05, No Iterations 324
linear solve p 380
time step continuity errors : sum local = 0.0030994, global = 3.56099e-19, cumulative = 7.02544e-18
ExecutionTime = 12.31 s  ClockTime = 12 s

Time = 0.01

Courant Number mean: 0.0862278 max: 0.653852
nonePBiCGStab:  Solving for Ux, Initial residual = 0.0232572, Final residual = 0.00363461, No Iterations 5
nonePBiCGStab:  Solving for Uy, Initial residual = 0.0788549, Final residual = 0.0161564, No Iterations 5
nonePBiCGStab:  Solving for Uz, Initial residual = 0.815897, Final residual = 0.0990716, No Iterations 5
linear solve U 111
[OGL LOG] init_host_sparsity_pattern : 58 ms
[OGL LOG] matrix not stored update host matrix
[OGL LOG] update_host_mtx : 28 ms
[OGL LOG] matrix is not yet sorted, sorting host matrix
[OGL LOG] sort_host_mtx_sparsity_pattern : 40 ms
[OGL LOG] sort_host_mtx : 22 ms
[OGL LOG] init_preconditioner : 0 ms
[OGL LOG] solve : 208 ms
nonecudaGKOBiCGStab:  Solving for p, Initial residual = 0.973511, Final residual = 6.24489e-05, No Iterations 306
linear solve p 371
time step continuity errors : sum local = 3.75301e-06, global = 1.97254e-20, cumulative = 7.04516e-18
[OGL LOG] init_host_sparsity_pattern : 58 ms
[OGL LOG] matrix not stored update host matrix
[OGL LOG] update_host_mtx : 27 ms
[OGL LOG] matrix is not yet sorted, sorting host matrix
[OGL LOG] sort_host_mtx_sparsity_pattern : 40 ms
[OGL LOG] sort_host_mtx : 22 ms
[OGL LOG] init_preconditioner : 0 ms
[OGL LOG] solve : 216 ms
nonecudaGKOBiCGStab:  Solving for p, Initial residual = 0.815123, Final residual = 7.38463e-05, No Iterations 321
linear solve p 380
time step continuity errors : sum local = 0.00746819, global = -4.26651e-18, cumulative = 2.77865e-18
ExecutionTime = 13.3 s  ClockTime = 13 s

End

