/*---------------------------------------------------------------------------*\
  =========                 |
  \\      /  F ield         | OpenFOAM: The Open Source CFD Toolbox
   \\    /   O peration     | Website:  https://openfoam.org
    \\  /    A nd           | Version:  8
     \\/     M anipulation  |
\*---------------------------------------------------------------------------*/
Build  : 8-40a5a48f630f
Exec   : icoFoam
Date   : Jul 28 2021
Time   : 02:18:45
Host   : "uc2n476.localdomain"
PID    : 1919963
I/O    : uncollated
Case   : /pfs/data5/home/kit/scc/nq7776/code/OBR/lidDrivenCavity3D/Variation_mesh/75/Variation_matrix_solver/CG_NoPrecond_Serial/base
nProcs : 1
sigFpe : Enabling floating point exception trapping (FOAM_SIGFPE).
fileModificationChecking : Monitoring run-time modified files using timeStampMaster (fileModificationSkew 10)
allowSystemOperations : Allowing user-supplied system call operations

// * * * * * * * * * * * * * * * * * * * * * * * * * * * * * * * * * * * * * //
Create time

Create mesh for time = 0

Reading transportProperties

Reading field p

Reading field U

Reading/calculating face flux field phi


Starting time loop

Time = 0.001

Courant Number mean: 0 max: 0
nonePBiCGStab:  Solving for Ux, Initial residual = 1, Final residual = 0.0634334, No Iterations 5
nonePBiCGStab:  Solving for Uy, Initial residual = 0, Final residual = 0, No Iterations 0
nonePBiCGStab:  Solving for Uz, Initial residual = 0, Final residual = 0, No Iterations 0
linear solve U 106
nonePCG:  Solving for p, Initial residual = 1, Final residual = 9.58189e-05, No Iterations 591
linear solve p 2998
time step continuity errors : sum local = 4.31514e-08, global = -6.59905e-21, cumulative = -6.59905e-21
nonePCG:  Solving for p, Initial residual = 0.687859, Final residual = 9.74893e-05, No Iterations 583
linear solve p 2954
time step continuity errors : sum local = 6.17003e-08, global = 5.32597e-21, cumulative = -1.27308e-21
ExecutionTime = 7.79 s  ClockTime = 8 s

Time = 0.002

Courant Number mean: 0.0360752 max: 0.561117
nonePBiCGStab:  Solving for Ux, Initial residual = 0.146367, Final residual = 0.0272829, No Iterations 5
nonePBiCGStab:  Solving for Uy, Initial residual = 0.39118, Final residual = 0.0672303, No Iterations 5
nonePBiCGStab:  Solving for Uz, Initial residual = 0.983083, Final residual = 0.205707, No Iterations 5
linear solve U 220
nonePCG:  Solving for p, Initial residual = 0.709354, Final residual = 9.5742e-05, No Iterations 578
linear solve p 2937
time step continuity errors : sum local = 8.40695e-08, global = -7.71761e-21, cumulative = -8.99069e-21
nonePCG:  Solving for p, Initial residual = 0.629988, Final residual = 9.52083e-05, No Iterations 576
linear solve p 2915
time step continuity errors : sum local = 8.53437e-08, global = -7.05749e-21, cumulative = -1.60482e-20
ExecutionTime = 14.08 s  ClockTime = 14 s

Time = 0.003

Courant Number mean: 0.0560428 max: 0.655039
nonePBiCGStab:  Solving for Ux, Initial residual = 0.0566166, Final residual = 0.00888593, No Iterations 5
nonePBiCGStab:  Solving for Uy, Initial residual = 0.145913, Final residual = 0.0300262, No Iterations 5
nonePBiCGStab:  Solving for Uz, Initial residual = 0.506917, Final residual = 0.0998509, No Iterations 5
linear solve U 236
nonePCG:  Solving for p, Initial residual = 0.660313, Final residual = 9.93997e-05, No Iterations 573
linear solve p 2895
time step continuity errors : sum local = 6.15457e-08, global = 1.80042e-21, cumulative = -1.42478e-20
nonePCG:  Solving for p, Initial residual = 0.592807, Final residual = 9.85754e-05, No Iterations 572
linear solve p 2908
time step continuity errors : sum local = 5.92918e-08, global = -6.47447e-21, cumulative = -2.07222e-20
ExecutionTime = 20.36 s  ClockTime = 20 s

Time = 0.004

Courant Number mean: 0.0671622 max: 0.672134
nonePBiCGStab:  Solving for Ux, Initial residual = 0.0340002, Final residual = 0.00478483, No Iterations 5
nonePBiCGStab:  Solving for Uy, Initial residual = 0.0977377, Final residual = 0.0161173, No Iterations 5
nonePBiCGStab:  Solving for Uz, Initial residual = 0.288122, Final residual = 0.0474926, No Iterations 5
linear solve U 224
nonePCG:  Solving for p, Initial residual = 0.49699, Final residual = 9.97056e-05, No Iterations 278
linear solve p 1413
time step continuity errors : sum local = 6.11432e-08, global = -4.02073e-21, cumulative = -2.4743e-20
nonePCG:  Solving for p, Initial residual = 0.42051, Final residual = 9.67728e-05, No Iterations 275
linear solve p 1397
time step continuity errors : sum local = 5.9025e-08, global = 2.60607e-21, cumulative = -2.21369e-20
ExecutionTime = 23.61 s  ClockTime = 24 s

Time = 0.005

Courant Number mean: 0.076376 max: 0.683511
nonePBiCGStab:  Solving for Ux, Initial residual = 0.0246289, Final residual = 0.00309729, No Iterations 5
nonePBiCGStab:  Solving for Uy, Initial residual = 0.0622942, Final residual = 0.010128, No Iterations 5
nonePBiCGStab:  Solving for Uz, Initial residual = 0.147184, Final residual = 0.0313123, No Iterations 5
linear solve U 236
nonePCG:  Solving for p, Initial residual = 0.472683, Final residual = 9.35069e-05, No Iterations 272
linear solve p 1387
time step continuity errors : sum local = 5.21896e-08, global = -9.35946e-21, cumulative = -3.14964e-20
nonePCG:  Solving for p, Initial residual = 0.409099, Final residual = 9.13617e-05, No Iterations 270
linear solve p 1374
time step continuity errors : sum local = 4.66261e-08, global = 3.49137e-21, cumulative = -2.8005e-20
ExecutionTime = 26.84 s  ClockTime = 27 s

Time = 0.006

Courant Number mean: 0.0835973 max: 0.690352
nonePBiCGStab:  Solving for Ux, Initial residual = 0.0184031, Final residual = 0.00201507, No Iterations 5
nonePBiCGStab:  Solving for Uy, Initial residual = 0.0472387, Final residual = 0.00588666, No Iterations 5
nonePBiCGStab:  Solving for Uz, Initial residual = 0.117395, Final residual = 0.0218268, No Iterations 5
linear solve U 234
nonePCG:  Solving for p, Initial residual = 0.367829, Final residual = 9.84766e-05, No Iterations 261
linear solve p 1327
time step continuity errors : sum local = 5.1394e-08, global = -3.39739e-21, cumulative = -3.14024e-20
nonePCG:  Solving for p, Initial residual = 0.310864, Final residual = 9.39151e-05, No Iterations 260
linear solve p 1324
time step continuity errors : sum local = 4.82986e-08, global = 1.37417e-20, cumulative = -1.76606e-20
ExecutionTime = 29.96 s  ClockTime = 30 s

Time = 0.007

Courant Number mean: 0.0897245 max: 0.695112
nonePBiCGStab:  Solving for Ux, Initial residual = 0.0146411, Final residual = 0.00137011, No Iterations 5
nonePBiCGStab:  Solving for Uy, Initial residual = 0.0367312, Final residual = 0.00412752, No Iterations 5
nonePBiCGStab:  Solving for Uz, Initial residual = 0.0843061, Final residual = 0.014007, No Iterations 5
linear solve U 233
nonePCG:  Solving for p, Initial residual = 0.343609, Final residual = 9.32952e-05, No Iterations 537
linear solve p 2722
time step continuity errors : sum local = 4.22604e-08, global = -1.2725e-21, cumulative = -1.89331e-20
nonePCG:  Solving for p, Initial residual = 0.293453, Final residual = 9.58976e-05, No Iterations 272
linear solve p 1387
time step continuity errors : sum local = 5.22171e-08, global = -1.70314e-21, cumulative = -2.06363e-20
ExecutionTime = 34.54 s  ClockTime = 35 s

Time = 0.008

Courant Number mean: 0.0948863 max: 0.698808
nonePBiCGStab:  Solving for Ux, Initial residual = 0.011905, Final residual = 0.000938101, No Iterations 5
nonePBiCGStab:  Solving for Uy, Initial residual = 0.0295593, Final residual = 0.00254164, No Iterations 5
nonePBiCGStab:  Solving for Uz, Initial residual = 0.0725191, Final residual = 0.0127322, No Iterations 5
linear solve U 233
nonePCG:  Solving for p, Initial residual = 0.271955, Final residual = 9.34663e-05, No Iterations 537
linear solve p 2723
time step continuity errors : sum local = 4.28e-08, global = 2.00545e-21, cumulative = -1.86308e-20
nonePCG:  Solving for p, Initial residual = 0.229945, Final residual = 9.31571e-05, No Iterations 536
linear solve p 2719
time step continuity errors : sum local = 4.27057e-08, global = -1.91742e-21, cumulative = -2.05482e-20
ExecutionTime = 40.45 s  ClockTime = 40 s

Time = 0.009

Courant Number mean: 0.099396 max: 0.701518
nonePBiCGStab:  Solving for Ux, Initial residual = 0.00990062, Final residual = 0.00075426, No Iterations 5
nonePBiCGStab:  Solving for Uy, Initial residual = 0.0247077, Final residual = 0.00195095, No Iterations 5
nonePBiCGStab:  Solving for Uz, Initial residual = 0.058265, Final residual = 0.00815761, No Iterations 5
linear solve U 233
nonePCG:  Solving for p, Initial residual = 0.24602, Final residual = 9.59882e-05, No Iterations 530
linear solve p 2689
time step continuity errors : sum local = 4.14585e-08, global = 8.81282e-21, cumulative = -1.17354e-20
nonePCG:  Solving for p, Initial residual = 0.209167, Final residual = 9.24157e-05, No Iterations 529
linear solve p 2681
time step continuity errors : sum local = 3.98797e-08, global = -9.11485e-21, cumulative = -2.08503e-20
ExecutionTime = 46.27 s  ClockTime = 46 s

Time = 0.01

Courant Number mean: 0.103293 max: 0.70385
nonePBiCGStab:  Solving for Ux, Initial residual = 0.00840598, Final residual = 0.000558121, No Iterations 5
nonePBiCGStab:  Solving for Uy, Initial residual = 0.0206179, Final residual = 0.00120273, No Iterations 5
nonePBiCGStab:  Solving for Uz, Initial residual = 0.0500018, Final residual = 0.007648, No Iterations 5
linear solve U 233
nonePCG:  Solving for p, Initial residual = 0.201288, Final residual = 9.77778e-05, No Iterations 247
linear solve p 1261
time step continuity errors : sum local = 4.72011e-08, global = -6.42762e-21, cumulative = -2.72779e-20
nonePCG:  Solving for p, Initial residual = 0.170695, Final residual = 9.74408e-05, No Iterations 241
linear solve p 1232
time step continuity errors : sum local = 4.37837e-08, global = 1.58606e-20, cumulative = -1.14173e-20
ExecutionTime = 49.23 s  ClockTime = 49 s

End

