/*---------------------------------------------------------------------------*\
  =========                 |
  \\      /  F ield         | OpenFOAM: The Open Source CFD Toolbox
   \\    /   O peration     | Website:  https://openfoam.org
    \\  /    A nd           | Version:  8
     \\/     M anipulation  |
\*---------------------------------------------------------------------------*/
Build  : 8-40a5a48f630f
Exec   : icoFoam
Date   : Jul 27 2021
Time   : 23:13:22
Host   : "uc2n481.localdomain"
PID    : 181719
I/O    : uncollated
Case   : /pfs/data5/home/kit/scc/nq7776/code/OBR/lidDrivenCavity3D/Variation_mesh/55/Variation_matrix_solver/BiCGStab_NoPrecond_CUDA/base
nProcs : 1
sigFpe : Enabling floating point exception trapping (FOAM_SIGFPE).
fileModificationChecking : Monitoring run-time modified files using timeStampMaster (fileModificationSkew 10)
allowSystemOperations : Allowing user-supplied system call operations

// * * * * * * * * * * * * * * * * * * * * * * * * * * * * * * * * * * * * * //
Create time

Create mesh for time = 0

Reading transportProperties

Reading field p

Reading field U

Reading/calculating face flux field phi


Starting time loop

Time = 0.001

Courant Number mean: 0 max: 0
nonePBiCGStab:  Solving for Ux, Initial residual = 1, Final residual = 0.0406479, No Iterations 5
nonePBiCGStab:  Solving for Uy, Initial residual = 0, Final residual = 0, No Iterations 0
nonePBiCGStab:  Solving for Uz, Initial residual = 0, Final residual = 0, No Iterations 0
linear solve U 43
[OGL LOG] init_host_sparsity_pattern : 47 ms
[OGL LOG] matrix not stored update host matrix
[OGL LOG] update_host_mtx : 24 ms
[OGL LOG] matrix is not yet sorted, compute sorting idxs
[OGL LOG] compute_sort : 1398 ms
[OGL LOG] matrix is not yet sorted, sorting host matrix
[OGL LOG] sort_host_mtx_sparsity_pattern : 34 ms
[OGL LOG] sort_host_mtx : 16 ms
[OGL LOG] init_preconditioner : 0 ms
[OGL LOG] solve : 222 ms
nonecudaGKOBiCGStab:  Solving for p, Initial residual = 1, Final residual = 8.24866e-05, No Iterations 348
linear solve p 2532
time step continuity errors : sum local = 9.81607e-05, global = -6.43762e-20, cumulative = -6.43762e-20
[OGL LOG] init_host_sparsity_pattern : 46 ms
[OGL LOG] matrix not stored update host matrix
[OGL LOG] update_host_mtx : 24 ms
[OGL LOG] matrix is not yet sorted, sorting host matrix
[OGL LOG] sort_host_mtx_sparsity_pattern : 35 ms
[OGL LOG] sort_host_mtx : 17 ms
[OGL LOG] init_preconditioner : 0 ms
[OGL LOG] solve : 221 ms
nonecudaGKOBiCGStab:  Solving for p, Initial residual = 0.705495, Final residual = 8.25638e-05, No Iterations 350
linear solve p 356
time step continuity errors : sum local = 0.000217155, global = -1.37325e-19, cumulative = -2.01701e-19
ExecutionTime = 3.64 s  ClockTime = 4 s

Time = 0.002

Courant Number mean: 0.0287289 max: 0.375273
nonePBiCGStab:  Solving for Ux, Initial residual = 0.159737, Final residual = 0.0147844, No Iterations 5
nonePBiCGStab:  Solving for Uy, Initial residual = 0.337151, Final residual = 0.0269139, No Iterations 5
nonePBiCGStab:  Solving for Uz, Initial residual = 0.728762, Final residual = 0.0481541, No Iterations 5
linear solve U 84
[OGL LOG] init_host_sparsity_pattern : 46 ms
[OGL LOG] matrix not stored update host matrix
[OGL LOG] update_host_mtx : 22 ms
[OGL LOG] matrix is not yet sorted, sorting host matrix
[OGL LOG] sort_host_mtx_sparsity_pattern : 31 ms
[OGL LOG] sort_host_mtx : 17 ms
[OGL LOG] init_preconditioner : 0 ms
[OGL LOG] solve : 203 ms
nonecudaGKOBiCGStab:  Solving for p, Initial residual = 0.76227, Final residual = 3.17944e-06, No Iterations 322
linear solve p 332
time step continuity errors : sum local = 0.00120426, global = 2.38924e-18, cumulative = 2.18754e-18
[OGL LOG] init_host_sparsity_pattern : 44 ms
[OGL LOG] matrix not stored update host matrix
[OGL LOG] update_host_mtx : 21 ms
[OGL LOG] matrix is not yet sorted, sorting host matrix
[OGL LOG] sort_host_mtx_sparsity_pattern : 31 ms
[OGL LOG] sort_host_mtx : 17 ms
[OGL LOG] init_preconditioner : 0 ms
[OGL LOG] solve : 87 ms
nonecudaGKOBiCGStab:  Solving for p, Initial residual = 0.73721, Final residual = 9.85734e-05, No Iterations 135
linear solve p 212
time step continuity errors : sum local = 1.21696e-06, global = 1.0133e-21, cumulative = 2.18855e-18
ExecutionTime = 4.38 s  ClockTime = 4 s

Time = 0.003

Courant Number mean: 0.0437208 max: 0.457371
nonePBiCGStab:  Solving for Ux, Initial residual = 0.0560125, Final residual = 0.00387284, No Iterations 5
nonePBiCGStab:  Solving for Uy, Initial residual = 0.116147, Final residual = 0.00850161, No Iterations 5
nonePBiCGStab:  Solving for Uz, Initial residual = 0.847339, Final residual = 0.0452704, No Iterations 5
linear solve U 84
[OGL LOG] init_host_sparsity_pattern : 46 ms
[OGL LOG] matrix not stored update host matrix
[OGL LOG] update_host_mtx : 21 ms
[OGL LOG] matrix is not yet sorted, sorting host matrix
[OGL LOG] sort_host_mtx_sparsity_pattern : 31 ms
[OGL LOG] sort_host_mtx : 16 ms
[OGL LOG] init_preconditioner : 0 ms
[OGL LOG] solve : 168 ms
nonecudaGKOBiCGStab:  Solving for p, Initial residual = 0.833422, Final residual = 9.93244e-05, No Iterations 265
linear solve p 295
time step continuity errors : sum local = 0.000120841, global = 3.27166e-20, cumulative = 2.22127e-18
[OGL LOG] init_host_sparsity_pattern : 44 ms
[OGL LOG] matrix not stored update host matrix
[OGL LOG] update_host_mtx : 21 ms
[OGL LOG] matrix is not yet sorted, sorting host matrix
[OGL LOG] sort_host_mtx_sparsity_pattern : 30 ms
[OGL LOG] sort_host_mtx : 17 ms
[OGL LOG] init_preconditioner : 0 ms
[OGL LOG] solve : 87 ms
nonecudaGKOBiCGStab:  Solving for p, Initial residual = 0.694028, Final residual = 9.68061e-05, No Iterations 137
linear solve p 212
time step continuity errors : sum local = 3.05298e-07, global = 2.14948e-21, cumulative = 2.22342e-18
ExecutionTime = 5.07 s  ClockTime = 5 s

Time = 0.004

Courant Number mean: 0.0525799 max: 0.478791
nonePBiCGStab:  Solving for Ux, Initial residual = 0.035102, Final residual = 0.0021763, No Iterations 5
nonePBiCGStab:  Solving for Uy, Initial residual = 0.07531, Final residual = 0.00370863, No Iterations 5
nonePBiCGStab:  Solving for Uz, Initial residual = 0.827869, Final residual = 0.031614, No Iterations 5
linear solve U 84
[OGL LOG] init_host_sparsity_pattern : 48 ms
[OGL LOG] matrix not stored update host matrix
[OGL LOG] update_host_mtx : 24 ms
[OGL LOG] matrix is not yet sorted, sorting host matrix
[OGL LOG] sort_host_mtx_sparsity_pattern : 35 ms
[OGL LOG] sort_host_mtx : 16 ms
[OGL LOG] init_preconditioner : 0 ms
[OGL LOG] solve : 177 ms
nonecudaGKOBiCGStab:  Solving for p, Initial residual = 0.784455, Final residual = 9.89867e-05, No Iterations 281
linear solve p 314
time step continuity errors : sum local = 1.83826e-06, global = 8.28173e-21, cumulative = 2.2317e-18
[OGL LOG] init_host_sparsity_pattern : 44 ms
[OGL LOG] matrix not stored update host matrix
[OGL LOG] update_host_mtx : 21 ms
[OGL LOG] matrix is not yet sorted, sorting host matrix
[OGL LOG] sort_host_mtx_sparsity_pattern : 32 ms
[OGL LOG] sort_host_mtx : 17 ms
[OGL LOG] init_preconditioner : 0 ms
[OGL LOG] solve : 88 ms
nonecudaGKOBiCGStab:  Solving for p, Initial residual = 0.637965, Final residual = 9.90626e-05, No Iterations 135
linear solve p 214
time step continuity errors : sum local = 4.96244e-07, global = 7.61833e-21, cumulative = 2.23932e-18
ExecutionTime = 5.77 s  ClockTime = 6 s

Time = 0.005

Courant Number mean: 0.0590145 max: 0.487153
nonePBiCGStab:  Solving for Ux, Initial residual = 0.0240518, Final residual = 0.00111178, No Iterations 5
nonePBiCGStab:  Solving for Uy, Initial residual = 0.0525545, Final residual = 0.00272186, No Iterations 5
nonePBiCGStab:  Solving for Uz, Initial residual = 0.756612, Final residual = 0.0285248, No Iterations 5
linear solve U 84
[OGL LOG] init_host_sparsity_pattern : 44 ms
[OGL LOG] matrix not stored update host matrix
[OGL LOG] update_host_mtx : 21 ms
[OGL LOG] matrix is not yet sorted, sorting host matrix
[OGL LOG] sort_host_mtx_sparsity_pattern : 31 ms
[OGL LOG] sort_host_mtx : 17 ms
[OGL LOG] init_preconditioner : 0 ms
[OGL LOG] solve : 164 ms
nonecudaGKOBiCGStab:  Solving for p, Initial residual = 0.697888, Final residual = 9.11173e-05, No Iterations 259
linear solve p 293
time step continuity errors : sum local = 0.000105944, global = 1.35208e-19, cumulative = 2.37453e-18
[OGL LOG] init_host_sparsity_pattern : 44 ms
[OGL LOG] matrix not stored update host matrix
[OGL LOG] update_host_mtx : 21 ms
[OGL LOG] matrix is not yet sorted, sorting host matrix
[OGL LOG] sort_host_mtx_sparsity_pattern : 31 ms
[OGL LOG] sort_host_mtx : 17 ms
[OGL LOG] init_preconditioner : 0 ms
[OGL LOG] solve : 185 ms
nonecudaGKOBiCGStab:  Solving for p, Initial residual = 0.524918, Final residual = 7.27548e-05, No Iterations 292
linear solve p 311
time step continuity errors : sum local = 1.23047e-07, global = 8.63411e-21, cumulative = 2.38316e-18
ExecutionTime = 6.56 s  ClockTime = 7 s

Time = 0.006

Courant Number mean: 0.0642 max: 0.493204
nonePBiCGStab:  Solving for Ux, Initial residual = 0.0188832, Final residual = 0.000758324, No Iterations 5
nonePBiCGStab:  Solving for Uy, Initial residual = 0.0384163, Final residual = 0.00145602, No Iterations 5
nonePBiCGStab:  Solving for Uz, Initial residual = 0.689206, Final residual = 0.02401, No Iterations 5
linear solve U 84
[OGL LOG] init_host_sparsity_pattern : 44 ms
[OGL LOG] matrix not stored update host matrix
[OGL LOG] update_host_mtx : 21 ms
[OGL LOG] matrix is not yet sorted, sorting host matrix
[OGL LOG] sort_host_mtx_sparsity_pattern : 32 ms
[OGL LOG] sort_host_mtx : 17 ms
[OGL LOG] init_preconditioner : 0 ms
[OGL LOG] solve : 208 ms
nonecudaGKOBiCGStab:  Solving for p, Initial residual = 0.627183, Final residual = 8.79336e-05, No Iterations 326
linear solve p 334
time step continuity errors : sum local = 5.96418e-05, global = 7.42213e-20, cumulative = 2.45738e-18
[OGL LOG] init_host_sparsity_pattern : 44 ms
[OGL LOG] matrix not stored update host matrix
[OGL LOG] update_host_mtx : 21 ms
[OGL LOG] matrix is not yet sorted, sorting host matrix
[OGL LOG] sort_host_mtx_sparsity_pattern : 31 ms
[OGL LOG] sort_host_mtx : 16 ms
[OGL LOG] init_preconditioner : 0 ms
[OGL LOG] solve : 194 ms
nonecudaGKOBiCGStab:  Solving for p, Initial residual = 0.474701, Final residual = 8.6071e-05, No Iterations 307
linear solve p 318
time step continuity errors : sum local = 5.51746e-05, global = -2.61521e-20, cumulative = 2.43123e-18
ExecutionTime = 7.39 s  ClockTime = 7 s

Time = 0.007

Courant Number mean: 0.0684576 max: 0.497548
nonePBiCGStab:  Solving for Ux, Initial residual = 0.0146757, Final residual = 0.000474503, No Iterations 5
nonePBiCGStab:  Solving for Uy, Initial residual = 0.0305953, Final residual = 0.00119221, No Iterations 5
nonePBiCGStab:  Solving for Uz, Initial residual = 0.618022, Final residual = 0.0237615, No Iterations 5
linear solve U 84
[OGL LOG] init_host_sparsity_pattern : 44 ms
[OGL LOG] matrix not stored update host matrix
[OGL LOG] update_host_mtx : 21 ms
[OGL LOG] matrix is not yet sorted, sorting host matrix
[OGL LOG] sort_host_mtx_sparsity_pattern : 31 ms
[OGL LOG] sort_host_mtx : 17 ms
[OGL LOG] init_preconditioner : 0 ms
[OGL LOG] solve : 91 ms
nonecudaGKOBiCGStab:  Solving for p, Initial residual = 0.563908, Final residual = 9.98911e-05, No Iterations 139
linear solve p 218
time step continuity errors : sum local = 3.93762e-07, global = -1.09841e-20, cumulative = 2.42025e-18
[OGL LOG] init_host_sparsity_pattern : 46 ms
[OGL LOG] matrix not stored update host matrix
[OGL LOG] update_host_mtx : 23 ms
[OGL LOG] matrix is not yet sorted, sorting host matrix
[OGL LOG] sort_host_mtx_sparsity_pattern : 34 ms
[OGL LOG] sort_host_mtx : 16 ms
[OGL LOG] init_preconditioner : 0 ms
[OGL LOG] solve : 86 ms
nonecudaGKOBiCGStab:  Solving for p, Initial residual = 0.462504, Final residual = 9.31688e-05, No Iterations 134
linear solve p 218
time step continuity errors : sum local = 3.06543e-07, global = -1.32076e-20, cumulative = 2.40704e-18
ExecutionTime = 8.01 s  ClockTime = 8 s

Time = 0.008

Courant Number mean: 0.0720295 max: 0.500743
nonePBiCGStab:  Solving for Ux, Initial residual = 0.0119928, Final residual = 0.000396609, No Iterations 5
nonePBiCGStab:  Solving for Uy, Initial residual = 0.0250177, Final residual = 0.00067424, No Iterations 5
nonePBiCGStab:  Solving for Uz, Initial residual = 0.492972, Final residual = 0.0154557, No Iterations 5
linear solve U 84
[OGL LOG] init_host_sparsity_pattern : 44 ms
[OGL LOG] matrix not stored update host matrix
[OGL LOG] update_host_mtx : 21 ms
[OGL LOG] matrix is not yet sorted, sorting host matrix
[OGL LOG] sort_host_mtx_sparsity_pattern : 32 ms
[OGL LOG] sort_host_mtx : 17 ms
[OGL LOG] init_preconditioner : 0 ms
[OGL LOG] solve : 81 ms
nonecudaGKOBiCGStab:  Solving for p, Initial residual = 0.471257, Final residual = 8.46687e-05, No Iterations 126
linear solve p 206
time step continuity errors : sum local = 1.19445e-07, global = 1.45825e-20, cumulative = 2.42162e-18
[OGL LOG] init_host_sparsity_pattern : 45 ms
[OGL LOG] matrix not stored update host matrix
[OGL LOG] update_host_mtx : 21 ms
[OGL LOG] matrix is not yet sorted, sorting host matrix
[OGL LOG] sort_host_mtx_sparsity_pattern : 31 ms
[OGL LOG] sort_host_mtx : 16 ms
[OGL LOG] init_preconditioner : 0 ms
[OGL LOG] solve : 79 ms
nonecudaGKOBiCGStab:  Solving for p, Initial residual = 0.368554, Final residual = 8.79922e-05, No Iterations 122
linear solve p 205
time step continuity errors : sum local = 2.72617e-07, global = 1.09858e-20, cumulative = 2.43261e-18
ExecutionTime = 8.6 s  ClockTime = 9 s

Time = 0.009

Courant Number mean: 0.0750846 max: 0.503244
nonePBiCGStab:  Solving for Ux, Initial residual = 0.00990947, Final residual = 0.000275692, No Iterations 5
nonePBiCGStab:  Solving for Uy, Initial residual = 0.0210537, Final residual = 0.000506458, No Iterations 5
nonePBiCGStab:  Solving for Uz, Initial residual = 0.34993, Final residual = 0.011232, No Iterations 5
linear solve U 90
[OGL LOG] init_host_sparsity_pattern : 44 ms
[OGL LOG] matrix not stored update host matrix
[OGL LOG] update_host_mtx : 21 ms
[OGL LOG] matrix is not yet sorted, sorting host matrix
[OGL LOG] sort_host_mtx_sparsity_pattern : 31 ms
[OGL LOG] sort_host_mtx : 17 ms
[OGL LOG] init_preconditioner : 0 ms
[OGL LOG] solve : 151 ms
nonecudaGKOBiCGStab:  Solving for p, Initial residual = 0.352881, Final residual = 9.94264e-05, No Iterations 239
linear solve p 276
time step continuity errors : sum local = 1.53722e-05, global = -1.96141e-20, cumulative = 2.41299e-18
[OGL LOG] init_host_sparsity_pattern : 44 ms
[OGL LOG] matrix not stored update host matrix
[OGL LOG] update_host_mtx : 21 ms
[OGL LOG] matrix is not yet sorted, sorting host matrix
[OGL LOG] sort_host_mtx_sparsity_pattern : 31 ms
[OGL LOG] sort_host_mtx : 16 ms
[OGL LOG] init_preconditioner : 0 ms
[OGL LOG] solve : 78 ms
nonecudaGKOBiCGStab:  Solving for p, Initial residual = 0.263738, Final residual = 9.96553e-05, No Iterations 121
linear solve p 203
time step continuity errors : sum local = 1.25099e-07, global = -1.91562e-20, cumulative = 2.39384e-18
ExecutionTime = 9.27 s  ClockTime = 9 s

Time = 0.01

Courant Number mean: 0.0777493 max: 0.50524
nonePBiCGStab:  Solving for Ux, Initial residual = 0.00860449, Final residual = 0.000233782, No Iterations 5
nonePBiCGStab:  Solving for Uy, Initial residual = 0.0176409, Final residual = 0.000423735, No Iterations 5
nonePBiCGStab:  Solving for Uz, Initial residual = 0.262952, Final residual = 0.0115527, No Iterations 5
linear solve U 84
[OGL LOG] init_host_sparsity_pattern : 44 ms
[OGL LOG] matrix not stored update host matrix
[OGL LOG] update_host_mtx : 21 ms
[OGL LOG] matrix is not yet sorted, sorting host matrix
[OGL LOG] sort_host_mtx_sparsity_pattern : 31 ms
[OGL LOG] sort_host_mtx : 16 ms
[OGL LOG] init_preconditioner : 0 ms
[OGL LOG] solve : 152 ms
nonecudaGKOBiCGStab:  Solving for p, Initial residual = 0.276139, Final residual = 9.94588e-05, No Iterations 236
linear solve p 277
time step continuity errors : sum local = 6.94131e-06, global = -2.97785e-21, cumulative = 2.39086e-18
[OGL LOG] init_host_sparsity_pattern : 44 ms
[OGL LOG] matrix not stored update host matrix
[OGL LOG] update_host_mtx : 21 ms
[OGL LOG] matrix is not yet sorted, sorting host matrix
[OGL LOG] sort_host_mtx_sparsity_pattern : 32 ms
[OGL LOG] sort_host_mtx : 17 ms
[OGL LOG] init_preconditioner : 0 ms
[OGL LOG] solve : 73 ms
nonecudaGKOBiCGStab:  Solving for p, Initial residual = 0.207221, Final residual = 7.07104e-05, No Iterations 112
linear solve p 198
time step continuity errors : sum local = 8.30972e-07, global = -1.59646e-21, cumulative = 2.38926e-18
ExecutionTime = 9.93 s  ClockTime = 10 s

End

