/*---------------------------------------------------------------------------*\
  =========                 |
  \\      /  F ield         | OpenFOAM: The Open Source CFD Toolbox
   \\    /   O peration     | Website:  https://openfoam.org
    \\  /    A nd           | Version:  8
     \\/     M anipulation  |
\*---------------------------------------------------------------------------*/
Build  : 8-40a5a48f630f
Exec   : icoFoam
Date   : Jul 28 2021
Time   : 02:29:11
Host   : "uc2n476.localdomain"
PID    : 1920795
I/O    : uncollated
Case   : /pfs/data5/home/kit/scc/nq7776/code/OBR/lidDrivenCavity3D/Variation_mesh/65/Variation_matrix_solver/CG_NoPrecond_Serial/base
nProcs : 1
sigFpe : Enabling floating point exception trapping (FOAM_SIGFPE).
fileModificationChecking : Monitoring run-time modified files using timeStampMaster (fileModificationSkew 10)
allowSystemOperations : Allowing user-supplied system call operations

// * * * * * * * * * * * * * * * * * * * * * * * * * * * * * * * * * * * * * //
Create time

Create mesh for time = 0

Reading transportProperties

Reading field p

Reading field U

Reading/calculating face flux field phi


Starting time loop

Time = 0.001

Courant Number mean: 0 max: 0
nonePBiCGStab:  Solving for Ux, Initial residual = 1, Final residual = 0.053017, No Iterations 5
nonePBiCGStab:  Solving for Uy, Initial residual = 0, Final residual = 0, No Iterations 0
nonePBiCGStab:  Solving for Uz, Initial residual = 0, Final residual = 0, No Iterations 0
linear solve U 69
nonePCG:  Solving for p, Initial residual = 1, Final residual = 9.51645e-05, No Iterations 510
linear solve p 1594
time step continuity errors : sum local = 4.57957e-08, global = 2.23553e-21, cumulative = 2.23553e-21
nonePCG:  Solving for p, Initial residual = 0.674187, Final residual = 9.93531e-05, No Iterations 503
linear solve p 1569
time step continuity errors : sum local = 6.78729e-08, global = -2.04218e-21, cumulative = 1.9335e-22
ExecutionTime = 4.4 s  ClockTime = 5 s

Time = 0.002

Courant Number mean: 0.0326827 max: 0.468252
nonePBiCGStab:  Solving for Ux, Initial residual = 0.151756, Final residual = 0.0210783, No Iterations 5
nonePBiCGStab:  Solving for Uy, Initial residual = 0.364889, Final residual = 0.0451024, No Iterations 5
nonePBiCGStab:  Solving for Uz, Initial residual = 0.979949, Final residual = 0.154118, No Iterations 5
linear solve U 137
nonePCG:  Solving for p, Initial residual = 0.656711, Final residual = 9.95925e-05, No Iterations 499
linear solve p 1554
time step continuity errors : sum local = 8.46858e-08, global = -9.54008e-21, cumulative = -9.34673e-21
nonePCG:  Solving for p, Initial residual = 0.574986, Final residual = 8.8508e-05, No Iterations 498
linear solve p 1547
time step continuity errors : sum local = 7.70848e-08, global = -8.7157e-21, cumulative = -1.80624e-20
ExecutionTime = 7.78 s  ClockTime = 8 s

Time = 0.003

Courant Number mean: 0.0502554 max: 0.556611
nonePBiCGStab:  Solving for Ux, Initial residual = 0.0551707, Final residual = 0.00592584, No Iterations 5
nonePBiCGStab:  Solving for Uy, Initial residual = 0.124792, Final residual = 0.0163171, No Iterations 5
nonePBiCGStab:  Solving for Uz, Initial residual = 0.342258, Final residual = 0.0517399, No Iterations 5
linear solve U 151
nonePCG:  Solving for p, Initial residual = 0.556896, Final residual = 9.83794e-05, No Iterations 493
linear solve p 1535
time step continuity errors : sum local = 5.66789e-08, global = 6.46034e-21, cumulative = -1.16021e-20
nonePCG:  Solving for p, Initial residual = 0.491439, Final residual = 9.70746e-05, No Iterations 492
linear solve p 1531
time step continuity errors : sum local = 5.4306e-08, global = -1.53175e-20, cumulative = -2.69196e-20
ExecutionTime = 11.15 s  ClockTime = 12 s

Time = 0.004

Courant Number mean: 0.0602927 max: 0.575008
nonePBiCGStab:  Solving for Ux, Initial residual = 0.0331619, Final residual = 0.00304836, No Iterations 5
nonePBiCGStab:  Solving for Uy, Initial residual = 0.0805127, Final residual = 0.00691233, No Iterations 5
nonePBiCGStab:  Solving for Uz, Initial residual = 0.204146, Final residual = 0.0243137, No Iterations 5
linear solve U 149
nonePCG:  Solving for p, Initial residual = 0.352227, Final residual = 9.99021e-05, No Iterations 239
linear solve p 744
time step continuity errors : sum local = 6.1897e-08, global = -1.10877e-20, cumulative = -3.80073e-20
nonePCG:  Solving for p, Initial residual = 0.291674, Final residual = 9.53559e-05, No Iterations 236
linear solve p 738
time step continuity errors : sum local = 5.5364e-08, global = 4.02947e-21, cumulative = -3.39778e-20
ExecutionTime = 12.95 s  ClockTime = 13 s

Time = 0.005

Courant Number mean: 0.0682799 max: 0.585617
nonePBiCGStab:  Solving for Ux, Initial residual = 0.0235497, Final residual = 0.00193592, No Iterations 5
nonePBiCGStab:  Solving for Uy, Initial residual = 0.0529868, Final residual = 0.003785, No Iterations 5
nonePBiCGStab:  Solving for Uz, Initial residual = 0.105308, Final residual = 0.0122169, No Iterations 5
linear solve U 152
nonePCG:  Solving for p, Initial residual = 0.271316, Final residual = 9.74261e-05, No Iterations 227
linear solve p 710
time step continuity errors : sum local = 4.77412e-08, global = 1.41929e-20, cumulative = -1.97849e-20
nonePCG:  Solving for p, Initial residual = 0.230529, Final residual = 9.78618e-05, No Iterations 225
linear solve p 705
time step continuity errors : sum local = 4.75033e-08, global = 2.71824e-21, cumulative = -1.70666e-20
ExecutionTime = 14.68 s  ClockTime = 15 s

Time = 0.006

Courant Number mean: 0.0745601 max: 0.592192
nonePBiCGStab:  Solving for Ux, Initial residual = 0.0176777, Final residual = 0.001107, No Iterations 5
nonePBiCGStab:  Solving for Uy, Initial residual = 0.0396037, Final residual = 0.00184101, No Iterations 5
nonePBiCGStab:  Solving for Uz, Initial residual = 0.0847542, Final residual = 0.00888827, No Iterations 5
linear solve U 150
nonePCG:  Solving for p, Initial residual = 0.175809, Final residual = 9.01774e-05, No Iterations 225
linear solve p 703
time step continuity errors : sum local = 5.07839e-08, global = 8.94768e-21, cumulative = -8.11895e-21
nonePCG:  Solving for p, Initial residual = 0.145788, Final residual = 9.64404e-05, No Iterations 222
linear solve p 692
time step continuity errors : sum local = 4.95622e-08, global = 1.80469e-21, cumulative = -6.31426e-21
ExecutionTime = 16.37 s  ClockTime = 17 s

Time = 0.007

Courant Number mean: 0.0797731 max: 0.596671
nonePBiCGStab:  Solving for Ux, Initial residual = 0.013948, Final residual = 0.000743761, No Iterations 5
nonePBiCGStab:  Solving for Uy, Initial residual = 0.0312508, Final residual = 0.00141139, No Iterations 5
nonePBiCGStab:  Solving for Uz, Initial residual = 0.0641656, Final residual = 0.00449879, No Iterations 5
linear solve U 152
nonePCG:  Solving for p, Initial residual = 0.127913, Final residual = 9.56878e-05, No Iterations 215
linear solve p 672
time step continuity errors : sum local = 4.31402e-08, global = 9.31719e-21, cumulative = 3.00293e-21
nonePCG:  Solving for p, Initial residual = 0.107269, Final residual = 9.75854e-05, No Iterations 213
linear solve p 668
time step continuity errors : sum local = 4.5629e-08, global = -2.21988e-20, cumulative = -1.91959e-20
ExecutionTime = 18.02 s  ClockTime = 18 s

Time = 0.008

Courant Number mean: 0.084144 max: 0.600054
nonePBiCGStab:  Solving for Ux, Initial residual = 0.0113974, Final residual = 0.000498273, No Iterations 5
nonePBiCGStab:  Solving for Uy, Initial residual = 0.0252535, Final residual = 0.000814951, No Iterations 5
nonePBiCGStab:  Solving for Uz, Initial residual = 0.0531053, Final residual = 0.00391348, No Iterations 5
linear solve U 150
nonePCG:  Solving for p, Initial residual = 0.0860648, Final residual = 9.89273e-05, No Iterations 448
linear solve p 1395
time step continuity errors : sum local = 4.33624e-08, global = 4.07178e-21, cumulative = -1.51241e-20
nonePCG:  Solving for p, Initial residual = 0.0718542, Final residual = 9.70864e-05, No Iterations 216
linear solve p 676
time step continuity errors : sum local = 5.05339e-08, global = 9.71696e-21, cumulative = -5.40717e-21
ExecutionTime = 20.41 s  ClockTime = 21 s

Time = 0.009

Courant Number mean: 0.0878974 max: 0.602634
nonePBiCGStab:  Solving for Ux, Initial residual = 0.00949925, Final residual = 0.000425602, No Iterations 5
nonePBiCGStab:  Solving for Uy, Initial residual = 0.0212983, Final residual = 0.000652955, No Iterations 5
nonePBiCGStab:  Solving for Uz, Initial residual = 0.0451081, Final residual = 0.00253887, No Iterations 5
linear solve U 150
nonePCG:  Solving for p, Initial residual = 0.0622753, Final residual = 9.51469e-05, No Iterations 450
linear solve p 1401
time step continuity errors : sum local = 4.10663e-08, global = 2.58143e-20, cumulative = 2.04071e-20
nonePCG:  Solving for p, Initial residual = 0.052545, Final residual = 9.88362e-05, No Iterations 448
linear solve p 1397
time step continuity errors : sum local = 4.26781e-08, global = 1.28997e-20, cumulative = 3.33068e-20
ExecutionTime = 23.52 s  ClockTime = 24 s

Time = 0.01

Courant Number mean: 0.0911617 max: 0.604745
nonePBiCGStab:  Solving for Ux, Initial residual = 0.0080956, Final residual = 0.000301683, No Iterations 5
nonePBiCGStab:  Solving for Uy, Initial residual = 0.0180122, Final residual = 0.000470321, No Iterations 5
nonePBiCGStab:  Solving for Uz, Initial residual = 0.0389298, Final residual = 0.00235279, No Iterations 5
linear solve U 150
nonePCG:  Solving for p, Initial residual = 0.0439477, Final residual = 9.6198e-05, No Iterations 446
linear solve p 1388
time step continuity errors : sum local = 4.11523e-08, global = -2.68601e-21, cumulative = 3.06208e-20
nonePCG:  Solving for p, Initial residual = 0.037217, Final residual = 9.88338e-05, No Iterations 208
linear solve p 649
time step continuity errors : sum local = 5.03817e-08, global = 3.4424e-20, cumulative = 6.50448e-20
ExecutionTime = 25.85 s  ClockTime = 26 s

End

