/*---------------------------------------------------------------------------*\
  =========                 |
  \\      /  F ield         | OpenFOAM: The Open Source CFD Toolbox
   \\    /   O peration     | Website:  https://openfoam.org
    \\  /    A nd           | Version:  8
     \\/     M anipulation  |
\*---------------------------------------------------------------------------*/
Build  : 8-40a5a48f630f
Exec   : icoFoam
Date   : Jul 27 2021
Time   : 22:24:16
Host   : "uc2n481.localdomain"
PID    : 137634
I/O    : uncollated
Case   : /pfs/data5/home/kit/scc/nq7776/code/OBR/lidDrivenCavity3D/Variation_mesh/70/Variation_matrix_solver/CG_BJ_CUDA/base
nProcs : 1
sigFpe : Enabling floating point exception trapping (FOAM_SIGFPE).
fileModificationChecking : Monitoring run-time modified files using timeStampMaster (fileModificationSkew 10)
allowSystemOperations : Allowing user-supplied system call operations

// * * * * * * * * * * * * * * * * * * * * * * * * * * * * * * * * * * * * * //
Create time

Create mesh for time = 0

Reading transportProperties

Reading field p

Reading field U

Reading/calculating face flux field phi


Starting time loop

Time = 0.001

Courant Number mean: 0 max: 0
nonePBiCGStab:  Solving for Ux, Initial residual = 1, Final residual = 0.0584718, No Iterations 5
nonePBiCGStab:  Solving for Uy, Initial residual = 0, Final residual = 0, No Iterations 0
nonePBiCGStab:  Solving for Uz, Initial residual = 0, Final residual = 0, No Iterations 0
linear solve U 91
[OGL LOG] init_host_sparsity_pattern : 98 ms
[OGL LOG] matrix not stored update host matrix
[OGL LOG] update_host_mtx : 51 ms
[OGL LOG] matrix is not yet sorted, compute sorting idxs
[OGL LOG] compute_sort : 3010 ms
[OGL LOG] matrix is not yet sorted, sorting host matrix
[OGL LOG] sort_host_mtx_sparsity_pattern : 71 ms
[OGL LOG] sort_host_mtx : 40 ms
[OGL LOG] init_preconditioner : 37 ms
 CG create  precond 
[OGL LOG] solve : 291 ms
BJcudaGKOCG:  Solving for p, Initial residual = 1, Final residual = 9.91917e-05, No Iterations 465
linear solve p 4405
time step continuity errors : sum local = 4.62031e-08, global = -8.44321e-21, cumulative = -8.44321e-21
[OGL LOG] init_host_sparsity_pattern : 93 ms
[OGL LOG] matrix not stored update host matrix
[OGL LOG] update_host_mtx : 51 ms
[OGL LOG] matrix is not yet sorted, sorting host matrix
[OGL LOG] sort_host_mtx_sparsity_pattern : 71 ms
[OGL LOG] sort_host_mtx : 35 ms
[OGL LOG] init_preconditioner : 0 ms
 CG create  precond 
[OGL LOG] solve : 273 ms
BJcudaGKOCG:  Solving for p, Initial residual = 0.681642, Final residual = 9.70807e-05, No Iterations 445
linear solve p 545
time step continuity errors : sum local = 6.38442e-08, global = -9.70968e-21, cumulative = -1.81529e-20
ExecutionTime = 6.52 s  ClockTime = 7 s

Time = 0.002

Courant Number mean: 0.0344583 max: 0.51472
nonePBiCGStab:  Solving for Ux, Initial residual = 0.148861, Final residual = 0.0242745, No Iterations 5
nonePBiCGStab:  Solving for Uy, Initial residual = 0.378252, Final residual = 0.0558308, No Iterations 5
nonePBiCGStab:  Solving for Uz, Initial residual = 0.981648, Final residual = 0.180073, No Iterations 5
linear solve U 185
[OGL LOG] init_host_sparsity_pattern : 92 ms
[OGL LOG] matrix not stored update host matrix
[OGL LOG] update_host_mtx : 44 ms
[OGL LOG] matrix is not yet sorted, sorting host matrix
[OGL LOG] sort_host_mtx_sparsity_pattern : 67 ms
[OGL LOG] sort_host_mtx : 35 ms
[OGL LOG] init_preconditioner : 0 ms
 CG create  precond 
[OGL LOG] solve : 273 ms
BJcudaGKOCG:  Solving for p, Initial residual = 0.684962, Final residual = 9.14567e-05, No Iterations 438
linear solve p 533
time step continuity errors : sum local = 7.91021e-08, global = 2.1943e-21, cumulative = -1.59586e-20
[OGL LOG] init_host_sparsity_pattern : 93 ms
[OGL LOG] matrix not stored update host matrix
[OGL LOG] update_host_mtx : 44 ms
[OGL LOG] matrix is not yet sorted, sorting host matrix
[OGL LOG] sort_host_mtx_sparsity_pattern : 64 ms
[OGL LOG] sort_host_mtx : 36 ms
[OGL LOG] init_preconditioner : 0 ms
 CG create  precond 
[OGL LOG] solve : 268 ms
BJcudaGKOCG:  Solving for p, Initial residual = 0.604547, Final residual = 9.88397e-05, No Iterations 435
linear solve p 531
time step continuity errors : sum local = 8.73929e-08, global = -3.71036e-21, cumulative = -1.96689e-20
ExecutionTime = 7.97 s  ClockTime = 8 s

Time = 0.003

Courant Number mean: 0.0532598 max: 0.605941
nonePBiCGStab:  Solving for Ux, Initial residual = 0.0557356, Final residual = 0.00750004, No Iterations 5
nonePBiCGStab:  Solving for Uy, Initial residual = 0.135023, Final residual = 0.0233167, No Iterations 5
nonePBiCGStab:  Solving for Uz, Initial residual = 0.427593, Final residual = 0.0746075, No Iterations 5
linear solve U 185
[OGL LOG] init_host_sparsity_pattern : 91 ms
[OGL LOG] matrix not stored update host matrix
[OGL LOG] update_host_mtx : 44 ms
[OGL LOG] matrix is not yet sorted, sorting host matrix
[OGL LOG] sort_host_mtx_sparsity_pattern : 64 ms
[OGL LOG] sort_host_mtx : 35 ms
[OGL LOG] init_preconditioner : 0 ms
 CG create  precond 
[OGL LOG] solve : 273 ms
BJcudaGKOCG:  Solving for p, Initial residual = 0.613192, Final residual = 9.49102e-05, No Iterations 434
linear solve p 530
time step continuity errors : sum local = 5.6638e-08, global = -7.34643e-22, cumulative = -2.04036e-20
[OGL LOG] init_host_sparsity_pattern : 92 ms
[OGL LOG] matrix not stored update host matrix
[OGL LOG] update_host_mtx : 44 ms
[OGL LOG] matrix is not yet sorted, sorting host matrix
[OGL LOG] sort_host_mtx_sparsity_pattern : 65 ms
[OGL LOG] sort_host_mtx : 35 ms
[OGL LOG] init_preconditioner : 0 ms
 CG create  precond 
[OGL LOG] solve : 266 ms
BJcudaGKOCG:  Solving for p, Initial residual = 0.546092, Final residual = 9.8441e-05, No Iterations 432
linear solve p 525
time step continuity errors : sum local = 5.70361e-08, global = 9.93957e-21, cumulative = -1.0464e-20
ExecutionTime = 9.43 s  ClockTime = 10 s

Time = 0.004

Courant Number mean: 0.0638357 max: 0.623651
nonePBiCGStab:  Solving for Ux, Initial residual = 0.0334642, Final residual = 0.00389733, No Iterations 5
nonePBiCGStab:  Solving for Uy, Initial residual = 0.0886079, Final residual = 0.0110267, No Iterations 5
nonePBiCGStab:  Solving for Uz, Initial residual = 0.242234, Final residual = 0.0342006, No Iterations 5
linear solve U 184
[OGL LOG] init_host_sparsity_pattern : 92 ms
[OGL LOG] matrix not stored update host matrix
[OGL LOG] update_host_mtx : 45 ms
[OGL LOG] matrix is not yet sorted, sorting host matrix
[OGL LOG] sort_host_mtx_sparsity_pattern : 64 ms
[OGL LOG] sort_host_mtx : 36 ms
[OGL LOG] init_preconditioner : 0 ms
 CG create  precond 
[OGL LOG] solve : 132 ms
BJcudaGKOCG:  Solving for p, Initial residual = 0.427346, Final residual = 9.4808e-05, No Iterations 211
linear solve p 391
time step continuity errors : sum local = 5.80236e-08, global = -7.62109e-21, cumulative = -1.80851e-20
[OGL LOG] init_host_sparsity_pattern : 95 ms
[OGL LOG] matrix not stored update host matrix
[OGL LOG] update_host_mtx : 47 ms
[OGL LOG] matrix is not yet sorted, sorting host matrix
[OGL LOG] sort_host_mtx_sparsity_pattern : 64 ms
[OGL LOG] sort_host_mtx : 35 ms
[OGL LOG] init_preconditioner : 0 ms
 CG create  precond 
[OGL LOG] solve : 129 ms
BJcudaGKOCG:  Solving for p, Initial residual = 0.358106, Final residual = 9.7157e-05, No Iterations 208
linear solve p 393
time step continuity errors : sum local = 5.73442e-08, global = -1.36279e-21, cumulative = -1.94479e-20
ExecutionTime = 10.6 s  ClockTime = 11 s

Time = 0.005

Courant Number mean: 0.0724652 max: 0.634643
nonePBiCGStab:  Solving for Ux, Initial residual = 0.0239708, Final residual = 0.00249192, No Iterations 5
nonePBiCGStab:  Solving for Uy, Initial residual = 0.057206, Final residual = 0.00625072, No Iterations 5
nonePBiCGStab:  Solving for Uz, Initial residual = 0.12323, Final residual = 0.0209852, No Iterations 5
linear solve U 185
[OGL LOG] init_host_sparsity_pattern : 92 ms
[OGL LOG] matrix not stored update host matrix
[OGL LOG] update_host_mtx : 44 ms
[OGL LOG] matrix is not yet sorted, sorting host matrix
[OGL LOG] sort_host_mtx_sparsity_pattern : 65 ms
[OGL LOG] sort_host_mtx : 36 ms
[OGL LOG] init_preconditioner : 0 ms
 CG create  precond 
[OGL LOG] solve : 128 ms
BJcudaGKOCG:  Solving for p, Initial residual = 0.374421, Final residual = 9.43679e-05, No Iterations 204
linear solve p 387
time step continuity errors : sum local = 4.76575e-08, global = -6.62006e-21, cumulative = -2.6068e-20
[OGL LOG] init_host_sparsity_pattern : 93 ms
[OGL LOG] matrix not stored update host matrix
[OGL LOG] update_host_mtx : 44 ms
[OGL LOG] matrix is not yet sorted, sorting host matrix
[OGL LOG] sort_host_mtx_sparsity_pattern : 71 ms
[OGL LOG] sort_host_mtx : 39 ms
[OGL LOG] init_preconditioner : 0 ms
 CG create  precond 
[OGL LOG] solve : 124 ms
BJcudaGKOCG:  Solving for p, Initial residual = 0.321324, Final residual = 9.75709e-05, No Iterations 198
linear solve p 395
time step continuity errors : sum local = 4.7221e-08, global = 3.08497e-21, cumulative = -2.2983e-20
ExecutionTime = 11.78 s  ClockTime = 12 s

Time = 0.006

Courant Number mean: 0.0792297 max: 0.641394
nonePBiCGStab:  Solving for Ux, Initial residual = 0.0179075, Final residual = 0.00152581, No Iterations 5
nonePBiCGStab:  Solving for Uy, Initial residual = 0.0427895, Final residual = 0.00324696, No Iterations 5
nonePBiCGStab:  Solving for Uz, Initial residual = 0.0985212, Final residual = 0.0143093, No Iterations 5
linear solve U 186
[OGL LOG] init_host_sparsity_pattern : 92 ms
[OGL LOG] matrix not stored update host matrix
[OGL LOG] update_host_mtx : 44 ms
[OGL LOG] matrix is not yet sorted, sorting host matrix
[OGL LOG] sort_host_mtx_sparsity_pattern : 64 ms
[OGL LOG] sort_host_mtx : 35 ms
[OGL LOG] init_preconditioner : 0 ms
 CG create  precond 
[OGL LOG] solve : 124 ms
BJcudaGKOCG:  Solving for p, Initial residual = 0.267437, Final residual = 8.71221e-05, No Iterations 197
linear solve p 382
time step continuity errors : sum local = 4.54371e-08, global = 9.01617e-21, cumulative = -1.39668e-20
[OGL LOG] init_host_sparsity_pattern : 91 ms
[OGL LOG] matrix not stored update host matrix
[OGL LOG] update_host_mtx : 44 ms
[OGL LOG] matrix is not yet sorted, sorting host matrix
[OGL LOG] sort_host_mtx_sparsity_pattern : 65 ms
[OGL LOG] sort_host_mtx : 35 ms
[OGL LOG] init_preconditioner : 0 ms
 CG create  precond 
[OGL LOG] solve : 123 ms
BJcudaGKOCG:  Solving for p, Initial residual = 0.224308, Final residual = 8.71874e-05, No Iterations 196
linear solve p 381
time step continuity errors : sum local = 4.43369e-08, global = -9.14283e-21, cumulative = -2.31096e-20
ExecutionTime = 12.93 s  ClockTime = 13 s

Time = 0.007

Courant Number mean: 0.0849289 max: 0.645999
nonePBiCGStab:  Solving for Ux, Initial residual = 0.0141359, Final residual = 0.000981056, No Iterations 5
nonePBiCGStab:  Solving for Uy, Initial residual = 0.0335497, Final residual = 0.00228369, No Iterations 5
nonePBiCGStab:  Solving for Uz, Initial residual = 0.0717851, Final residual = 0.0076356, No Iterations 5
linear solve U 185
[OGL LOG] init_host_sparsity_pattern : 94 ms
[OGL LOG] matrix not stored update host matrix
[OGL LOG] update_host_mtx : 44 ms
[OGL LOG] matrix is not yet sorted, sorting host matrix
[OGL LOG] sort_host_mtx_sparsity_pattern : 64 ms
[OGL LOG] sort_host_mtx : 35 ms
[OGL LOG] init_preconditioner : 0 ms
 CG create  precond 
[OGL LOG] solve : 120 ms
BJcudaGKOCG:  Solving for p, Initial residual = 0.220035, Final residual = 9.96383e-05, No Iterations 190
linear solve p 383
time step continuity errors : sum local = 4.74919e-08, global = -8.20195e-21, cumulative = -3.13116e-20
[OGL LOG] init_host_sparsity_pattern : 92 ms
[OGL LOG] matrix not stored update host matrix
[OGL LOG] update_host_mtx : 45 ms
[OGL LOG] matrix is not yet sorted, sorting host matrix
[OGL LOG] sort_host_mtx_sparsity_pattern : 65 ms
[OGL LOG] sort_host_mtx : 35 ms
[OGL LOG] init_preconditioner : 0 ms
 CG create  precond 
[OGL LOG] solve : 118 ms
BJcudaGKOCG:  Solving for p, Initial residual = 0.186173, Final residual = 9.50167e-05, No Iterations 189
linear solve p 378
time step continuity errors : sum local = 4.4491e-08, global = -2.00837e-20, cumulative = -5.13953e-20
ExecutionTime = 14.09 s  ClockTime = 15 s

Time = 0.008

Courant Number mean: 0.0897168 max: 0.649533
nonePBiCGStab:  Solving for Ux, Initial residual = 0.011506, Final residual = 0.000682438, No Iterations 5
nonePBiCGStab:  Solving for Uy, Initial residual = 0.0268322, Final residual = 0.00131426, No Iterations 5
nonePBiCGStab:  Solving for Uz, Initial residual = 0.0592727, Final residual = 0.00682052, No Iterations 5
linear solve U 185
[OGL LOG] init_host_sparsity_pattern : 92 ms
[OGL LOG] matrix not stored update host matrix
[OGL LOG] update_host_mtx : 44 ms
[OGL LOG] matrix is not yet sorted, sorting host matrix
[OGL LOG] sort_host_mtx_sparsity_pattern : 64 ms
[OGL LOG] sort_host_mtx : 35 ms
[OGL LOG] init_preconditioner : 0 ms
 CG create  precond 
[OGL LOG] solve : 118 ms
BJcudaGKOCG:  Solving for p, Initial residual = 0.161213, Final residual = 9.85597e-05, No Iterations 187
linear solve p 376
time step continuity errors : sum local = 4.73619e-08, global = 1.01735e-20, cumulative = -4.12218e-20
[OGL LOG] init_host_sparsity_pattern : 91 ms
[OGL LOG] matrix not stored update host matrix
[OGL LOG] update_host_mtx : 44 ms
[OGL LOG] matrix is not yet sorted, sorting host matrix
[OGL LOG] sort_host_mtx_sparsity_pattern : 66 ms
[OGL LOG] sort_host_mtx : 35 ms
[OGL LOG] init_preconditioner : 0 ms
 CG create  precond 
[OGL LOG] solve : 116 ms
BJcudaGKOCG:  Solving for p, Initial residual = 0.135331, Final residual = 9.75214e-05, No Iterations 185
linear solve p 375
time step continuity errors : sum local = 4.58672e-08, global = 1.26434e-20, cumulative = -2.85784e-20
ExecutionTime = 15.23 s  ClockTime = 16 s

Time = 0.009

Courant Number mean: 0.0938432 max: 0.652167
nonePBiCGStab:  Solving for Ux, Initial residual = 0.00954303, Final residual = 0.000530474, No Iterations 5
nonePBiCGStab:  Solving for Uy, Initial residual = 0.0225922, Final residual = 0.000912615, No Iterations 5
nonePBiCGStab:  Solving for Uz, Initial residual = 0.0490579, Final residual = 0.00382734, No Iterations 5
linear solve U 185
[OGL LOG] init_host_sparsity_pattern : 93 ms
[OGL LOG] matrix not stored update host matrix
[OGL LOG] update_host_mtx : 45 ms
[OGL LOG] matrix is not yet sorted, sorting host matrix
[OGL LOG] sort_host_mtx_sparsity_pattern : 65 ms
[OGL LOG] sort_host_mtx : 36 ms
[OGL LOG] init_preconditioner : 0 ms
 CG create  precond 
[OGL LOG] solve : 117 ms
BJcudaGKOCG:  Solving for p, Initial residual = 0.128768, Final residual = 9.64238e-05, No Iterations 185
linear solve p 377
time step continuity errors : sum local = 4.38431e-08, global = 1.15424e-20, cumulative = -1.70359e-20
[OGL LOG] init_host_sparsity_pattern : 91 ms
[OGL LOG] matrix not stored update host matrix
[OGL LOG] update_host_mtx : 44 ms
[OGL LOG] matrix is not yet sorted, sorting host matrix
[OGL LOG] sort_host_mtx_sparsity_pattern : 64 ms
[OGL LOG] sort_host_mtx : 35 ms
[OGL LOG] init_preconditioner : 0 ms
 CG create  precond 
[OGL LOG] solve : 114 ms
BJcudaGKOCG:  Solving for p, Initial residual = 0.10872, Final residual = 9.7226e-05, No Iterations 183
linear solve p 371
time step continuity errors : sum local = 4.40428e-08, global = 2.98742e-21, cumulative = -1.40485e-20
ExecutionTime = 16.36 s  ClockTime = 17 s

Time = 0.01

Courant Number mean: 0.097427 max: 0.654379
nonePBiCGStab:  Solving for Ux, Initial residual = 0.00811446, Final residual = 0.000410674, No Iterations 5
nonePBiCGStab:  Solving for Uy, Initial residual = 0.0188541, Final residual = 0.000632586, No Iterations 5
nonePBiCGStab:  Solving for Uz, Initial residual = 0.0418606, Final residual = 0.00365105, No Iterations 5
linear solve U 185
[OGL LOG] init_host_sparsity_pattern : 94 ms
[OGL LOG] matrix not stored update host matrix
[OGL LOG] update_host_mtx : 48 ms
[OGL LOG] matrix is not yet sorted, sorting host matrix
[OGL LOG] sort_host_mtx_sparsity_pattern : 68 ms
[OGL LOG] sort_host_mtx : 36 ms
[OGL LOG] init_preconditioner : 0 ms
 CG create  precond 
[OGL LOG] solve : 114 ms
BJcudaGKOCG:  Solving for p, Initial residual = 0.0948042, Final residual = 9.97438e-05, No Iterations 181
linear solve p 383
time step continuity errors : sum local = 4.63776e-08, global = -3.33747e-21, cumulative = -1.7386e-20
[OGL LOG] init_host_sparsity_pattern : 92 ms
[OGL LOG] matrix not stored update host matrix
[OGL LOG] update_host_mtx : 45 ms
[OGL LOG] matrix is not yet sorted, sorting host matrix
[OGL LOG] sort_host_mtx_sparsity_pattern : 64 ms
[OGL LOG] sort_host_mtx : 35 ms
[OGL LOG] init_preconditioner : 0 ms
 CG create  precond 
[OGL LOG] solve : 111 ms
BJcudaGKOCG:  Solving for p, Initial residual = 0.0798651, Final residual = 9.80626e-05, No Iterations 179
linear solve p 370
time step continuity errors : sum local = 4.45396e-08, global = -2.10154e-20, cumulative = -3.84014e-20
ExecutionTime = 17.51 s  ClockTime = 18 s

End

