/*---------------------------------------------------------------------------*\
  =========                 |
  \\      /  F ield         | OpenFOAM: The Open Source CFD Toolbox
   \\    /   O peration     | Website:  https://openfoam.org
    \\  /    A nd           | Version:  8
     \\/     M anipulation  |
\*---------------------------------------------------------------------------*/
Build  : 8-40a5a48f630f
Exec   : icoFoam
Date   : Jul 27 2021
Time   : 23:09:43
Host   : "uc2n481.localdomain"
PID    : 178298
I/O    : uncollated
Case   : /pfs/data5/home/kit/scc/nq7776/code/OBR/lidDrivenCavity3D/Variation_mesh/10/Variation_matrix_solver/BiCGStab_BJ_CUDA/base
nProcs : 1
sigFpe : Enabling floating point exception trapping (FOAM_SIGFPE).
fileModificationChecking : Monitoring run-time modified files using timeStampMaster (fileModificationSkew 10)
allowSystemOperations : Allowing user-supplied system call operations

// * * * * * * * * * * * * * * * * * * * * * * * * * * * * * * * * * * * * * //
Create time

Create mesh for time = 0

Reading transportProperties

Reading field p

Reading field U

Reading/calculating face flux field phi


Starting time loop

Time = 0.001

Courant Number mean: 0 max: 0
nonePBiCGStab:  Solving for Ux, Initial residual = 1, Final residual = 6.46984e-07, No Iterations 5
nonePBiCGStab:  Solving for Uy, Initial residual = 0, Final residual = 0, No Iterations 0
nonePBiCGStab:  Solving for Uz, Initial residual = 0, Final residual = 0, No Iterations 0
linear solve U 0
[OGL LOG] init_host_sparsity_pattern : 0 ms
[OGL LOG] matrix not stored update host matrix
[OGL LOG] update_host_mtx : 0 ms
[OGL LOG] matrix is not yet sorted, compute sorting idxs
[OGL LOG] compute_sort : 5 ms
[OGL LOG] matrix is not yet sorted, sorting host matrix
[OGL LOG] sort_host_mtx_sparsity_pattern : 0 ms
[OGL LOG] sort_host_mtx : 0 ms
[OGL LOG] init_preconditioner : 0 ms
[OGL LOG] solve : 12 ms
BJcudaGKOBiCGStab:  Solving for p, Initial residual = 1, Final residual = 9.45659e-05, No Iterations 41
linear solve p 785
time step continuity errors : sum local = 3.16553e-08, global = 4.8084e-21, cumulative = 4.8084e-21
[OGL LOG] init_host_sparsity_pattern : 0 ms
[OGL LOG] matrix not stored update host matrix
[OGL LOG] update_host_mtx : 0 ms
[OGL LOG] matrix is not yet sorted, sorting host matrix
[OGL LOG] sort_host_mtx_sparsity_pattern : 0 ms
[OGL LOG] sort_host_mtx : 0 ms
[OGL LOG] init_preconditioner : 0 ms
[OGL LOG] solve : 10 ms
BJcudaGKOBiCGStab:  Solving for p, Initial residual = 0.190399, Final residual = 6.65619e-05, No Iterations 33
linear solve p 11
time step continuity errors : sum local = 8.08339e-08, global = -7.15677e-21, cumulative = -2.34837e-21
ExecutionTime = 0.82 s  ClockTime = 1 s

Time = 0.002

Courant Number mean: 0.00276878 max: 0.0123846
nonePBiCGStab:  Solving for Ux, Initial residual = 0.271658, Final residual = 3.20303e-07, No Iterations 5
nonePBiCGStab:  Solving for Uy, Initial residual = 0.305245, Final residual = 8.85203e-07, No Iterations 4
nonePBiCGStab:  Solving for Uz, Initial residual = 0.479532, Final residual = 6.39935e-07, No Iterations 5
linear solve U 0
[OGL LOG] init_host_sparsity_pattern : 0 ms
[OGL LOG] matrix not stored update host matrix
[OGL LOG] update_host_mtx : 0 ms
[OGL LOG] matrix is not yet sorted, sorting host matrix
[OGL LOG] sort_host_mtx_sparsity_pattern : 0 ms
[OGL LOG] sort_host_mtx : 0 ms
[OGL LOG] init_preconditioner : 0 ms
[OGL LOG] solve : 10 ms
BJcudaGKOBiCGStab:  Solving for p, Initial residual = 0.124791, Final residual = 8.15631e-05, No Iterations 33
linear solve p 11
time step continuity errors : sum local = 1.01449e-07, global = 1.14101e-20, cumulative = 9.06176e-21
[OGL LOG] init_host_sparsity_pattern : 0 ms
[OGL LOG] matrix not stored update host matrix
[OGL LOG] update_host_mtx : 0 ms
[OGL LOG] matrix is not yet sorted, sorting host matrix
[OGL LOG] sort_host_mtx_sparsity_pattern : 0 ms
[OGL LOG] sort_host_mtx : 0 ms
[OGL LOG] init_preconditioner : 0 ms
[OGL LOG] solve : 4 ms
BJcudaGKOBiCGStab:  Solving for p, Initial residual = 0.0212577, Final residual = 8.57081e-05, No Iterations 12
linear solve p 5
time step continuity errors : sum local = 8.99717e-08, global = 1.13357e-20, cumulative = 2.03974e-20
ExecutionTime = 0.84 s  ClockTime = 1 s

Time = 0.003

Courant Number mean: 0.00491746 max: 0.0221391
nonePBiCGStab:  Solving for Ux, Initial residual = 0.137869, Final residual = 1.4894e-07, No Iterations 5
nonePBiCGStab:  Solving for Uy, Initial residual = 0.166029, Final residual = 4.19057e-07, No Iterations 4
nonePBiCGStab:  Solving for Uz, Initial residual = 0.29431, Final residual = 2.2029e-07, No Iterations 5
linear solve U 0
[OGL LOG] init_host_sparsity_pattern : 0 ms
[OGL LOG] matrix not stored update host matrix
[OGL LOG] update_host_mtx : 0 ms
[OGL LOG] matrix is not yet sorted, sorting host matrix
[OGL LOG] sort_host_mtx_sparsity_pattern : 0 ms
[OGL LOG] sort_host_mtx : 0 ms
[OGL LOG] init_preconditioner : 0 ms
[OGL LOG] solve : 8 ms
BJcudaGKOBiCGStab:  Solving for p, Initial residual = 0.0636374, Final residual = 9.52482e-05, No Iterations 29
linear solve p 9
time step continuity errors : sum local = 1.3659e-07, global = 6.1443e-21, cumulative = 2.65417e-20
[OGL LOG] init_host_sparsity_pattern : 0 ms
[OGL LOG] matrix not stored update host matrix
[OGL LOG] update_host_mtx : 0 ms
[OGL LOG] matrix is not yet sorted, sorting host matrix
[OGL LOG] sort_host_mtx_sparsity_pattern : 0 ms
[OGL LOG] sort_host_mtx : 0 ms
[OGL LOG] init_preconditioner : 0 ms
[OGL LOG] solve : 3 ms
BJcudaGKOBiCGStab:  Solving for p, Initial residual = 0.0132906, Final residual = 9.99605e-05, No Iterations 11
linear solve p 4
time step continuity errors : sum local = 1.01168e-07, global = 2.81556e-20, cumulative = 5.46973e-20
ExecutionTime = 0.85 s  ClockTime = 1 s

Time = 0.004

Courant Number mean: 0.00660401 max: 0.0298429
nonePBiCGStab:  Solving for Ux, Initial residual = 0.084401, Final residual = 5.09512e-07, No Iterations 4
nonePBiCGStab:  Solving for Uy, Initial residual = 0.107795, Final residual = 6.88173e-07, No Iterations 4
nonePBiCGStab:  Solving for Uz, Initial residual = 0.194254, Final residual = 7.21554e-07, No Iterations 4
linear solve U 0
[OGL LOG] init_host_sparsity_pattern : 0 ms
[OGL LOG] matrix not stored update host matrix
[OGL LOG] update_host_mtx : 0 ms
[OGL LOG] matrix is not yet sorted, sorting host matrix
[OGL LOG] sort_host_mtx_sparsity_pattern : 0 ms
[OGL LOG] sort_host_mtx : 0 ms
[OGL LOG] init_preconditioner : 0 ms
[OGL LOG] solve : 10 ms
BJcudaGKOBiCGStab:  Solving for p, Initial residual = 0.0390718, Final residual = 9.99269e-05, No Iterations 33
linear solve p 11
time step continuity errors : sum local = 9.00287e-08, global = -1.22216e-20, cumulative = 4.24757e-20
[OGL LOG] init_host_sparsity_pattern : 0 ms
[OGL LOG] matrix not stored update host matrix
[OGL LOG] update_host_mtx : 0 ms
[OGL LOG] matrix is not yet sorted, sorting host matrix
[OGL LOG] sort_host_mtx_sparsity_pattern : 0 ms
[OGL LOG] sort_host_mtx : 0 ms
[OGL LOG] init_preconditioner : 0 ms
[OGL LOG] solve : 3 ms
BJcudaGKOBiCGStab:  Solving for p, Initial residual = 0.00956705, Final residual = 7.31958e-05, No Iterations 11
linear solve p 5
time step continuity errors : sum local = 9.62443e-08, global = -3.39694e-20, cumulative = 8.50631e-21
ExecutionTime = 0.87 s  ClockTime = 1 s

Time = 0.005

Courant Number mean: 0.00794432 max: 0.0359758
nonePBiCGStab:  Solving for Ux, Initial residual = 0.0590202, Final residual = 7.36e-07, No Iterations 4
nonePBiCGStab:  Solving for Uy, Initial residual = 0.0764673, Final residual = 3.87385e-07, No Iterations 4
nonePBiCGStab:  Solving for Uz, Initial residual = 0.15173, Final residual = 5.44506e-07, No Iterations 4
linear solve U 0
[OGL LOG] init_host_sparsity_pattern : 0 ms
[OGL LOG] matrix not stored update host matrix
[OGL LOG] update_host_mtx : 0 ms
[OGL LOG] matrix is not yet sorted, sorting host matrix
[OGL LOG] sort_host_mtx_sparsity_pattern : 0 ms
[OGL LOG] sort_host_mtx : 0 ms
[OGL LOG] init_preconditioner : 0 ms
[OGL LOG] solve : 4 ms
BJcudaGKOBiCGStab:  Solving for p, Initial residual = 0.0281874, Final residual = 9.74624e-05, No Iterations 13
linear solve p 5
time step continuity errors : sum local = 1.18535e-07, global = -4.5772e-21, cumulative = 3.92911e-21
[OGL LOG] init_host_sparsity_pattern : 0 ms
[OGL LOG] matrix not stored update host matrix
[OGL LOG] update_host_mtx : 0 ms
[OGL LOG] matrix is not yet sorted, sorting host matrix
[OGL LOG] sort_host_mtx_sparsity_pattern : 0 ms
[OGL LOG] sort_host_mtx : 0 ms
[OGL LOG] init_preconditioner : 0 ms
[OGL LOG] solve : 4 ms
BJcudaGKOBiCGStab:  Solving for p, Initial residual = 0.00738773, Final residual = 6.07438e-05, No Iterations 11
linear solve p 5
time step continuity errors : sum local = 6.48049e-08, global = 8.24285e-22, cumulative = 4.75339e-21
ExecutionTime = 0.88 s  ClockTime = 1 s

Time = 0.006

Courant Number mean: 0.00902424 max: 0.0408975
nonePBiCGStab:  Solving for Ux, Initial residual = 0.0444301, Final residual = 4.05361e-07, No Iterations 4
nonePBiCGStab:  Solving for Uy, Initial residual = 0.0572572, Final residual = 2.25318e-07, No Iterations 4
nonePBiCGStab:  Solving for Uz, Initial residual = 0.123332, Final residual = 3.05459e-07, No Iterations 4
linear solve U 0
[OGL LOG] init_host_sparsity_pattern : 0 ms
[OGL LOG] matrix not stored update host matrix
[OGL LOG] update_host_mtx : 0 ms
[OGL LOG] matrix is not yet sorted, sorting host matrix
[OGL LOG] sort_host_mtx_sparsity_pattern : 0 ms
[OGL LOG] sort_host_mtx : 0 ms
[OGL LOG] init_preconditioner : 0 ms
[OGL LOG] solve : 9 ms
BJcudaGKOBiCGStab:  Solving for p, Initial residual = 0.0228374, Final residual = 7.50325e-05, No Iterations 30
linear solve p 10
time step continuity errors : sum local = 7.89469e-08, global = -2.35035e-20, cumulative = -1.87501e-20
[OGL LOG] init_host_sparsity_pattern : 0 ms
[OGL LOG] matrix not stored update host matrix
[OGL LOG] update_host_mtx : 0 ms
[OGL LOG] matrix is not yet sorted, sorting host matrix
[OGL LOG] sort_host_mtx_sparsity_pattern : 0 ms
[OGL LOG] sort_host_mtx : 0 ms
[OGL LOG] init_preconditioner : 0 ms
[OGL LOG] solve : 3 ms
BJcudaGKOBiCGStab:  Solving for p, Initial residual = 0.00580218, Final residual = 6.91812e-05, No Iterations 11
linear solve p 4
time step continuity errors : sum local = 7.57872e-08, global = -6.3398e-20, cumulative = -8.21481e-20
ExecutionTime = 0.89 s  ClockTime = 1 s

Time = 0.007

Courant Number mean: 0.00990685 max: 0.0448801
nonePBiCGStab:  Solving for Ux, Initial residual = 0.0348888, Final residual = 2.39118e-07, No Iterations 4
nonePBiCGStab:  Solving for Uy, Initial residual = 0.0446119, Final residual = 7.23806e-07, No Iterations 3
nonePBiCGStab:  Solving for Uz, Initial residual = 0.102271, Final residual = 6.96061e-07, No Iterations 4
linear solve U 0
[OGL LOG] init_host_sparsity_pattern : 0 ms
[OGL LOG] matrix not stored update host matrix
[OGL LOG] update_host_mtx : 0 ms
[OGL LOG] matrix is not yet sorted, sorting host matrix
[OGL LOG] sort_host_mtx_sparsity_pattern : 0 ms
[OGL LOG] sort_host_mtx : 0 ms
[OGL LOG] init_preconditioner : 0 ms
[OGL LOG] solve : 4 ms
BJcudaGKOBiCGStab:  Solving for p, Initial residual = 0.0195264, Final residual = 9.09995e-05, No Iterations 13
linear solve p 5
time step continuity errors : sum local = 1.17477e-07, global = 1.64516e-21, cumulative = -8.05029e-20
[OGL LOG] init_host_sparsity_pattern : 0 ms
[OGL LOG] matrix not stored update host matrix
[OGL LOG] update_host_mtx : 0 ms
[OGL LOG] matrix is not yet sorted, sorting host matrix
[OGL LOG] sort_host_mtx_sparsity_pattern : 0 ms
[OGL LOG] sort_host_mtx : 0 ms
[OGL LOG] init_preconditioner : 0 ms
[OGL LOG] solve : 3 ms
BJcudaGKOBiCGStab:  Solving for p, Initial residual = 0.00474439, Final residual = 8.8559e-05, No Iterations 10
linear solve p 4
time step continuity errors : sum local = 9.99723e-08, global = -1.30463e-20, cumulative = -9.35492e-20
ExecutionTime = 0.9 s  ClockTime = 1 s

Time = 0.008

Courant Number mean: 0.0106745 max: 0.0481313
nonePBiCGStab:  Solving for Ux, Initial residual = 0.0282083, Final residual = 9.53631e-07, No Iterations 3
nonePBiCGStab:  Solving for Uy, Initial residual = 0.0357618, Final residual = 4.2135e-07, No Iterations 3
nonePBiCGStab:  Solving for Uz, Initial residual = 0.0869131, Final residual = 5.24932e-07, No Iterations 4
linear solve U 0
[OGL LOG] init_host_sparsity_pattern : 0 ms
[OGL LOG] matrix not stored update host matrix
[OGL LOG] update_host_mtx : 0 ms
[OGL LOG] matrix is not yet sorted, sorting host matrix
[OGL LOG] sort_host_mtx_sparsity_pattern : 0 ms
[OGL LOG] sort_host_mtx : 0 ms
[OGL LOG] init_preconditioner : 0 ms
[OGL LOG] solve : 7 ms
BJcudaGKOBiCGStab:  Solving for p, Initial residual = 0.0167967, Final residual = 8.57408e-05, No Iterations 25
linear solve p 8
time step continuity errors : sum local = 1.47181e-07, global = 2.3128e-20, cumulative = -7.04212e-20
[OGL LOG] init_host_sparsity_pattern : 0 ms
[OGL LOG] matrix not stored update host matrix
[OGL LOG] update_host_mtx : 0 ms
[OGL LOG] matrix is not yet sorted, sorting host matrix
[OGL LOG] sort_host_mtx_sparsity_pattern : 0 ms
[OGL LOG] sort_host_mtx : 0 ms
[OGL LOG] init_preconditioner : 0 ms
[OGL LOG] solve : 3 ms
BJcudaGKOBiCGStab:  Solving for p, Initial residual = 0.00389148, Final residual = 9.51375e-05, No Iterations 11
linear solve p 4
time step continuity errors : sum local = 1.36878e-07, global = 3.2854e-20, cumulative = -3.75673e-20
ExecutionTime = 0.92 s  ClockTime = 1 s

Time = 0.009

Courant Number mean: 0.011344 max: 0.0508022
nonePBiCGStab:  Solving for Ux, Initial residual = 0.0232004, Final residual = 5.83779e-07, No Iterations 3
nonePBiCGStab:  Solving for Uy, Initial residual = 0.0293668, Final residual = 2.61874e-07, No Iterations 3
nonePBiCGStab:  Solving for Uz, Initial residual = 0.07365, Final residual = 3.77096e-07, No Iterations 4
linear solve U 0
[OGL LOG] init_host_sparsity_pattern : 0 ms
[OGL LOG] matrix not stored update host matrix
[OGL LOG] update_host_mtx : 0 ms
[OGL LOG] matrix is not yet sorted, sorting host matrix
[OGL LOG] sort_host_mtx_sparsity_pattern : 0 ms
[OGL LOG] sort_host_mtx : 0 ms
[OGL LOG] init_preconditioner : 0 ms
[OGL LOG] solve : 7 ms
BJcudaGKOBiCGStab:  Solving for p, Initial residual = 0.0150654, Final residual = 9.99782e-05, No Iterations 23
linear solve p 8
time step continuity errors : sum local = 1.72076e-07, global = -2.49279e-20, cumulative = -6.24952e-20
[OGL LOG] init_host_sparsity_pattern : 0 ms
[OGL LOG] matrix not stored update host matrix
[OGL LOG] update_host_mtx : 0 ms
[OGL LOG] matrix is not yet sorted, sorting host matrix
[OGL LOG] sort_host_mtx_sparsity_pattern : 0 ms
[OGL LOG] sort_host_mtx : 0 ms
[OGL LOG] init_preconditioner : 0 ms
[OGL LOG] solve : 3 ms
BJcudaGKOBiCGStab:  Solving for p, Initial residual = 0.00332634, Final residual = 8.66873e-05, No Iterations 11
linear solve p 5
time step continuity errors : sum local = 1.44363e-07, global = 1.85024e-20, cumulative = -4.39928e-20
ExecutionTime = 0.93 s  ClockTime = 1 s

Time = 0.01

Courant Number mean: 0.0119442 max: 0.053017
nonePBiCGStab:  Solving for Ux, Initial residual = 0.0193015, Final residual = 3.75677e-07, No Iterations 3
nonePBiCGStab:  Solving for Uy, Initial residual = 0.0245453, Final residual = 8.44497e-07, No Iterations 3
nonePBiCGStab:  Solving for Uz, Initial residual = 0.0636355, Final residual = 3.39048e-07, No Iterations 4
linear solve U 0
[OGL LOG] init_host_sparsity_pattern : 0 ms
[OGL LOG] matrix not stored update host matrix
[OGL LOG] update_host_mtx : 0 ms
[OGL LOG] matrix is not yet sorted, sorting host matrix
[OGL LOG] sort_host_mtx_sparsity_pattern : 0 ms
[OGL LOG] sort_host_mtx : 0 ms
[OGL LOG] init_preconditioner : 0 ms
[OGL LOG] solve : 8 ms
BJcudaGKOBiCGStab:  Solving for p, Initial residual = 0.0134514, Final residual = 6.43618e-05, No Iterations 26
linear solve p 9
time step continuity errors : sum local = 1.15098e-07, global = 1.57346e-20, cumulative = -2.82582e-20
[OGL LOG] init_host_sparsity_pattern : 0 ms
[OGL LOG] matrix not stored update host matrix
[OGL LOG] update_host_mtx : 0 ms
[OGL LOG] matrix is not yet sorted, sorting host matrix
[OGL LOG] sort_host_mtx_sparsity_pattern : 0 ms
[OGL LOG] sort_host_mtx : 0 ms
[OGL LOG] init_preconditioner : 0 ms
[OGL LOG] solve : 3 ms
BJcudaGKOBiCGStab:  Solving for p, Initial residual = 0.0027308, Final residual = 7.46719e-05, No Iterations 10
linear solve p 4
time step continuity errors : sum local = 1.08252e-07, global = 3.39558e-21, cumulative = -2.48626e-20
ExecutionTime = 0.96 s  ClockTime = 1 s

End

