/*---------------------------------------------------------------------------*\
  =========                 |
  \\      /  F ield         | OpenFOAM: The Open Source CFD Toolbox
   \\    /   O peration     | Website:  https://openfoam.org
    \\  /    A nd           | Version:  8
     \\/     M anipulation  |
\*---------------------------------------------------------------------------*/
Build  : 8-40a5a48f630f
Exec   : icoFoam
Date   : Jul 27 2021
Time   : 23:19:26
Host   : "uc2n481.localdomain"
PID    : 187619
I/O    : uncollated
Case   : /pfs/data5/home/kit/scc/nq7776/code/OBR/lidDrivenCavity3D/Variation_mesh/20/Variation_matrix_solver/BiCGStab_BJ_CUDA/base
nProcs : 1
sigFpe : Enabling floating point exception trapping (FOAM_SIGFPE).
fileModificationChecking : Monitoring run-time modified files using timeStampMaster (fileModificationSkew 10)
allowSystemOperations : Allowing user-supplied system call operations

// * * * * * * * * * * * * * * * * * * * * * * * * * * * * * * * * * * * * * //
Create time

Create mesh for time = 0

Reading transportProperties

Reading field p

Reading field U

Reading/calculating face flux field phi


Starting time loop

Time = 0.001

Courant Number mean: 0 max: 0
nonePBiCGStab:  Solving for Ux, Initial residual = 1, Final residual = 0.000780533, No Iterations 5
nonePBiCGStab:  Solving for Uy, Initial residual = 0, Final residual = 0, No Iterations 0
nonePBiCGStab:  Solving for Uz, Initial residual = 0, Final residual = 0, No Iterations 0
linear solve U 1
[OGL LOG] init_host_sparsity_pattern : 2 ms
[OGL LOG] matrix not stored update host matrix
[OGL LOG] update_host_mtx : 1 ms
[OGL LOG] matrix is not yet sorted, compute sorting idxs
[OGL LOG] compute_sort : 52 ms
[OGL LOG] matrix is not yet sorted, sorting host matrix
[OGL LOG] sort_host_mtx_sparsity_pattern : 1 ms
[OGL LOG] sort_host_mtx : 0 ms
[OGL LOG] init_preconditioner : 1 ms
[OGL LOG] solve : 29 ms
BJcudaGKOBiCGStab:  Solving for p, Initial residual = 1, Final residual = 7.67212e-05, No Iterations 102
linear solve p 857
time step continuity errors : sum local = 7.31958e-08, global = 8.96664e-22, cumulative = 8.96664e-22
[OGL LOG] init_host_sparsity_pattern : 2 ms
[OGL LOG] matrix not stored update host matrix
[OGL LOG] update_host_mtx : 1 ms
[OGL LOG] matrix is not yet sorted, sorting host matrix
[OGL LOG] sort_host_mtx_sparsity_pattern : 1 ms
[OGL LOG] sort_host_mtx : 0 ms
[OGL LOG] init_preconditioner : 0 ms
[OGL LOG] solve : 26 ms
BJcudaGKOBiCGStab:  Solving for p, Initial residual = 0.411569, Final residual = 8.48183e-05, No Iterations 93
linear solve p 32
time step continuity errors : sum local = 1.35642e-07, global = 4.22234e-21, cumulative = 5.11901e-21
ExecutionTime = 0.94 s  ClockTime = 1 s

Time = 0.002

Courant Number mean: 0.0087612 max: 0.0682853
nonePBiCGStab:  Solving for Ux, Initial residual = 0.225342, Final residual = 0.000138378, No Iterations 5
nonePBiCGStab:  Solving for Uy, Initial residual = 0.289696, Final residual = 0.00012686, No Iterations 5
nonePBiCGStab:  Solving for Uz, Initial residual = 0.812979, Final residual = 0.000511071, No Iterations 5
linear solve U 2
[OGL LOG] init_host_sparsity_pattern : 2 ms
[OGL LOG] matrix not stored update host matrix
[OGL LOG] update_host_mtx : 1 ms
[OGL LOG] matrix is not yet sorted, sorting host matrix
[OGL LOG] sort_host_mtx_sparsity_pattern : 1 ms
[OGL LOG] sort_host_mtx : 0 ms
[OGL LOG] init_preconditioner : 0 ms
[OGL LOG] solve : 28 ms
BJcudaGKOBiCGStab:  Solving for p, Initial residual = 0.212681, Final residual = 8.13113e-05, No Iterations 101
linear solve p 34
time step continuity errors : sum local = 1.22894e-07, global = 1.73418e-21, cumulative = 6.85319e-21
[OGL LOG] init_host_sparsity_pattern : 2 ms
[OGL LOG] matrix not stored update host matrix
[OGL LOG] update_host_mtx : 1 ms
[OGL LOG] matrix is not yet sorted, sorting host matrix
[OGL LOG] sort_host_mtx_sparsity_pattern : 1 ms
[OGL LOG] sort_host_mtx : 0 ms
[OGL LOG] init_preconditioner : 0 ms
[OGL LOG] solve : 23 ms
BJcudaGKOBiCGStab:  Solving for p, Initial residual = 0.122961, Final residual = 5.01304e-05, No Iterations 85
linear solve p 30
time step continuity errors : sum local = 8.10999e-08, global = -1.2235e-20, cumulative = -5.38184e-21
ExecutionTime = 1.01 s  ClockTime = 1 s

Time = 0.003

Courant Number mean: 0.0142433 max: 0.104361
nonePBiCGStab:  Solving for Ux, Initial residual = 0.102652, Final residual = 6.43907e-05, No Iterations 5
nonePBiCGStab:  Solving for Uy, Initial residual = 0.135043, Final residual = 4.0911e-05, No Iterations 5
nonePBiCGStab:  Solving for Uz, Initial residual = 0.2979, Final residual = 0.000142835, No Iterations 5
linear solve U 2
[OGL LOG] init_host_sparsity_pattern : 2 ms
[OGL LOG] matrix not stored update host matrix
[OGL LOG] update_host_mtx : 1 ms
[OGL LOG] matrix is not yet sorted, sorting host matrix
[OGL LOG] sort_host_mtx_sparsity_pattern : 1 ms
[OGL LOG] sort_host_mtx : 0 ms
[OGL LOG] init_preconditioner : 0 ms
[OGL LOG] solve : 22 ms
BJcudaGKOBiCGStab:  Solving for p, Initial residual = 0.0913281, Final residual = 8.5436e-05, No Iterations 78
linear solve p 28
time step continuity errors : sum local = 1.37172e-07, global = 4.21841e-20, cumulative = 3.68023e-20
[OGL LOG] init_host_sparsity_pattern : 2 ms
[OGL LOG] matrix not stored update host matrix
[OGL LOG] update_host_mtx : 1 ms
[OGL LOG] matrix is not yet sorted, sorting host matrix
[OGL LOG] sort_host_mtx_sparsity_pattern : 1 ms
[OGL LOG] sort_host_mtx : 0 ms
[OGL LOG] init_preconditioner : 0 ms
[OGL LOG] solve : 9 ms
BJcudaGKOBiCGStab:  Solving for p, Initial residual = 0.0547211, Final residual = 9.35958e-05, No Iterations 32
linear solve p 15
time step continuity errors : sum local = 1.30961e-07, global = 7.65266e-21, cumulative = 4.4455e-20
ExecutionTime = 1.06 s  ClockTime = 1 s

Time = 0.004

Courant Number mean: 0.0178672 max: 0.123851
nonePBiCGStab:  Solving for Ux, Initial residual = 0.0603691, Final residual = 2.52987e-05, No Iterations 5
nonePBiCGStab:  Solving for Uy, Initial residual = 0.0810808, Final residual = 1.50296e-05, No Iterations 5
nonePBiCGStab:  Solving for Uz, Initial residual = 0.159342, Final residual = 7.24891e-05, No Iterations 5
linear solve U 2
[OGL LOG] init_host_sparsity_pattern : 2 ms
[OGL LOG] matrix not stored update host matrix
[OGL LOG] update_host_mtx : 1 ms
[OGL LOG] matrix is not yet sorted, sorting host matrix
[OGL LOG] sort_host_mtx_sparsity_pattern : 1 ms
[OGL LOG] sort_host_mtx : 0 ms
[OGL LOG] init_preconditioner : 0 ms
[OGL LOG] solve : 9 ms
BJcudaGKOBiCGStab:  Solving for p, Initial residual = 0.0546888, Final residual = 8.77036e-05, No Iterations 31
linear solve p 15
time step continuity errors : sum local = 9.92023e-08, global = 1.35161e-21, cumulative = 4.58066e-20
[OGL LOG] init_host_sparsity_pattern : 2 ms
[OGL LOG] matrix not stored update host matrix
[OGL LOG] update_host_mtx : 1 ms
[OGL LOG] matrix is not yet sorted, sorting host matrix
[OGL LOG] sort_host_mtx_sparsity_pattern : 1 ms
[OGL LOG] sort_host_mtx : 0 ms
[OGL LOG] init_preconditioner : 0 ms
[OGL LOG] solve : 8 ms
BJcudaGKOBiCGStab:  Solving for p, Initial residual = 0.0315695, Final residual = 7.71678e-05, No Iterations 30
linear solve p 15
time step continuity errors : sum local = 1.21027e-07, global = 2.67872e-21, cumulative = 4.84853e-20
ExecutionTime = 1.1 s  ClockTime = 1 s

Time = 0.005

Courant Number mean: 0.0204618 max: 0.135213
nonePBiCGStab:  Solving for Ux, Initial residual = 0.0403764, Final residual = 9.53215e-06, No Iterations 5
nonePBiCGStab:  Solving for Uy, Initial residual = 0.0549951, Final residual = 5.35233e-06, No Iterations 5
nonePBiCGStab:  Solving for Uz, Initial residual = 0.106964, Final residual = 3.33236e-05, No Iterations 5
linear solve U 2
[OGL LOG] init_host_sparsity_pattern : 2 ms
[OGL LOG] matrix not stored update host matrix
[OGL LOG] update_host_mtx : 1 ms
[OGL LOG] matrix is not yet sorted, sorting host matrix
[OGL LOG] sort_host_mtx_sparsity_pattern : 1 ms
[OGL LOG] sort_host_mtx : 0 ms
[OGL LOG] init_preconditioner : 0 ms
[OGL LOG] solve : 8 ms
BJcudaGKOBiCGStab:  Solving for p, Initial residual = 0.0357554, Final residual = 9.84365e-05, No Iterations 29
linear solve p 14
time step continuity errors : sum local = 8.75549e-08, global = 2.99646e-22, cumulative = 4.87849e-20
[OGL LOG] init_host_sparsity_pattern : 2 ms
[OGL LOG] matrix not stored update host matrix
[OGL LOG] update_host_mtx : 1 ms
[OGL LOG] matrix is not yet sorted, sorting host matrix
[OGL LOG] sort_host_mtx_sparsity_pattern : 1 ms
[OGL LOG] sort_host_mtx : 0 ms
[OGL LOG] init_preconditioner : 0 ms
[OGL LOG] solve : 8 ms
BJcudaGKOBiCGStab:  Solving for p, Initial residual = 0.0202053, Final residual = 8.96825e-05, No Iterations 27
linear solve p 14
time step continuity errors : sum local = 1.08861e-07, global = 2.14296e-20, cumulative = 7.02146e-20
ExecutionTime = 1.13 s  ClockTime = 1 s

Time = 0.006

Courant Number mean: 0.0225066 max: 0.142363
nonePBiCGStab:  Solving for Ux, Initial residual = 0.0295311, Final residual = 4.21237e-06, No Iterations 5
nonePBiCGStab:  Solving for Uy, Initial residual = 0.0406599, Final residual = 2.86395e-06, No Iterations 5
nonePBiCGStab:  Solving for Uz, Initial residual = 0.0814106, Final residual = 1.93061e-05, No Iterations 5
linear solve U 2
[OGL LOG] init_host_sparsity_pattern : 2 ms
[OGL LOG] matrix not stored update host matrix
[OGL LOG] update_host_mtx : 1 ms
[OGL LOG] matrix is not yet sorted, sorting host matrix
[OGL LOG] sort_host_mtx_sparsity_pattern : 1 ms
[OGL LOG] sort_host_mtx : 0 ms
[OGL LOG] init_preconditioner : 0 ms
[OGL LOG] solve : 9 ms
BJcudaGKOBiCGStab:  Solving for p, Initial residual = 0.0255216, Final residual = 8.10774e-05, No Iterations 31
linear solve p 15
time step continuity errors : sum local = 8.15937e-08, global = 9.96318e-21, cumulative = 8.01777e-20
[OGL LOG] init_host_sparsity_pattern : 2 ms
[OGL LOG] matrix not stored update host matrix
[OGL LOG] update_host_mtx : 1 ms
[OGL LOG] matrix is not yet sorted, sorting host matrix
[OGL LOG] sort_host_mtx_sparsity_pattern : 1 ms
[OGL LOG] sort_host_mtx : 0 ms
[OGL LOG] init_preconditioner : 0 ms
[OGL LOG] solve : 8 ms
BJcudaGKOBiCGStab:  Solving for p, Initial residual = 0.0142038, Final residual = 4.50103e-05, No Iterations 28
linear solve p 14
time step continuity errors : sum local = 5.0736e-08, global = 2.67628e-20, cumulative = 1.06941e-19
ExecutionTime = 1.17 s  ClockTime = 1 s

Time = 0.007

Courant Number mean: 0.0241597 max: 0.147194
nonePBiCGStab:  Solving for Ux, Initial residual = 0.0229846, Final residual = 2.37636e-06, No Iterations 5
nonePBiCGStab:  Solving for Uy, Initial residual = 0.0317634, Final residual = 2.04547e-06, No Iterations 5
nonePBiCGStab:  Solving for Uz, Initial residual = 0.0650154, Final residual = 1.31513e-05, No Iterations 5
linear solve U 2
[OGL LOG] init_host_sparsity_pattern : 2 ms
[OGL LOG] matrix not stored update host matrix
[OGL LOG] update_host_mtx : 1 ms
[OGL LOG] matrix is not yet sorted, sorting host matrix
[OGL LOG] sort_host_mtx_sparsity_pattern : 1 ms
[OGL LOG] sort_host_mtx : 0 ms
[OGL LOG] init_preconditioner : 0 ms
[OGL LOG] solve : 8 ms
BJcudaGKOBiCGStab:  Solving for p, Initial residual = 0.0186975, Final residual = 9.52884e-05, No Iterations 29
linear solve p 14
time step continuity errors : sum local = 1.06343e-07, global = -1.83721e-20, cumulative = 8.85684e-20
[OGL LOG] init_host_sparsity_pattern : 2 ms
[OGL LOG] matrix not stored update host matrix
[OGL LOG] update_host_mtx : 1 ms
[OGL LOG] matrix is not yet sorted, sorting host matrix
[OGL LOG] sort_host_mtx_sparsity_pattern : 1 ms
[OGL LOG] sort_host_mtx : 0 ms
[OGL LOG] init_preconditioner : 0 ms
[OGL LOG] solve : 7 ms
BJcudaGKOBiCGStab:  Solving for p, Initial residual = 0.0104816, Final residual = 6.57178e-05, No Iterations 25
linear solve p 13
time step continuity errors : sum local = 6.53169e-08, global = 2.4554e-20, cumulative = 1.13122e-19
ExecutionTime = 1.2 s  ClockTime = 1 s

Time = 0.008

Courant Number mean: 0.025531 max: 0.150663
nonePBiCGStab:  Solving for Ux, Initial residual = 0.0184901, Final residual = 1.50918e-06, No Iterations 5
nonePBiCGStab:  Solving for Uy, Initial residual = 0.0258055, Final residual = 1.46261e-06, No Iterations 5
nonePBiCGStab:  Solving for Uz, Initial residual = 0.053609, Final residual = 8.80559e-06, No Iterations 5
linear solve U 2
[OGL LOG] init_host_sparsity_pattern : 2 ms
[OGL LOG] matrix not stored update host matrix
[OGL LOG] update_host_mtx : 1 ms
[OGL LOG] matrix is not yet sorted, sorting host matrix
[OGL LOG] sort_host_mtx_sparsity_pattern : 1 ms
[OGL LOG] sort_host_mtx : 0 ms
[OGL LOG] init_preconditioner : 0 ms
[OGL LOG] solve : 8 ms
BJcudaGKOBiCGStab:  Solving for p, Initial residual = 0.0148245, Final residual = 7.95193e-05, No Iterations 28
linear solve p 14
time step continuity errors : sum local = 1.01369e-07, global = 5.43952e-20, cumulative = 1.67518e-19
[OGL LOG] init_host_sparsity_pattern : 2 ms
[OGL LOG] matrix not stored update host matrix
[OGL LOG] update_host_mtx : 1 ms
[OGL LOG] matrix is not yet sorted, sorting host matrix
[OGL LOG] sort_host_mtx_sparsity_pattern : 1 ms
[OGL LOG] sort_host_mtx : 0 ms
[OGL LOG] init_preconditioner : 0 ms
[OGL LOG] solve : 8 ms
BJcudaGKOBiCGStab:  Solving for p, Initial residual = 0.00836729, Final residual = 6.76407e-05, No Iterations 27
linear solve p 14
time step continuity errors : sum local = 7.98629e-08, global = 3.39973e-20, cumulative = 2.01515e-19
ExecutionTime = 1.23 s  ClockTime = 1 s

Time = 0.009

Courant Number mean: 0.026681 max: 0.153282
nonePBiCGStab:  Solving for Ux, Initial residual = 0.0152287, Final residual = 9.63613e-07, No Iterations 5
nonePBiCGStab:  Solving for Uy, Initial residual = 0.0215789, Final residual = 1.02951e-06, No Iterations 5
nonePBiCGStab:  Solving for Uz, Initial residual = 0.0452302, Final residual = 5.70211e-06, No Iterations 5
linear solve U 2
[OGL LOG] init_host_sparsity_pattern : 2 ms
[OGL LOG] matrix not stored update host matrix
[OGL LOG] update_host_mtx : 1 ms
[OGL LOG] matrix is not yet sorted, sorting host matrix
[OGL LOG] sort_host_mtx_sparsity_pattern : 1 ms
[OGL LOG] sort_host_mtx : 0 ms
[OGL LOG] init_preconditioner : 0 ms
[OGL LOG] solve : 8 ms
BJcudaGKOBiCGStab:  Solving for p, Initial residual = 0.0120224, Final residual = 8.85457e-05, No Iterations 27
linear solve p 14
time step continuity errors : sum local = 1.15014e-07, global = 2.01464e-20, cumulative = 2.21661e-19
[OGL LOG] init_host_sparsity_pattern : 2 ms
[OGL LOG] matrix not stored update host matrix
[OGL LOG] update_host_mtx : 1 ms
[OGL LOG] matrix is not yet sorted, sorting host matrix
[OGL LOG] sort_host_mtx_sparsity_pattern : 1 ms
[OGL LOG] sort_host_mtx : 0 ms
[OGL LOG] init_preconditioner : 0 ms
[OGL LOG] solve : 7 ms
BJcudaGKOBiCGStab:  Solving for p, Initial residual = 0.00688021, Final residual = 9.9495e-05, No Iterations 27
linear solve p 13
time step continuity errors : sum local = 1.18946e-07, global = 3.9325e-20, cumulative = 2.60986e-19
ExecutionTime = 1.27 s  ClockTime = 1 s

Time = 0.01

Courant Number mean: 0.0276657 max: 0.155334
nonePBiCGStab:  Solving for Ux, Initial residual = 0.0128843, Final residual = 9.94602e-07, No Iterations 5
nonePBiCGStab:  Solving for Uy, Initial residual = 0.0183885, Final residual = 7.65535e-07, No Iterations 5
nonePBiCGStab:  Solving for Uz, Initial residual = 0.0387778, Final residual = 4.28433e-06, No Iterations 5
linear solve U 2
[OGL LOG] init_host_sparsity_pattern : 2 ms
[OGL LOG] matrix not stored update host matrix
[OGL LOG] update_host_mtx : 1 ms
[OGL LOG] matrix is not yet sorted, sorting host matrix
[OGL LOG] sort_host_mtx_sparsity_pattern : 1 ms
[OGL LOG] sort_host_mtx : 0 ms
[OGL LOG] init_preconditioner : 0 ms
[OGL LOG] solve : 8 ms
BJcudaGKOBiCGStab:  Solving for p, Initial residual = 0.00995675, Final residual = 9.04085e-05, No Iterations 29
linear solve p 14
time step continuity errors : sum local = 1.22548e-07, global = 1.42937e-21, cumulative = 2.62416e-19
[OGL LOG] init_host_sparsity_pattern : 2 ms
[OGL LOG] matrix not stored update host matrix
[OGL LOG] update_host_mtx : 1 ms
[OGL LOG] matrix is not yet sorted, sorting host matrix
[OGL LOG] sort_host_mtx_sparsity_pattern : 1 ms
[OGL LOG] sort_host_mtx : 3 ms
[OGL LOG] init_preconditioner : 0 ms
[OGL LOG] solve : 8 ms
BJcudaGKOBiCGStab:  Solving for p, Initial residual = 0.00578923, Final residual = 9.92653e-05, No Iterations 29
linear solve p 17
time step continuity errors : sum local = 1.25712e-07, global = -2.25434e-20, cumulative = 2.39872e-19
ExecutionTime = 1.31 s  ClockTime = 1 s

End

