/*---------------------------------------------------------------------------*\
  =========                 |
  \\      /  F ield         | OpenFOAM: The Open Source CFD Toolbox
   \\    /   O peration     | Website:  https://openfoam.org
    \\  /    A nd           | Version:  8
     \\/     M anipulation  |
\*---------------------------------------------------------------------------*/
Build  : 8-40a5a48f630f
Exec   : icoFoam
Date   : Jul 28 2021
Time   : 02:05:59
Host   : "uc2n559.localdomain"
PID    : 3613198
I/O    : uncollated
Case   : /pfs/data5/home/kit/scc/nq7776/code/OBR/lidDrivenCavity3D/Variation_mesh/40/Variation_matrix_solver/BiCGStab_NoPrecond_OMP/base
nProcs : 1
sigFpe : Enabling floating point exception trapping (FOAM_SIGFPE).
fileModificationChecking : Monitoring run-time modified files using timeStampMaster (fileModificationSkew 10)
allowSystemOperations : Allowing user-supplied system call operations

// * * * * * * * * * * * * * * * * * * * * * * * * * * * * * * * * * * * * * //
Create time

Create mesh for time = 0

Reading transportProperties

Reading field p

Reading field U

Reading/calculating face flux field phi


Starting time loop

Time = 0.001

Courant Number mean: 0 max: 0
nonePBiCGStab:  Solving for Ux, Initial residual = 1, Final residual = 0.0197517, No Iterations 5
nonePBiCGStab:  Solving for Uy, Initial residual = 0, Final residual = 0, No Iterations 0
nonePBiCGStab:  Solving for Uz, Initial residual = 0, Final residual = 0, No Iterations 0
linear solve U 14
[OGL LOG] init_host_sparsity_pattern : 18 ms
[OGL LOG] matrix not stored update host matrix
[OGL LOG] update_host_mtx : 9 ms
[OGL LOG] matrix is not yet sorted, compute sorting idxs
[OGL LOG] compute_sort : 482 ms
[OGL LOG] matrix is not yet sorted, sorting host matrix
[OGL LOG] sort_host_mtx_sparsity_pattern : 13 ms
[OGL LOG] sort_host_mtx : 7 ms
[OGL LOG] init_preconditioner : 0 ms
[OGL LOG] solve : 515 ms
noneompGKOBiCGStab:  Solving for p, Initial residual = 1, Final residual = 8.58855e-05, No Iterations 253
linear solve p 1087
time step continuity errors : sum local = 1.72737e-07, global = -1.8047e-20, cumulative = -1.8047e-20
[OGL LOG] init_host_sparsity_pattern : 17 ms
[OGL LOG] matrix not stored update host matrix
[OGL LOG] update_host_mtx : 9 ms
[OGL LOG] matrix is not yet sorted, sorting host matrix
[OGL LOG] sort_host_mtx_sparsity_pattern : 12 ms
[OGL LOG] sort_host_mtx : 6 ms
[OGL LOG] init_preconditioner : 0 ms
[OGL LOG] solve : 322 ms
noneompGKOBiCGStab:  Solving for p, Initial residual = 0.598505, Final residual = 9.81978e-05, No Iterations 231
linear solve p 376
time step continuity errors : sum local = 1.92932e-05, global = -3.97502e-21, cumulative = -2.2022e-20
ExecutionTime = 27.33 s  ClockTime = 1 s

Time = 0.002

Courant Number mean: 0.0210395 max: 0.237017
nonePBiCGStab:  Solving for Ux, Initial residual = 0.17818, Final residual = 0.0068739, No Iterations 5
nonePBiCGStab:  Solving for Uy, Initial residual = 0.293951, Final residual = 0.00895491, No Iterations 5
nonePBiCGStab:  Solving for Uz, Initial residual = 0.840061, Final residual = 0.0443419, No Iterations 5
linear solve U 26
[OGL LOG] init_host_sparsity_pattern : 16 ms
[OGL LOG] matrix not stored update host matrix
[OGL LOG] update_host_mtx : 9 ms
[OGL LOG] matrix is not yet sorted, sorting host matrix
[OGL LOG] sort_host_mtx_sparsity_pattern : 12 ms
[OGL LOG] sort_host_mtx : 6 ms
[OGL LOG] init_preconditioner : 0 ms
[OGL LOG] solve : 313 ms
noneompGKOBiCGStab:  Solving for p, Initial residual = 0.469583, Final residual = 9.99496e-05, No Iterations 232
linear solve p 366
time step continuity errors : sum local = 1.35909e-06, global = 3.37102e-21, cumulative = -1.8651e-20
[OGL LOG] init_host_sparsity_pattern : 17 ms
[OGL LOG] matrix not stored update host matrix
[OGL LOG] update_host_mtx : 8 ms
[OGL LOG] matrix is not yet sorted, sorting host matrix
[OGL LOG] sort_host_mtx_sparsity_pattern : 13 ms
[OGL LOG] sort_host_mtx : 6 ms
[OGL LOG] init_preconditioner : 0 ms
[OGL LOG] solve : 311 ms
noneompGKOBiCGStab:  Solving for p, Initial residual = 0.365652, Final residual = 8.55127e-05, No Iterations 233
linear solve p 364
time step continuity errors : sum local = 8.43337e-07, global = -5.69049e-22, cumulative = -1.92201e-20
ExecutionTime = 47.79 s  ClockTime = 2 s

Time = 0.003

Courant Number mean: 0.0320944 max: 0.305887
nonePBiCGStab:  Solving for Ux, Initial residual = 0.0657231, Final residual = 0.00164689, No Iterations 5
nonePBiCGStab:  Solving for Uy, Initial residual = 0.108567, Final residual = 0.00202334, No Iterations 5
nonePBiCGStab:  Solving for Uz, Initial residual = 0.226533, Final residual = 0.0139728, No Iterations 5
linear solve U 27
[OGL LOG] init_host_sparsity_pattern : 17 ms
[OGL LOG] matrix not stored update host matrix
[OGL LOG] update_host_mtx : 9 ms
[OGL LOG] matrix is not yet sorted, sorting host matrix
[OGL LOG] sort_host_mtx_sparsity_pattern : 12 ms
[OGL LOG] sort_host_mtx : 6 ms
[OGL LOG] init_preconditioner : 0 ms
[OGL LOG] solve : 294 ms
noneompGKOBiCGStab:  Solving for p, Initial residual = 0.173293, Final residual = 9.54413e-05, No Iterations 223
linear solve p 347
time step continuity errors : sum local = 9.09455e-08, global = 4.23602e-21, cumulative = -1.4984e-20
[OGL LOG] init_host_sparsity_pattern : 16 ms
[OGL LOG] matrix not stored update host matrix
[OGL LOG] update_host_mtx : 8 ms
[OGL LOG] matrix is not yet sorted, sorting host matrix
[OGL LOG] sort_host_mtx_sparsity_pattern : 12 ms
[OGL LOG] sort_host_mtx : 6 ms
[OGL LOG] init_preconditioner : 0 ms
[OGL LOG] solve : 295 ms
noneompGKOBiCGStab:  Solving for p, Initial residual = 0.134372, Final residual = 9.19884e-05, No Iterations 223
linear solve p 346
time step continuity errors : sum local = 5.27461e-07, global = 6.66467e-21, cumulative = -8.31937e-21
ExecutionTime = 67.17 s  ClockTime = 3 s

Time = 0.004

Courant Number mean: 0.0386585 max: 0.327529
nonePBiCGStab:  Solving for Ux, Initial residual = 0.0389783, Final residual = 0.000736785, No Iterations 5
nonePBiCGStab:  Solving for Uy, Initial residual = 0.0670696, Final residual = 0.000761507, No Iterations 5
nonePBiCGStab:  Solving for Uz, Initial residual = 0.134921, Final residual = 0.00464748, No Iterations 5
linear solve U 26
[OGL LOG] init_host_sparsity_pattern : 17 ms
[OGL LOG] matrix not stored update host matrix
[OGL LOG] update_host_mtx : 9 ms
[OGL LOG] matrix is not yet sorted, sorting host matrix
[OGL LOG] sort_host_mtx_sparsity_pattern : 12 ms
[OGL LOG] sort_host_mtx : 6 ms
[OGL LOG] init_preconditioner : 0 ms
[OGL LOG] solve : 284 ms
noneompGKOBiCGStab:  Solving for p, Initial residual = 0.0899771, Final residual = 7.96449e-05, No Iterations 212
linear solve p 337
time step continuity errors : sum local = 2.74829e-06, global = 1.40536e-20, cumulative = 5.73425e-21
[OGL LOG] init_host_sparsity_pattern : 18 ms
[OGL LOG] matrix not stored update host matrix
[OGL LOG] update_host_mtx : 9 ms
[OGL LOG] matrix is not yet sorted, sorting host matrix
[OGL LOG] sort_host_mtx_sparsity_pattern : 12 ms
[OGL LOG] sort_host_mtx : 6 ms
[OGL LOG] init_preconditioner : 0 ms
[OGL LOG] solve : 264 ms
noneompGKOBiCGStab:  Solving for p, Initial residual = 0.0721725, Final residual = 9.96921e-05, No Iterations 197
linear solve p 318
time step continuity errors : sum local = 1.77827e-07, global = -2.79489e-21, cumulative = 2.93936e-21
ExecutionTime = 85.23 s  ClockTime = 4 s

Time = 0.005

Courant Number mean: 0.0434611 max: 0.337846
nonePBiCGStab:  Solving for Ux, Initial residual = 0.0269563, Final residual = 0.000502237, No Iterations 5
nonePBiCGStab:  Solving for Uy, Initial residual = 0.0470258, Final residual = 0.000642519, No Iterations 5
nonePBiCGStab:  Solving for Uz, Initial residual = 0.104298, Final residual = 0.00393156, No Iterations 5
linear solve U 26
[OGL LOG] init_host_sparsity_pattern : 18 ms
[OGL LOG] matrix not stored update host matrix
[OGL LOG] update_host_mtx : 9 ms
[OGL LOG] matrix is not yet sorted, sorting host matrix
[OGL LOG] sort_host_mtx_sparsity_pattern : 13 ms
[OGL LOG] sort_host_mtx : 6 ms
[OGL LOG] init_preconditioner : 0 ms
[OGL LOG] solve : 290 ms
noneompGKOBiCGStab:  Solving for p, Initial residual = 0.0475179, Final residual = 6.74525e-05, No Iterations 216
linear solve p 348
time step continuity errors : sum local = 6.67457e-08, global = 7.56982e-21, cumulative = 1.05092e-20
[OGL LOG] init_host_sparsity_pattern : 17 ms
[OGL LOG] matrix not stored update host matrix
[OGL LOG] update_host_mtx : 9 ms
[OGL LOG] matrix is not yet sorted, sorting host matrix
[OGL LOG] sort_host_mtx_sparsity_pattern : 12 ms
[OGL LOG] sort_host_mtx : 6 ms
[OGL LOG] init_preconditioner : 0 ms
[OGL LOG] solve : 244 ms
noneompGKOBiCGStab:  Solving for p, Initial residual = 0.0375469, Final residual = 9.85611e-05, No Iterations 183
linear solve p 298
time step continuity errors : sum local = 2.11477e-07, global = -4.09761e-21, cumulative = 6.41157e-21
ExecutionTime = 102.92 s  ClockTime = 4 s

Time = 0.006

Courant Number mean: 0.0471806 max: 0.344008
nonePBiCGStab:  Solving for Ux, Initial residual = 0.0206171, Final residual = 0.000227742, No Iterations 5
nonePBiCGStab:  Solving for Uy, Initial residual = 0.0355867, Final residual = 0.00028775, No Iterations 5
nonePBiCGStab:  Solving for Uz, Initial residual = 0.0751403, Final residual = 0.00225122, No Iterations 5
linear solve U 26
[OGL LOG] init_host_sparsity_pattern : 17 ms
[OGL LOG] matrix not stored update host matrix
[OGL LOG] update_host_mtx : 9 ms
[OGL LOG] matrix is not yet sorted, sorting host matrix
[OGL LOG] sort_host_mtx_sparsity_pattern : 12 ms
[OGL LOG] sort_host_mtx : 6 ms
[OGL LOG] init_preconditioner : 0 ms
[OGL LOG] solve : 289 ms
noneompGKOBiCGStab:  Solving for p, Initial residual = 0.031572, Final residual = 6.46389e-05, No Iterations 216
linear solve p 342
time step continuity errors : sum local = 3.35174e-07, global = -2.36201e-21, cumulative = 4.04956e-21
[OGL LOG] init_host_sparsity_pattern : 17 ms
[OGL LOG] matrix not stored update host matrix
[OGL LOG] update_host_mtx : 9 ms
[OGL LOG] matrix is not yet sorted, sorting host matrix
[OGL LOG] sort_host_mtx_sparsity_pattern : 12 ms
[OGL LOG] sort_host_mtx : 6 ms
[OGL LOG] init_preconditioner : 0 ms
[OGL LOG] solve : 293 ms
noneompGKOBiCGStab:  Solving for p, Initial residual = 0.0259542, Final residual = 8.84961e-05, No Iterations 219
linear solve p 347
time step continuity errors : sum local = 1.47819e-07, global = 9.36151e-21, cumulative = 1.34111e-20
ExecutionTime = 122.06 s  ClockTime = 5 s

Time = 0.007

Courant Number mean: 0.0502124 max: 0.348239
nonePBiCGStab:  Solving for Ux, Initial residual = 0.0162801, Final residual = 0.000167768, No Iterations 5
nonePBiCGStab:  Solving for Uy, Initial residual = 0.0286183, Final residual = 0.000221366, No Iterations 5
nonePBiCGStab:  Solving for Uz, Initial residual = 0.0604497, Final residual = 0.00156697, No Iterations 5
linear solve U 26
[OGL LOG] init_host_sparsity_pattern : 17 ms
[OGL LOG] matrix not stored update host matrix
[OGL LOG] update_host_mtx : 9 ms
[OGL LOG] matrix is not yet sorted, sorting host matrix
[OGL LOG] sort_host_mtx_sparsity_pattern : 12 ms
[OGL LOG] sort_host_mtx : 6 ms
[OGL LOG] init_preconditioner : 0 ms
[OGL LOG] solve : 279 ms
noneompGKOBiCGStab:  Solving for p, Initial residual = 0.0239345, Final residual = 8.17016e-05, No Iterations 209
linear solve p 332
time step continuity errors : sum local = 7.05094e-08, global = 5.67999e-21, cumulative = 1.90911e-20
[OGL LOG] init_host_sparsity_pattern : 18 ms
[OGL LOG] matrix not stored update host matrix
[OGL LOG] update_host_mtx : 9 ms
[OGL LOG] matrix is not yet sorted, sorting host matrix
[OGL LOG] sort_host_mtx_sparsity_pattern : 12 ms
[OGL LOG] sort_host_mtx : 6 ms
[OGL LOG] init_preconditioner : 0 ms
[OGL LOG] solve : 108 ms
noneompGKOBiCGStab:  Solving for p, Initial residual = 0.0197279, Final residual = 7.23377e-05, No Iterations 80
linear solve p 162
time step continuity errors : sum local = 1.78492e-07, global = 1.90859e-22, cumulative = 1.92819e-20
ExecutionTime = 134.96 s  ClockTime = 6 s

Time = 0.008

Courant Number mean: 0.0527819 max: 0.351361
nonePBiCGStab:  Solving for Ux, Initial residual = 0.0133308, Final residual = 9.68527e-05, No Iterations 5
nonePBiCGStab:  Solving for Uy, Initial residual = 0.0236203, Final residual = 0.000131619, No Iterations 5
nonePBiCGStab:  Solving for Uz, Initial residual = 0.0471601, Final residual = 0.000971813, No Iterations 5
linear solve U 26
[OGL LOG] init_host_sparsity_pattern : 17 ms
[OGL LOG] matrix not stored update host matrix
[OGL LOG] update_host_mtx : 9 ms
[OGL LOG] matrix is not yet sorted, sorting host matrix
[OGL LOG] sort_host_mtx_sparsity_pattern : 12 ms
[OGL LOG] sort_host_mtx : 6 ms
[OGL LOG] init_preconditioner : 0 ms
[OGL LOG] solve : 205 ms
noneompGKOBiCGStab:  Solving for p, Initial residual = 0.0192252, Final residual = 9.98107e-05, No Iterations 153
linear solve p 258
time step continuity errors : sum local = 1.28752e-07, global = 9.60623e-21, cumulative = 2.88882e-20
[OGL LOG] init_host_sparsity_pattern : 17 ms
[OGL LOG] matrix not stored update host matrix
[OGL LOG] update_host_mtx : 9 ms
[OGL LOG] matrix is not yet sorted, sorting host matrix
[OGL LOG] sort_host_mtx_sparsity_pattern : 12 ms
[OGL LOG] sort_host_mtx : 6 ms
[OGL LOG] init_preconditioner : 0 ms
[OGL LOG] solve : 97 ms
noneompGKOBiCGStab:  Solving for p, Initial residual = 0.0160429, Final residual = 9.95896e-05, No Iterations 73
linear solve p 151
time step continuity errors : sum local = 1.02174e-07, global = 8.55583e-21, cumulative = 3.7444e-20
ExecutionTime = 145.21 s  ClockTime = 6 s

Time = 0.009

Courant Number mean: 0.0549709 max: 0.353766
nonePBiCGStab:  Solving for Ux, Initial residual = 0.0112062, Final residual = 7.20223e-05, No Iterations 5
nonePBiCGStab:  Solving for Uy, Initial residual = 0.0199725, Final residual = 0.000111457, No Iterations 5
nonePBiCGStab:  Solving for Uz, Initial residual = 0.0392343, Final residual = 0.000516737, No Iterations 5
linear solve U 26
[OGL LOG] init_host_sparsity_pattern : 17 ms
[OGL LOG] matrix not stored update host matrix
[OGL LOG] update_host_mtx : 9 ms
[OGL LOG] matrix is not yet sorted, sorting host matrix
[OGL LOG] sort_host_mtx_sparsity_pattern : 12 ms
[OGL LOG] sort_host_mtx : 6 ms
[OGL LOG] init_preconditioner : 0 ms
[OGL LOG] solve : 108 ms
noneompGKOBiCGStab:  Solving for p, Initial residual = 0.0156317, Final residual = 8.63621e-05, No Iterations 81
linear solve p 162
time step continuity errors : sum local = 7.67703e-08, global = -2.73156e-21, cumulative = 3.47124e-20
[OGL LOG] init_host_sparsity_pattern : 17 ms
[OGL LOG] matrix not stored update host matrix
[OGL LOG] update_host_mtx : 9 ms
[OGL LOG] matrix is not yet sorted, sorting host matrix
[OGL LOG] sort_host_mtx_sparsity_pattern : 12 ms
[OGL LOG] sort_host_mtx : 6 ms
[OGL LOG] init_preconditioner : 0 ms
[OGL LOG] solve : 108 ms
noneompGKOBiCGStab:  Solving for p, Initial residual = 0.0132043, Final residual = 7.41148e-05, No Iterations 80
linear solve p 162
time step continuity errors : sum local = 1.23732e-07, global = -2.57091e-20, cumulative = 9.00336e-21
ExecutionTime = 152.7 s  ClockTime = 6 s

Time = 0.01

Courant Number mean: 0.0568545 max: 0.355696
nonePBiCGStab:  Solving for Ux, Initial residual = 0.00953637, Final residual = 4.36063e-05, No Iterations 5
nonePBiCGStab:  Solving for Uy, Initial residual = 0.0171717, Final residual = 5.62328e-05, No Iterations 5
nonePBiCGStab:  Solving for Uz, Initial residual = 0.0338843, Final residual = 0.000268397, No Iterations 5
linear solve U 26
[OGL LOG] init_host_sparsity_pattern : 17 ms
[OGL LOG] matrix not stored update host matrix
[OGL LOG] update_host_mtx : 9 ms
[OGL LOG] matrix is not yet sorted, sorting host matrix
[OGL LOG] sort_host_mtx_sparsity_pattern : 12 ms
[OGL LOG] sort_host_mtx : 6 ms
[OGL LOG] init_preconditioner : 0 ms
[OGL LOG] solve : 104 ms
noneompGKOBiCGStab:  Solving for p, Initial residual = 0.0135041, Final residual = 8.25004e-05, No Iterations 78
linear solve p 158
time step continuity errors : sum local = 9.29687e-08, global = 4.07689e-20, cumulative = 4.97723e-20
[OGL LOG] init_host_sparsity_pattern : 17 ms
[OGL LOG] matrix not stored update host matrix
[OGL LOG] update_host_mtx : 9 ms
[OGL LOG] matrix is not yet sorted, sorting host matrix
[OGL LOG] sort_host_mtx_sparsity_pattern : 12 ms
[OGL LOG] sort_host_mtx : 6 ms
[OGL LOG] init_preconditioner : 0 ms
[OGL LOG] solve : 99 ms
noneompGKOBiCGStab:  Solving for p, Initial residual = 0.0114569, Final residual = 8.72148e-05, No Iterations 74
linear solve p 153
time step continuity errors : sum local = 9.01046e-08, global = -3.06884e-21, cumulative = 4.67034e-20
ExecutionTime = 159.75 s  ClockTime = 7 s

End

