/*---------------------------------------------------------------------------*\
  =========                 |
  \\      /  F ield         | OpenFOAM: The Open Source CFD Toolbox
   \\    /   O peration     | Website:  https://openfoam.org
    \\  /    A nd           | Version:  8
     \\/     M anipulation  |
\*---------------------------------------------------------------------------*/
Build  : 8-40a5a48f630f
Exec   : icoFoam
Date   : Jul 27 2021
Time   : 22:00:01
Host   : "uc2n481.localdomain"
PID    : 114747
I/O    : uncollated
Case   : /pfs/data5/home/kit/scc/nq7776/code/OBR/lidDrivenCavity3D/Variation_mesh/40/Variation_matrix_solver/CG_NoPrecond_CUDA/base
nProcs : 1
sigFpe : Enabling floating point exception trapping (FOAM_SIGFPE).
fileModificationChecking : Monitoring run-time modified files using timeStampMaster (fileModificationSkew 10)
allowSystemOperations : Allowing user-supplied system call operations

// * * * * * * * * * * * * * * * * * * * * * * * * * * * * * * * * * * * * * //
Create time

Create mesh for time = 0

Reading transportProperties

Reading field p

Reading field U

Reading/calculating face flux field phi


Starting time loop

Time = 0.001

Courant Number mean: 0 max: 0
nonePBiCGStab:  Solving for Ux, Initial residual = 1, Final residual = 0.0197517, No Iterations 5
nonePBiCGStab:  Solving for Uy, Initial residual = 0, Final residual = 0, No Iterations 0
nonePBiCGStab:  Solving for Uz, Initial residual = 0, Final residual = 0, No Iterations 0
linear solve U 14
[OGL LOG] init_host_sparsity_pattern : 16 ms
[OGL LOG] matrix not stored update host matrix
[OGL LOG] update_host_mtx : 8 ms
[OGL LOG] matrix is not yet sorted, compute sorting idxs
[OGL LOG] compute_sort : 485 ms
[OGL LOG] matrix is not yet sorted, sorting host matrix
[OGL LOG] sort_host_mtx_sparsity_pattern : 11 ms
[OGL LOG] sort_host_mtx : 6 ms
[OGL LOG] init_preconditioner : 0 ms
[OGL LOG] solve : 44 ms
nonecudaGKOCG:  Solving for p, Initial residual = 1, Final residual = 9.75113e-05, No Iterations 310
linear solve p 1340
time step continuity errors : sum local = 5.24522e-08, global = -2.29532e-20, cumulative = -2.29532e-20
[OGL LOG] init_host_sparsity_pattern : 20 ms
[OGL LOG] matrix not stored update host matrix
[OGL LOG] update_host_mtx : 9 ms
[OGL LOG] matrix is not yet sorted, sorting host matrix
[OGL LOG] sort_host_mtx_sparsity_pattern : 13 ms
[OGL LOG] sort_host_mtx : 6 ms
[OGL LOG] init_preconditioner : 0 ms
[OGL LOG] solve : 44 ms
nonecudaGKOCG:  Solving for p, Initial residual = 0.598231, Final residual = 8.91116e-05, No Iterations 306
linear solve p 100
time step continuity errors : sum local = 7.19905e-08, global = -7.342e-21, cumulative = -3.02952e-20
ExecutionTime = 1.71 s  ClockTime = 2 s

Time = 0.002

Courant Number mean: 0.0210244 max: 0.237018
nonePBiCGStab:  Solving for Ux, Initial residual = 0.177642, Final residual = 0.00670775, No Iterations 5
nonePBiCGStab:  Solving for Uy, Initial residual = 0.294212, Final residual = 0.00767226, No Iterations 5
nonePBiCGStab:  Solving for Uz, Initial residual = 0.957341, Final residual = 0.0372561, No Iterations 5
linear solve U 27
[OGL LOG] init_host_sparsity_pattern : 16 ms
[OGL LOG] matrix not stored update host matrix
[OGL LOG] update_host_mtx : 8 ms
[OGL LOG] matrix is not yet sorted, sorting host matrix
[OGL LOG] sort_host_mtx_sparsity_pattern : 11 ms
[OGL LOG] sort_host_mtx : 6 ms
[OGL LOG] init_preconditioner : 0 ms
[OGL LOG] solve : 44 ms
nonecudaGKOCG:  Solving for p, Initial residual = 0.457547, Final residual = 7.68541e-05, No Iterations 304
linear solve p 91
time step continuity errors : sum local = 6.11478e-08, global = -1.22414e-20, cumulative = -4.25367e-20
[OGL LOG] init_host_sparsity_pattern : 16 ms
[OGL LOG] matrix not stored update host matrix
[OGL LOG] update_host_mtx : 8 ms
[OGL LOG] matrix is not yet sorted, sorting host matrix
[OGL LOG] sort_host_mtx_sparsity_pattern : 12 ms
[OGL LOG] sort_host_mtx : 6 ms
[OGL LOG] init_preconditioner : 0 ms
[OGL LOG] solve : 43 ms
nonecudaGKOCG:  Solving for p, Initial residual = 0.360878, Final residual = 7.98818e-05, No Iterations 302
linear solve p 91
time step continuity errors : sum local = 6.61537e-08, global = -1.13681e-20, cumulative = -5.39047e-20
ExecutionTime = 1.96 s  ClockTime = 2 s

Time = 0.003

Courant Number mean: 0.0321026 max: 0.305901
nonePBiCGStab:  Solving for Ux, Initial residual = 0.0657761, Final residual = 0.0012412, No Iterations 5
nonePBiCGStab:  Solving for Uy, Initial residual = 0.107436, Final residual = 0.00172165, No Iterations 5
nonePBiCGStab:  Solving for Uz, Initial residual = 0.159298, Final residual = 0.0058332, No Iterations 5
linear solve U 26
[OGL LOG] init_host_sparsity_pattern : 16 ms
[OGL LOG] matrix not stored update host matrix
[OGL LOG] update_host_mtx : 11 ms
[OGL LOG] matrix is not yet sorted, sorting host matrix
[OGL LOG] sort_host_mtx_sparsity_pattern : 12 ms
[OGL LOG] sort_host_mtx : 6 ms
[OGL LOG] init_preconditioner : 0 ms
[OGL LOG] solve : 41 ms
nonecudaGKOCG:  Solving for p, Initial residual = 0.162752, Final residual = 9.09956e-05, No Iterations 287
linear solve p 92
time step continuity errors : sum local = 5.82613e-08, global = -1.83324e-20, cumulative = -7.22371e-20
[OGL LOG] init_host_sparsity_pattern : 16 ms
[OGL LOG] matrix not stored update host matrix
[OGL LOG] update_host_mtx : 8 ms
[OGL LOG] matrix is not yet sorted, sorting host matrix
[OGL LOG] sort_host_mtx_sparsity_pattern : 11 ms
[OGL LOG] sort_host_mtx : 6 ms
[OGL LOG] init_preconditioner : 0 ms
[OGL LOG] solve : 41 ms
nonecudaGKOCG:  Solving for p, Initial residual = 0.127414, Final residual = 9.51226e-05, No Iterations 284
linear solve p 89
time step continuity errors : sum local = 6.06781e-08, global = 1.16585e-20, cumulative = -6.05786e-20
ExecutionTime = 2.21 s  ClockTime = 3 s

Time = 0.004

Courant Number mean: 0.0386764 max: 0.327554
nonePBiCGStab:  Solving for Ux, Initial residual = 0.0387329, Final residual = 0.000519066, No Iterations 5
nonePBiCGStab:  Solving for Uy, Initial residual = 0.0670673, Final residual = 0.000634207, No Iterations 5
nonePBiCGStab:  Solving for Uz, Initial residual = 0.113077, Final residual = 0.0026907, No Iterations 5
linear solve U 26
[OGL LOG] init_host_sparsity_pattern : 17 ms
[OGL LOG] matrix not stored update host matrix
[OGL LOG] update_host_mtx : 8 ms
[OGL LOG] matrix is not yet sorted, sorting host matrix
[OGL LOG] sort_host_mtx_sparsity_pattern : 11 ms
[OGL LOG] sort_host_mtx : 6 ms
[OGL LOG] init_preconditioner : 0 ms
[OGL LOG] solve : 40 ms
nonecudaGKOCG:  Solving for p, Initial residual = 0.0844218, Final residual = 9.68782e-05, No Iterations 277
linear solve p 88
time step continuity errors : sum local = 6.01015e-08, global = -8.7239e-21, cumulative = -6.93025e-20
[OGL LOG] init_host_sparsity_pattern : 17 ms
[OGL LOG] matrix not stored update host matrix
[OGL LOG] update_host_mtx : 8 ms
[OGL LOG] matrix is not yet sorted, sorting host matrix
[OGL LOG] sort_host_mtx_sparsity_pattern : 11 ms
[OGL LOG] sort_host_mtx : 6 ms
[OGL LOG] init_preconditioner : 0 ms
[OGL LOG] solve : 41 ms
nonecudaGKOCG:  Solving for p, Initial residual = 0.0650627, Final residual = 9.07896e-05, No Iterations 275
linear solve p 89
time step continuity errors : sum local = 5.70636e-08, global = -8.30202e-21, cumulative = -7.76045e-20
ExecutionTime = 2.44 s  ClockTime = 3 s

Time = 0.005

Courant Number mean: 0.0434825 max: 0.337868
nonePBiCGStab:  Solving for Ux, Initial residual = 0.0269766, Final residual = 0.000295797, No Iterations 5
nonePBiCGStab:  Solving for Uy, Initial residual = 0.0465263, Final residual = 0.000392154, No Iterations 5
nonePBiCGStab:  Solving for Uz, Initial residual = 0.080292, Final residual = 0.00157693, No Iterations 5
linear solve U 27
[OGL LOG] init_host_sparsity_pattern : 17 ms
[OGL LOG] matrix not stored update host matrix
[OGL LOG] update_host_mtx : 9 ms
[OGL LOG] matrix is not yet sorted, sorting host matrix
[OGL LOG] sort_host_mtx_sparsity_pattern : 12 ms
[OGL LOG] sort_host_mtx : 6 ms
[OGL LOG] init_preconditioner : 0 ms
[OGL LOG] solve : 39 ms
nonecudaGKOCG:  Solving for p, Initial residual = 0.0436417, Final residual = 9.50905e-05, No Iterations 272
linear solve p 88
time step continuity errors : sum local = 5.89449e-08, global = -9.61265e-21, cumulative = -8.72172e-20
[OGL LOG] init_host_sparsity_pattern : 16 ms
[OGL LOG] matrix not stored update host matrix
[OGL LOG] update_host_mtx : 8 ms
[OGL LOG] matrix is not yet sorted, sorting host matrix
[OGL LOG] sort_host_mtx_sparsity_pattern : 12 ms
[OGL LOG] sort_host_mtx : 6 ms
[OGL LOG] init_preconditioner : 0 ms
[OGL LOG] solve : 40 ms
nonecudaGKOCG:  Solving for p, Initial residual = 0.0350083, Final residual = 8.31582e-05, No Iterations 271
linear solve p 87
time step continuity errors : sum local = 5.17572e-08, global = 7.48986e-23, cumulative = -8.71423e-20
ExecutionTime = 2.68 s  ClockTime = 3 s

Time = 0.006

Courant Number mean: 0.0472031 max: 0.344032
nonePBiCGStab:  Solving for Ux, Initial residual = 0.0204447, Final residual = 0.000225066, No Iterations 5
nonePBiCGStab:  Solving for Uy, Initial residual = 0.0355731, Final residual = 0.000192986, No Iterations 5
nonePBiCGStab:  Solving for Uz, Initial residual = 0.0629284, Final residual = 0.000823456, No Iterations 5
linear solve U 27
[OGL LOG] init_host_sparsity_pattern : 16 ms
[OGL LOG] matrix not stored update host matrix
[OGL LOG] update_host_mtx : 8 ms
[OGL LOG] matrix is not yet sorted, sorting host matrix
[OGL LOG] sort_host_mtx_sparsity_pattern : 11 ms
[OGL LOG] sort_host_mtx : 6 ms
[OGL LOG] init_preconditioner : 0 ms
[OGL LOG] solve : 20 ms
nonecudaGKOCG:  Solving for p, Initial residual = 0.029328, Final residual = 9.81383e-05, No Iterations 137
linear solve p 68
time step continuity errors : sum local = 7.48229e-08, global = -2.09427e-20, cumulative = -1.08085e-19
[OGL LOG] init_host_sparsity_pattern : 17 ms
[OGL LOG] matrix not stored update host matrix
[OGL LOG] update_host_mtx : 8 ms
[OGL LOG] matrix is not yet sorted, sorting host matrix
[OGL LOG] sort_host_mtx_sparsity_pattern : 12 ms
[OGL LOG] sort_host_mtx : 6 ms
[OGL LOG] init_preconditioner : 0 ms
[OGL LOG] solve : 18 ms
nonecudaGKOCG:  Solving for p, Initial residual = 0.0239203, Final residual = 9.58123e-05, No Iterations 125
linear solve p 66
time step continuity errors : sum local = 6.47785e-08, global = -1.50494e-21, cumulative = -1.0959e-19
ExecutionTime = 2.88 s  ClockTime = 3 s

Time = 0.007

Courant Number mean: 0.0502373 max: 0.34826
nonePBiCGStab:  Solving for Ux, Initial residual = 0.0162551, Final residual = 0.000135524, No Iterations 5
nonePBiCGStab:  Solving for Uy, Initial residual = 0.0284586, Final residual = 0.00015786, No Iterations 5
nonePBiCGStab:  Solving for Uz, Initial residual = 0.0518076, Final residual = 0.000784811, No Iterations 5
linear solve U 30
[OGL LOG] init_host_sparsity_pattern : 16 ms
[OGL LOG] matrix not stored update host matrix
[OGL LOG] update_host_mtx : 8 ms
[OGL LOG] matrix is not yet sorted, sorting host matrix
[OGL LOG] sort_host_mtx_sparsity_pattern : 12 ms
[OGL LOG] sort_host_mtx : 6 ms
[OGL LOG] init_preconditioner : 0 ms
[OGL LOG] solve : 19 ms
nonecudaGKOCG:  Solving for p, Initial residual = 0.0227804, Final residual = 9.01094e-05, No Iterations 126
linear solve p 67
time step continuity errors : sum local = 6.58033e-08, global = 2.36332e-20, cumulative = -8.59567e-20
[OGL LOG] init_host_sparsity_pattern : 16 ms
[OGL LOG] matrix not stored update host matrix
[OGL LOG] update_host_mtx : 8 ms
[OGL LOG] matrix is not yet sorted, sorting host matrix
[OGL LOG] sort_host_mtx_sparsity_pattern : 11 ms
[OGL LOG] sort_host_mtx : 6 ms
[OGL LOG] init_preconditioner : 0 ms
[OGL LOG] solve : 18 ms
nonecudaGKOCG:  Solving for p, Initial residual = 0.0189871, Final residual = 9.77992e-05, No Iterations 121
linear solve p 65
time step continuity errors : sum local = 6.65964e-08, global = -2.58528e-20, cumulative = -1.1181e-19
ExecutionTime = 3.08 s  ClockTime = 4 s

Time = 0.008

Courant Number mean: 0.0528073 max: 0.351375
nonePBiCGStab:  Solving for Ux, Initial residual = 0.0133491, Final residual = 9.02127e-05, No Iterations 5
nonePBiCGStab:  Solving for Uy, Initial residual = 0.0235143, Final residual = 0.000100162, No Iterations 5
nonePBiCGStab:  Solving for Uz, Initial residual = 0.0437281, Final residual = 0.000469096, No Iterations 5
linear solve U 27
[OGL LOG] init_host_sparsity_pattern : 17 ms
[OGL LOG] matrix not stored update host matrix
[OGL LOG] update_host_mtx : 8 ms
[OGL LOG] matrix is not yet sorted, sorting host matrix
[OGL LOG] sort_host_mtx_sparsity_pattern : 11 ms
[OGL LOG] sort_host_mtx : 6 ms
[OGL LOG] init_preconditioner : 0 ms
[OGL LOG] solve : 18 ms
nonecudaGKOCG:  Solving for p, Initial residual = 0.0180704, Final residual = 9.66571e-05, No Iterations 123
linear solve p 66
time step continuity errors : sum local = 7.23543e-08, global = 3.54125e-20, cumulative = -7.63971e-20
[OGL LOG] init_host_sparsity_pattern : 17 ms
[OGL LOG] matrix not stored update host matrix
[OGL LOG] update_host_mtx : 8 ms
[OGL LOG] matrix is not yet sorted, sorting host matrix
[OGL LOG] sort_host_mtx_sparsity_pattern : 11 ms
[OGL LOG] sort_host_mtx : 6 ms
[OGL LOG] init_preconditioner : 0 ms
[OGL LOG] solve : 17 ms
nonecudaGKOCG:  Solving for p, Initial residual = 0.0152184, Final residual = 9.53252e-05, No Iterations 118
linear solve p 65
time step continuity errors : sum local = 6.69237e-08, global = 3.76782e-20, cumulative = -3.87189e-20
ExecutionTime = 3.26 s  ClockTime = 4 s

Time = 0.009

Courant Number mean: 0.0549945 max: 0.353787
nonePBiCGStab:  Solving for Ux, Initial residual = 0.0112083, Final residual = 6.76963e-05, No Iterations 5
nonePBiCGStab:  Solving for Uy, Initial residual = 0.0198645, Final residual = 8.25011e-05, No Iterations 5
nonePBiCGStab:  Solving for Uz, Initial residual = 0.0375613, Final residual = 0.000425132, No Iterations 5
linear solve U 27
[OGL LOG] init_host_sparsity_pattern : 16 ms
[OGL LOG] matrix not stored update host matrix
[OGL LOG] update_host_mtx : 8 ms
[OGL LOG] matrix is not yet sorted, sorting host matrix
[OGL LOG] sort_host_mtx_sparsity_pattern : 11 ms
[OGL LOG] sort_host_mtx : 6 ms
[OGL LOG] init_preconditioner : 0 ms
[OGL LOG] solve : 20 ms
nonecudaGKOCG:  Solving for p, Initial residual = 0.0151742, Final residual = 9.89547e-05, No Iterations 120
linear solve p 67
time step continuity errors : sum local = 7.31573e-08, global = 1.11619e-20, cumulative = -2.75569e-20
[OGL LOG] init_host_sparsity_pattern : 17 ms
[OGL LOG] matrix not stored update host matrix
[OGL LOG] update_host_mtx : 8 ms
[OGL LOG] matrix is not yet sorted, sorting host matrix
[OGL LOG] sort_host_mtx_sparsity_pattern : 11 ms
[OGL LOG] sort_host_mtx : 6 ms
[OGL LOG] init_preconditioner : 0 ms
[OGL LOG] solve : 17 ms
nonecudaGKOCG:  Solving for p, Initial residual = 0.0128412, Final residual = 9.27105e-05, No Iterations 117
linear solve p 66
time step continuity errors : sum local = 6.60984e-08, global = -1.36741e-20, cumulative = -4.1231e-20
ExecutionTime = 3.46 s  ClockTime = 4 s

Time = 0.01

Courant Number mean: 0.0568767 max: 0.355714
nonePBiCGStab:  Solving for Ux, Initial residual = 0.00956516, Final residual = 4.57568e-05, No Iterations 5
nonePBiCGStab:  Solving for Uy, Initial residual = 0.0170655, Final residual = 5.94107e-05, No Iterations 5
nonePBiCGStab:  Solving for Uz, Initial residual = 0.0327032, Final residual = 0.000270741, No Iterations 5
linear solve U 27
[OGL LOG] init_host_sparsity_pattern : 16 ms
[OGL LOG] matrix not stored update host matrix
[OGL LOG] update_host_mtx : 8 ms
[OGL LOG] matrix is not yet sorted, sorting host matrix
[OGL LOG] sort_host_mtx_sparsity_pattern : 11 ms
[OGL LOG] sort_host_mtx : 6 ms
[OGL LOG] init_preconditioner : 0 ms
[OGL LOG] solve : 17 ms
nonecudaGKOCG:  Solving for p, Initial residual = 0.0129103, Final residual = 9.70711e-05, No Iterations 118
linear solve p 65
time step continuity errors : sum local = 7.28837e-08, global = -2.28908e-20, cumulative = -6.41218e-20
[OGL LOG] init_host_sparsity_pattern : 17 ms
[OGL LOG] matrix not stored update host matrix
[OGL LOG] update_host_mtx : 8 ms
[OGL LOG] matrix is not yet sorted, sorting host matrix
[OGL LOG] sort_host_mtx_sparsity_pattern : 12 ms
[OGL LOG] sort_host_mtx : 6 ms
[OGL LOG] init_preconditioner : 0 ms
[OGL LOG] solve : 17 ms
nonecudaGKOCG:  Solving for p, Initial residual = 0.0109605, Final residual = 9.75049e-05, No Iterations 113
linear solve p 65
time step continuity errors : sum local = 7.01692e-08, global = -1.28868e-20, cumulative = -7.70086e-20
ExecutionTime = 3.65 s  ClockTime = 4 s

End

