/*---------------------------------------------------------------------------*\
  =========                 |
  \\      /  F ield         | OpenFOAM: The Open Source CFD Toolbox
   \\    /   O peration     | Website:  https://openfoam.org
    \\  /    A nd           | Version:  8
     \\/     M anipulation  |
\*---------------------------------------------------------------------------*/
Build  : 8-40a5a48f630f
Exec   : icoFoam
Date   : Jul 27 2021
Time   : 22:01:44
Host   : "uc2n481.localdomain"
PID    : 116531
I/O    : uncollated
Case   : /pfs/data5/home/kit/scc/nq7776/code/OBR/lidDrivenCavity3D/Variation_mesh/25/Variation_matrix_solver/BiCGStab_NoPrecond_CUDA/base
nProcs : 1
sigFpe : Enabling floating point exception trapping (FOAM_SIGFPE).
fileModificationChecking : Monitoring run-time modified files using timeStampMaster (fileModificationSkew 10)
allowSystemOperations : Allowing user-supplied system call operations

// * * * * * * * * * * * * * * * * * * * * * * * * * * * * * * * * * * * * * //
Create time

Create mesh for time = 0

Reading transportProperties

Reading field p

Reading field U

Reading/calculating face flux field phi


Starting time loop

Time = 0.001

Courant Number mean: 0 max: 0
nonePBiCGStab:  Solving for Ux, Initial residual = 1, Final residual = 0.00310183, No Iterations 5
nonePBiCGStab:  Solving for Uy, Initial residual = 0, Final residual = 0, No Iterations 0
nonePBiCGStab:  Solving for Uz, Initial residual = 0, Final residual = 0, No Iterations 0
linear solve U 2
[OGL LOG] init_host_sparsity_pattern : 4 ms
[OGL LOG] matrix not stored update host matrix
[OGL LOG] update_host_mtx : 2 ms
[OGL LOG] matrix is not yet sorted, compute sorting idxs
[OGL LOG] compute_sort : 106 ms
[OGL LOG] matrix is not yet sorted, sorting host matrix
[OGL LOG] sort_host_mtx_sparsity_pattern : 2 ms
[OGL LOG] sort_host_mtx : 1 ms
[OGL LOG] init_preconditioner : 0 ms
[OGL LOG] solve : 48 ms
nonecudaGKOBiCGStab:  Solving for p, Initial residual = 1, Final residual = 6.94644e-05, No Iterations 159
linear solve p 926
time step continuity errors : sum local = 7.10305e-08, global = -1.68799e-20, cumulative = -1.68799e-20
[OGL LOG] init_host_sparsity_pattern : 4 ms
[OGL LOG] matrix not stored update host matrix
[OGL LOG] update_host_mtx : 2 ms
[OGL LOG] matrix is not yet sorted, sorting host matrix
[OGL LOG] sort_host_mtx_sparsity_pattern : 3 ms
[OGL LOG] sort_host_mtx : 1 ms
[OGL LOG] init_preconditioner : 0 ms
[OGL LOG] solve : 45 ms
nonecudaGKOBiCGStab:  Solving for p, Initial residual = 0.480659, Final residual = 1.48418e-05, No Iterations 147
linear solve p 58
time step continuity errors : sum local = 2.23927e-08, global = -8.6751e-21, cumulative = -2.5555e-20
ExecutionTime = 1.06 s  ClockTime = 1 s

Time = 0.002

Courant Number mean: 0.0119701 max: 0.106554
nonePBiCGStab:  Solving for Ux, Initial residual = 0.210711, Final residual = 0.000695073, No Iterations 5
nonePBiCGStab:  Solving for Uy, Initial residual = 0.284623, Final residual = 0.000644536, No Iterations 5
nonePBiCGStab:  Solving for Uz, Initial residual = 0.890182, Final residual = 0.00333658, No Iterations 5
linear solve U 5
[OGL LOG] init_host_sparsity_pattern : 4 ms
[OGL LOG] matrix not stored update host matrix
[OGL LOG] update_host_mtx : 2 ms
[OGL LOG] matrix is not yet sorted, sorting host matrix
[OGL LOG] sort_host_mtx_sparsity_pattern : 2 ms
[OGL LOG] sort_host_mtx : 1 ms
[OGL LOG] init_preconditioner : 0 ms
[OGL LOG] solve : 43 ms
nonecudaGKOBiCGStab:  Solving for p, Initial residual = 0.285832, Final residual = 9.3615e-05, No Iterations 146
linear solve p 55
time step continuity errors : sum local = 1.44986e-07, global = 7.64749e-21, cumulative = -1.79075e-20
[OGL LOG] init_host_sparsity_pattern : 4 ms
[OGL LOG] matrix not stored update host matrix
[OGL LOG] update_host_mtx : 2 ms
[OGL LOG] matrix is not yet sorted, sorting host matrix
[OGL LOG] sort_host_mtx_sparsity_pattern : 2 ms
[OGL LOG] sort_host_mtx : 1 ms
[OGL LOG] init_preconditioner : 0 ms
[OGL LOG] solve : 43 ms
nonecudaGKOBiCGStab:  Solving for p, Initial residual = 0.189237, Final residual = 9.5179e-05, No Iterations 143
linear solve p 55
time step continuity errors : sum local = 1.56371e-07, global = 6.37973e-21, cumulative = -1.15277e-20
ExecutionTime = 1.18 s  ClockTime = 1 s

Time = 0.003

Courant Number mean: 0.0188462 max: 0.153563
nonePBiCGStab:  Solving for Ux, Initial residual = 0.0900348, Final residual = 0.000292285, No Iterations 5
nonePBiCGStab:  Solving for Uy, Initial residual = 0.124775, Final residual = 0.000199822, No Iterations 5
nonePBiCGStab:  Solving for Uz, Initial residual = 0.265675, Final residual = 0.00074251, No Iterations 5
linear solve U 5
[OGL LOG] init_host_sparsity_pattern : 4 ms
[OGL LOG] matrix not stored update host matrix
[OGL LOG] update_host_mtx : 2 ms
[OGL LOG] matrix is not yet sorted, sorting host matrix
[OGL LOG] sort_host_mtx_sparsity_pattern : 2 ms
[OGL LOG] sort_host_mtx : 1 ms
[OGL LOG] init_preconditioner : 0 ms
[OGL LOG] solve : 21 ms
nonecudaGKOBiCGStab:  Solving for p, Initial residual = 0.102686, Final residual = 9.86675e-05, No Iterations 59
linear solve p 33
time step continuity errors : sum local = 1.14622e-07, global = -1.94286e-20, cumulative = -3.09563e-20
[OGL LOG] init_host_sparsity_pattern : 4 ms
[OGL LOG] matrix not stored update host matrix
[OGL LOG] update_host_mtx : 2 ms
[OGL LOG] matrix is not yet sorted, sorting host matrix
[OGL LOG] sort_host_mtx_sparsity_pattern : 3 ms
[OGL LOG] sort_host_mtx : 1 ms
[OGL LOG] init_preconditioner : 0 ms
[OGL LOG] solve : 21 ms
nonecudaGKOBiCGStab:  Solving for p, Initial residual = 0.0698932, Final residual = 9.99952e-05, No Iterations 72
linear solve p 34
time step continuity errors : sum local = 1.5922e-07, global = -2.00805e-20, cumulative = -5.10369e-20
ExecutionTime = 1.27 s  ClockTime = 1 s

Time = 0.004

Courant Number mean: 0.0233144 max: 0.175119
nonePBiCGStab:  Solving for Ux, Initial residual = 0.0520671, Final residual = 0.000102932, No Iterations 5
nonePBiCGStab:  Solving for Uy, Initial residual = 0.0743586, Final residual = 7.02561e-05, No Iterations 5
nonePBiCGStab:  Solving for Uz, Initial residual = 0.130523, Final residual = 0.000229744, No Iterations 5
linear solve U 5
[OGL LOG] init_host_sparsity_pattern : 4 ms
[OGL LOG] matrix not stored update host matrix
[OGL LOG] update_host_mtx : 2 ms
[OGL LOG] matrix is not yet sorted, sorting host matrix
[OGL LOG] sort_host_mtx_sparsity_pattern : 2 ms
[OGL LOG] sort_host_mtx : 1 ms
[OGL LOG] init_preconditioner : 0 ms
[OGL LOG] solve : 16 ms
nonecudaGKOBiCGStab:  Solving for p, Initial residual = 0.0553905, Final residual = 9.16511e-05, No Iterations 55
linear solve p 28
time step continuity errors : sum local = 9.45067e-08, global = 3.02459e-21, cumulative = -4.80123e-20
[OGL LOG] init_host_sparsity_pattern : 4 ms
[OGL LOG] matrix not stored update host matrix
[OGL LOG] update_host_mtx : 2 ms
[OGL LOG] matrix is not yet sorted, sorting host matrix
[OGL LOG] sort_host_mtx_sparsity_pattern : 2 ms
[OGL LOG] sort_host_mtx : 1 ms
[OGL LOG] init_preconditioner : 0 ms
[OGL LOG] solve : 17 ms
nonecudaGKOBiCGStab:  Solving for p, Initial residual = 0.0372078, Final residual = 9.32603e-05, No Iterations 56
linear solve p 29
time step continuity errors : sum local = 1.33207e-07, global = 7.56669e-21, cumulative = -4.04456e-20
ExecutionTime = 1.33 s  ClockTime = 2 s

Time = 0.005

Courant Number mean: 0.0264937 max: 0.186504
nonePBiCGStab:  Solving for Ux, Initial residual = 0.0351489, Final residual = 3.76532e-05, No Iterations 5
nonePBiCGStab:  Solving for Uy, Initial residual = 0.0508148, Final residual = 2.47619e-05, No Iterations 5
nonePBiCGStab:  Solving for Uz, Initial residual = 0.0916534, Final residual = 0.000118406, No Iterations 5
linear solve U 5
[OGL LOG] init_host_sparsity_pattern : 4 ms
[OGL LOG] matrix not stored update host matrix
[OGL LOG] update_host_mtx : 2 ms
[OGL LOG] matrix is not yet sorted, sorting host matrix
[OGL LOG] sort_host_mtx_sparsity_pattern : 2 ms
[OGL LOG] sort_host_mtx : 1 ms
[OGL LOG] init_preconditioner : 0 ms
[OGL LOG] solve : 16 ms
nonecudaGKOBiCGStab:  Solving for p, Initial residual = 0.0350795, Final residual = 7.0454e-05, No Iterations 53
linear solve p 28
time step continuity errors : sum local = 7.90676e-08, global = -3.58748e-21, cumulative = -4.40331e-20
[OGL LOG] init_host_sparsity_pattern : 4 ms
[OGL LOG] matrix not stored update host matrix
[OGL LOG] update_host_mtx : 2 ms
[OGL LOG] matrix is not yet sorted, sorting host matrix
[OGL LOG] sort_host_mtx_sparsity_pattern : 2 ms
[OGL LOG] sort_host_mtx : 1 ms
[OGL LOG] init_preconditioner : 0 ms
[OGL LOG] solve : 15 ms
nonecudaGKOBiCGStab:  Solving for p, Initial residual = 0.0232545, Final residual = 9.63713e-05, No Iterations 49
linear solve p 27
time step continuity errors : sum local = 1.23171e-07, global = 1.19742e-20, cumulative = -3.20589e-20
ExecutionTime = 1.41 s  ClockTime = 2 s

Time = 0.006

Courant Number mean: 0.0288953 max: 0.193336
nonePBiCGStab:  Solving for Ux, Initial residual = 0.0259658, Final residual = 1.42785e-05, No Iterations 5
nonePBiCGStab:  Solving for Uy, Initial residual = 0.0379811, Final residual = 1.61457e-05, No Iterations 5
nonePBiCGStab:  Solving for Uz, Initial residual = 0.0708027, Final residual = 6.7895e-05, No Iterations 5
linear solve U 5
[OGL LOG] init_host_sparsity_pattern : 4 ms
[OGL LOG] matrix not stored update host matrix
[OGL LOG] update_host_mtx : 2 ms
[OGL LOG] matrix is not yet sorted, sorting host matrix
[OGL LOG] sort_host_mtx_sparsity_pattern : 2 ms
[OGL LOG] sort_host_mtx : 1 ms
[OGL LOG] init_preconditioner : 0 ms
[OGL LOG] solve : 17 ms
nonecudaGKOBiCGStab:  Solving for p, Initial residual = 0.0245392, Final residual = 9.50725e-05, No Iterations 55
linear solve p 29
time step continuity errors : sum local = 9.70376e-08, global = -2.17917e-20, cumulative = -5.38506e-20
[OGL LOG] init_host_sparsity_pattern : 4 ms
[OGL LOG] matrix not stored update host matrix
[OGL LOG] update_host_mtx : 2 ms
[OGL LOG] matrix is not yet sorted, sorting host matrix
[OGL LOG] sort_host_mtx_sparsity_pattern : 2 ms
[OGL LOG] sort_host_mtx : 1 ms
[OGL LOG] init_preconditioner : 0 ms
[OGL LOG] solve : 15 ms
nonecudaGKOBiCGStab:  Solving for p, Initial residual = 0.0164628, Final residual = 5.57104e-05, No Iterations 51
linear solve p 28
time step continuity errors : sum local = 7.96634e-08, global = 1.93586e-20, cumulative = -3.4492e-20
ExecutionTime = 1.47 s  ClockTime = 2 s

Time = 0.007

Courant Number mean: 0.030831 max: 0.197891
nonePBiCGStab:  Solving for Ux, Initial residual = 0.0203733, Final residual = 7.14028e-06, No Iterations 5
nonePBiCGStab:  Solving for Uy, Initial residual = 0.0300203, Final residual = 9.6591e-06, No Iterations 5
nonePBiCGStab:  Solving for Uz, Initial residual = 0.0574185, Final residual = 4.52327e-05, No Iterations 5
linear solve U 5
[OGL LOG] init_host_sparsity_pattern : 4 ms
[OGL LOG] matrix not stored update host matrix
[OGL LOG] update_host_mtx : 2 ms
[OGL LOG] matrix is not yet sorted, sorting host matrix
[OGL LOG] sort_host_mtx_sparsity_pattern : 2 ms
[OGL LOG] sort_host_mtx : 1 ms
[OGL LOG] init_preconditioner : 0 ms
[OGL LOG] solve : 16 ms
nonecudaGKOBiCGStab:  Solving for p, Initial residual = 0.0186917, Final residual = 9.45355e-05, No Iterations 53
linear solve p 28
time step continuity errors : sum local = 9.43504e-08, global = -2.99465e-20, cumulative = -6.44385e-20
[OGL LOG] init_host_sparsity_pattern : 4 ms
[OGL LOG] matrix not stored update host matrix
[OGL LOG] update_host_mtx : 2 ms
[OGL LOG] matrix is not yet sorted, sorting host matrix
[OGL LOG] sort_host_mtx_sparsity_pattern : 2 ms
[OGL LOG] sort_host_mtx : 1 ms
[OGL LOG] init_preconditioner : 0 ms
[OGL LOG] solve : 18 ms
nonecudaGKOBiCGStab:  Solving for p, Initial residual = 0.0126592, Final residual = 7.69137e-05, No Iterations 50
linear solve p 30
time step continuity errors : sum local = 9.04752e-08, global = -3.96361e-20, cumulative = -1.04075e-19
ExecutionTime = 1.55 s  ClockTime = 2 s

Time = 0.008

Courant Number mean: 0.0324765 max: 0.201172
nonePBiCGStab:  Solving for Ux, Initial residual = 0.0165375, Final residual = 4.98606e-06, No Iterations 5
nonePBiCGStab:  Solving for Uy, Initial residual = 0.0246061, Final residual = 6.26841e-06, No Iterations 5
nonePBiCGStab:  Solving for Uz, Initial residual = 0.0479995, Final residual = 3.23999e-05, No Iterations 5
linear solve U 5
[OGL LOG] init_host_sparsity_pattern : 4 ms
[OGL LOG] matrix not stored update host matrix
[OGL LOG] update_host_mtx : 2 ms
[OGL LOG] matrix is not yet sorted, sorting host matrix
[OGL LOG] sort_host_mtx_sparsity_pattern : 2 ms
[OGL LOG] sort_host_mtx : 1 ms
[OGL LOG] init_preconditioner : 0 ms
[OGL LOG] solve : 15 ms
nonecudaGKOBiCGStab:  Solving for p, Initial residual = 0.0150289, Final residual = 9.89168e-05, No Iterations 52
linear solve p 28
time step continuity errors : sum local = 9.5186e-08, global = 5.25477e-21, cumulative = -9.88198e-20
[OGL LOG] init_host_sparsity_pattern : 4 ms
[OGL LOG] matrix not stored update host matrix
[OGL LOG] update_host_mtx : 2 ms
[OGL LOG] matrix is not yet sorted, sorting host matrix
[OGL LOG] sort_host_mtx_sparsity_pattern : 2 ms
[OGL LOG] sort_host_mtx : 1 ms
[OGL LOG] init_preconditioner : 0 ms
[OGL LOG] solve : 15 ms
nonecudaGKOBiCGStab:  Solving for p, Initial residual = 0.0102697, Final residual = 9.64651e-05, No Iterations 49
linear solve p 27
time step continuity errors : sum local = 1.01664e-07, global = -4.18315e-21, cumulative = -1.03003e-19
ExecutionTime = 1.61 s  ClockTime = 2 s

Time = 0.009

Courant Number mean: 0.0338807 max: 0.203668
nonePBiCGStab:  Solving for Ux, Initial residual = 0.0137991, Final residual = 3.24015e-06, No Iterations 5
nonePBiCGStab:  Solving for Uy, Initial residual = 0.020681, Final residual = 4.21387e-06, No Iterations 5
nonePBiCGStab:  Solving for Uz, Initial residual = 0.0409505, Final residual = 2.14824e-05, No Iterations 5
linear solve U 5
[OGL LOG] init_host_sparsity_pattern : 4 ms
[OGL LOG] matrix not stored update host matrix
[OGL LOG] update_host_mtx : 2 ms
[OGL LOG] matrix is not yet sorted, sorting host matrix
[OGL LOG] sort_host_mtx_sparsity_pattern : 2 ms
[OGL LOG] sort_host_mtx : 1 ms
[OGL LOG] init_preconditioner : 0 ms
[OGL LOG] solve : 15 ms
nonecudaGKOBiCGStab:  Solving for p, Initial residual = 0.0125184, Final residual = 9.77556e-05, No Iterations 51
linear solve p 27
time step continuity errors : sum local = 9.13694e-08, global = 3.17937e-20, cumulative = -7.12093e-20
[OGL LOG] init_host_sparsity_pattern : 4 ms
[OGL LOG] matrix not stored update host matrix
[OGL LOG] update_host_mtx : 2 ms
[OGL LOG] matrix is not yet sorted, sorting host matrix
[OGL LOG] sort_host_mtx_sparsity_pattern : 2 ms
[OGL LOG] sort_host_mtx : 1 ms
[OGL LOG] init_preconditioner : 0 ms
[OGL LOG] solve : 14 ms
nonecudaGKOBiCGStab:  Solving for p, Initial residual = 0.00861869, Final residual = 8.84224e-05, No Iterations 48
linear solve p 26
time step continuity errors : sum local = 9.02606e-08, global = 9.44464e-21, cumulative = -6.17646e-20
ExecutionTime = 1.67 s  ClockTime = 2 s

Time = 0.01

Courant Number mean: 0.035092 max: 0.205643
nonePBiCGStab:  Solving for Ux, Initial residual = 0.0117303, Final residual = 2.25087e-06, No Iterations 5
nonePBiCGStab:  Solving for Uy, Initial residual = 0.0177073, Final residual = 3.08082e-06, No Iterations 5
nonePBiCGStab:  Solving for Uz, Initial residual = 0.0354499, Final residual = 1.6336e-05, No Iterations 5
linear solve U 5
[OGL LOG] init_host_sparsity_pattern : 4 ms
[OGL LOG] matrix not stored update host matrix
[OGL LOG] update_host_mtx : 2 ms
[OGL LOG] matrix is not yet sorted, sorting host matrix
[OGL LOG] sort_host_mtx_sparsity_pattern : 2 ms
[OGL LOG] sort_host_mtx : 1 ms
[OGL LOG] init_preconditioner : 0 ms
[OGL LOG] solve : 15 ms
nonecudaGKOBiCGStab:  Solving for p, Initial residual = 0.0105694, Final residual = 9.07098e-05, No Iterations 50
linear solve p 27
time step continuity errors : sum local = 8.32174e-08, global = -1.87479e-20, cumulative = -8.05126e-20
[OGL LOG] init_host_sparsity_pattern : 4 ms
[OGL LOG] matrix not stored update host matrix
[OGL LOG] update_host_mtx : 2 ms
[OGL LOG] matrix is not yet sorted, sorting host matrix
[OGL LOG] sort_host_mtx_sparsity_pattern : 2 ms
[OGL LOG] sort_host_mtx : 1 ms
[OGL LOG] init_preconditioner : 0 ms
[OGL LOG] solve : 14 ms
nonecudaGKOBiCGStab:  Solving for p, Initial residual = 0.00731328, Final residual = 8.87968e-05, No Iterations 47
linear solve p 26
time step continuity errors : sum local = 8.69062e-08, global = 2.71086e-20, cumulative = -5.3404e-20
ExecutionTime = 1.75 s  ClockTime = 2 s

End

