/*---------------------------------------------------------------------------*\
  =========                 |
  \\      /  F ield         | OpenFOAM: The Open Source CFD Toolbox
   \\    /   O peration     | Website:  https://openfoam.org
    \\  /    A nd           | Version:  8
     \\/     M anipulation  |
\*---------------------------------------------------------------------------*/
Build  : 8-40a5a48f630f
Exec   : icoFoam
Date   : Jul 27 2021
Time   : 23:08:56
Host   : "uc2n481.localdomain"
PID    : 177420
I/O    : uncollated
Case   : /pfs/data5/home/kit/scc/nq7776/code/OBR/lidDrivenCavity3D/Variation_mesh/10/Variation_matrix_solver/CG_NoPrecond_CUDA/base
nProcs : 1
sigFpe : Enabling floating point exception trapping (FOAM_SIGFPE).
fileModificationChecking : Monitoring run-time modified files using timeStampMaster (fileModificationSkew 10)
allowSystemOperations : Allowing user-supplied system call operations

// * * * * * * * * * * * * * * * * * * * * * * * * * * * * * * * * * * * * * //
Create time

Create mesh for time = 0

Reading transportProperties

Reading field p

Reading field U

Reading/calculating face flux field phi


Starting time loop

Time = 0.001

Courant Number mean: 0 max: 0
nonePBiCGStab:  Solving for Ux, Initial residual = 1, Final residual = 6.46984e-07, No Iterations 5
nonePBiCGStab:  Solving for Uy, Initial residual = 0, Final residual = 0, No Iterations 0
nonePBiCGStab:  Solving for Uz, Initial residual = 0, Final residual = 0, No Iterations 0
linear solve U 0
[OGL LOG] init_host_sparsity_pattern : 0 ms
[OGL LOG] matrix not stored update host matrix
[OGL LOG] update_host_mtx : 0 ms
[OGL LOG] matrix is not yet sorted, compute sorting idxs
[OGL LOG] compute_sort : 5 ms
[OGL LOG] matrix is not yet sorted, sorting host matrix
[OGL LOG] sort_host_mtx_sparsity_pattern : 0 ms
[OGL LOG] sort_host_mtx : 0 ms
[OGL LOG] init_preconditioner : 0 ms
[OGL LOG] solve : 11 ms
nonecudaGKOCG:  Solving for p, Initial residual = 1, Final residual = 6.08555e-05, No Iterations 71
linear solve p 785
time step continuity errors : sum local = 1.9926e-08, global = -3.12405e-21, cumulative = -3.12405e-21
[OGL LOG] init_host_sparsity_pattern : 0 ms
[OGL LOG] matrix not stored update host matrix
[OGL LOG] update_host_mtx : 0 ms
[OGL LOG] matrix is not yet sorted, sorting host matrix
[OGL LOG] sort_host_mtx_sparsity_pattern : 0 ms
[OGL LOG] sort_host_mtx : 0 ms
[OGL LOG] init_preconditioner : 0 ms
[OGL LOG] solve : 10 ms
nonecudaGKOCG:  Solving for p, Initial residual = 0.190401, Final residual = 5.72047e-05, No Iterations 66
linear solve p 11
time step continuity errors : sum local = 3.47567e-08, global = 5.85179e-21, cumulative = 2.72773e-21
ExecutionTime = 0.82 s  ClockTime = 1 s

Time = 0.002

Courant Number mean: 0.00276862 max: 0.0123847
nonePBiCGStab:  Solving for Ux, Initial residual = 0.271635, Final residual = 3.20361e-07, No Iterations 5
nonePBiCGStab:  Solving for Uy, Initial residual = 0.305256, Final residual = 8.84988e-07, No Iterations 4
nonePBiCGStab:  Solving for Uz, Initial residual = 0.479815, Final residual = 5.93531e-07, No Iterations 5
linear solve U 0
[OGL LOG] init_host_sparsity_pattern : 0 ms
[OGL LOG] matrix not stored update host matrix
[OGL LOG] update_host_mtx : 0 ms
[OGL LOG] matrix is not yet sorted, sorting host matrix
[OGL LOG] sort_host_mtx_sparsity_pattern : 0 ms
[OGL LOG] sort_host_mtx : 0 ms
[OGL LOG] init_preconditioner : 0 ms
[OGL LOG] solve : 9 ms
nonecudaGKOCG:  Solving for p, Initial residual = 0.124807, Final residual = 8.1816e-05, No Iterations 63
linear solve p 11
time step continuity errors : sum local = 5.09738e-08, global = 5.36778e-21, cumulative = 8.09551e-21
[OGL LOG] init_host_sparsity_pattern : 0 ms
[OGL LOG] matrix not stored update host matrix
[OGL LOG] update_host_mtx : 0 ms
[OGL LOG] matrix is not yet sorted, sorting host matrix
[OGL LOG] sort_host_mtx_sparsity_pattern : 0 ms
[OGL LOG] sort_host_mtx : 0 ms
[OGL LOG] init_preconditioner : 0 ms
[OGL LOG] solve : 9 ms
nonecudaGKOCG:  Solving for p, Initial residual = 0.0212458, Final residual = 8.62061e-05, No Iterations 58
linear solve p 10
time step continuity errors : sum local = 5.90567e-08, global = 1.49039e-20, cumulative = 2.29994e-20
ExecutionTime = 0.84 s  ClockTime = 1 s

Time = 0.003

Courant Number mean: 0.00491749 max: 0.022139
nonePBiCGStab:  Solving for Ux, Initial residual = 0.137911, Final residual = 1.48866e-07, No Iterations 5
nonePBiCGStab:  Solving for Uy, Initial residual = 0.165976, Final residual = 4.19106e-07, No Iterations 4
nonePBiCGStab:  Solving for Uz, Initial residual = 0.287866, Final residual = 9.48635e-07, No Iterations 4
linear solve U 0
[OGL LOG] init_host_sparsity_pattern : 0 ms
[OGL LOG] matrix not stored update host matrix
[OGL LOG] update_host_mtx : 0 ms
[OGL LOG] matrix is not yet sorted, sorting host matrix
[OGL LOG] sort_host_mtx_sparsity_pattern : 0 ms
[OGL LOG] sort_host_mtx : 0 ms
[OGL LOG] init_preconditioner : 0 ms
[OGL LOG] solve : 9 ms
nonecudaGKOCG:  Solving for p, Initial residual = 0.0634483, Final residual = 7.80296e-05, No Iterations 62
linear solve p 10
time step continuity errors : sum local = 5.59989e-08, global = -1.13936e-20, cumulative = 1.16059e-20
[OGL LOG] init_host_sparsity_pattern : 0 ms
[OGL LOG] matrix not stored update host matrix
[OGL LOG] update_host_mtx : 0 ms
[OGL LOG] matrix is not yet sorted, sorting host matrix
[OGL LOG] sort_host_mtx_sparsity_pattern : 0 ms
[OGL LOG] sort_host_mtx : 0 ms
[OGL LOG] init_preconditioner : 0 ms
[OGL LOG] solve : 8 ms
nonecudaGKOCG:  Solving for p, Initial residual = 0.0132162, Final residual = 9.72841e-05, No Iterations 56
linear solve p 9
time step continuity errors : sum local = 7.33159e-08, global = -5.44037e-21, cumulative = 6.16549e-21
ExecutionTime = 0.86 s  ClockTime = 1 s

Time = 0.004

Courant Number mean: 0.00660393 max: 0.0298428
nonePBiCGStab:  Solving for Ux, Initial residual = 0.0843947, Final residual = 5.09538e-07, No Iterations 4
nonePBiCGStab:  Solving for Uy, Initial residual = 0.107803, Final residual = 6.8772e-07, No Iterations 4
nonePBiCGStab:  Solving for Uz, Initial residual = 0.192981, Final residual = 7.09472e-07, No Iterations 4
linear solve U 0
[OGL LOG] init_host_sparsity_pattern : 0 ms
[OGL LOG] matrix not stored update host matrix
[OGL LOG] update_host_mtx : 0 ms
[OGL LOG] matrix is not yet sorted, sorting host matrix
[OGL LOG] sort_host_mtx_sparsity_pattern : 0 ms
[OGL LOG] sort_host_mtx : 0 ms
[OGL LOG] init_preconditioner : 0 ms
[OGL LOG] solve : 9 ms
nonecudaGKOCG:  Solving for p, Initial residual = 0.039018, Final residual = 9.78883e-05, No Iterations 61
linear solve p 10
time step continuity errors : sum local = 7.58051e-08, global = -1.99446e-20, cumulative = -1.37791e-20
[OGL LOG] init_host_sparsity_pattern : 0 ms
[OGL LOG] matrix not stored update host matrix
[OGL LOG] update_host_mtx : 0 ms
[OGL LOG] matrix is not yet sorted, sorting host matrix
[OGL LOG] sort_host_mtx_sparsity_pattern : 0 ms
[OGL LOG] sort_host_mtx : 0 ms
[OGL LOG] init_preconditioner : 0 ms
[OGL LOG] solve : 8 ms
nonecudaGKOCG:  Solving for p, Initial residual = 0.00955994, Final residual = 9.96849e-05, No Iterations 55
linear solve p 9
time step continuity errors : sum local = 7.96152e-08, global = 4.41818e-21, cumulative = -9.36089e-21
ExecutionTime = 0.88 s  ClockTime = 1 s

Time = 0.005

Courant Number mean: 0.0079444 max: 0.0359757
nonePBiCGStab:  Solving for Ux, Initial residual = 0.0590438, Final residual = 7.35561e-07, No Iterations 4
nonePBiCGStab:  Solving for Uy, Initial residual = 0.0764358, Final residual = 3.87057e-07, No Iterations 4
nonePBiCGStab:  Solving for Uz, Initial residual = 0.150502, Final residual = 5.15376e-07, No Iterations 4
linear solve U 0
[OGL LOG] init_host_sparsity_pattern : 0 ms
[OGL LOG] matrix not stored update host matrix
[OGL LOG] update_host_mtx : 0 ms
[OGL LOG] matrix is not yet sorted, sorting host matrix
[OGL LOG] sort_host_mtx_sparsity_pattern : 0 ms
[OGL LOG] sort_host_mtx : 0 ms
[OGL LOG] init_preconditioner : 0 ms
[OGL LOG] solve : 9 ms
nonecudaGKOCG:  Solving for p, Initial residual = 0.0280835, Final residual = 8.02705e-05, No Iterations 61
linear solve p 10
time step continuity errors : sum local = 6.52627e-08, global = 2.60768e-20, cumulative = 1.6716e-20
[OGL LOG] init_host_sparsity_pattern : 0 ms
[OGL LOG] matrix not stored update host matrix
[OGL LOG] update_host_mtx : 0 ms
[OGL LOG] matrix is not yet sorted, sorting host matrix
[OGL LOG] sort_host_mtx_sparsity_pattern : 0 ms
[OGL LOG] sort_host_mtx : 0 ms
[OGL LOG] init_preconditioner : 0 ms
[OGL LOG] solve : 8 ms
nonecudaGKOCG:  Solving for p, Initial residual = 0.00733622, Final residual = 9.71626e-05, No Iterations 54
linear solve p 9
time step continuity errors : sum local = 8.06518e-08, global = 3.28391e-20, cumulative = 4.9555e-20
ExecutionTime = 0.91 s  ClockTime = 1 s

Time = 0.006

Courant Number mean: 0.0090242 max: 0.0408976
nonePBiCGStab:  Solving for Ux, Initial residual = 0.044426, Final residual = 4.05341e-07, No Iterations 4
nonePBiCGStab:  Solving for Uy, Initial residual = 0.0572635, Final residual = 2.24678e-07, No Iterations 4
nonePBiCGStab:  Solving for Uz, Initial residual = 0.122506, Final residual = 3.00168e-07, No Iterations 4
linear solve U 0
[OGL LOG] init_host_sparsity_pattern : 0 ms
[OGL LOG] matrix not stored update host matrix
[OGL LOG] update_host_mtx : 0 ms
[OGL LOG] matrix is not yet sorted, sorting host matrix
[OGL LOG] sort_host_mtx_sparsity_pattern : 0 ms
[OGL LOG] sort_host_mtx : 0 ms
[OGL LOG] init_preconditioner : 0 ms
[OGL LOG] solve : 9 ms
nonecudaGKOCG:  Solving for p, Initial residual = 0.0228146, Final residual = 9.10627e-05, No Iterations 60
linear solve p 10
time step continuity errors : sum local = 7.66029e-08, global = -4.54329e-21, cumulative = 4.50117e-20
[OGL LOG] init_host_sparsity_pattern : 0 ms
[OGL LOG] matrix not stored update host matrix
[OGL LOG] update_host_mtx : 0 ms
[OGL LOG] matrix is not yet sorted, sorting host matrix
[OGL LOG] sort_host_mtx_sparsity_pattern : 0 ms
[OGL LOG] sort_host_mtx : 0 ms
[OGL LOG] init_preconditioner : 0 ms
[OGL LOG] solve : 4 ms
nonecudaGKOCG:  Solving for p, Initial residual = 0.0058138, Final residual = 9.7088e-05, No Iterations 25
linear solve p 5
time step continuity errors : sum local = 1.13428e-07, global = -2.46634e-20, cumulative = 2.03483e-20
ExecutionTime = 0.93 s  ClockTime = 1 s

Time = 0.007

Courant Number mean: 0.00990689 max: 0.04488
nonePBiCGStab:  Solving for Ux, Initial residual = 0.034895, Final residual = 2.3906e-07, No Iterations 4
nonePBiCGStab:  Solving for Uy, Initial residual = 0.044608, Final residual = 7.23598e-07, No Iterations 3
nonePBiCGStab:  Solving for Uz, Initial residual = 0.102195, Final residual = 6.94501e-07, No Iterations 4
linear solve U 0
[OGL LOG] init_host_sparsity_pattern : 0 ms
[OGL LOG] matrix not stored update host matrix
[OGL LOG] update_host_mtx : 0 ms
[OGL LOG] matrix is not yet sorted, sorting host matrix
[OGL LOG] sort_host_mtx_sparsity_pattern : 0 ms
[OGL LOG] sort_host_mtx : 0 ms
[OGL LOG] init_preconditioner : 0 ms
[OGL LOG] solve : 5 ms
nonecudaGKOCG:  Solving for p, Initial residual = 0.0195329, Final residual = 9.5116e-05, No Iterations 35
linear solve p 6
time step continuity errors : sum local = 1.0954e-07, global = -1.32903e-20, cumulative = 7.058e-21
[OGL LOG] init_host_sparsity_pattern : 0 ms
[OGL LOG] matrix not stored update host matrix
[OGL LOG] update_host_mtx : 0 ms
[OGL LOG] matrix is not yet sorted, sorting host matrix
[OGL LOG] sort_host_mtx_sparsity_pattern : 0 ms
[OGL LOG] sort_host_mtx : 0 ms
[OGL LOG] init_preconditioner : 0 ms
[OGL LOG] solve : 3 ms
nonecudaGKOCG:  Solving for p, Initial residual = 0.00477147, Final residual = 8.74573e-05, No Iterations 23
linear solve p 5
time step continuity errors : sum local = 8.62426e-08, global = 1.68497e-20, cumulative = 2.39077e-20
ExecutionTime = 0.94 s  ClockTime = 1 s

Time = 0.008

Courant Number mean: 0.0106744 max: 0.0481313
nonePBiCGStab:  Solving for Ux, Initial residual = 0.0282143, Final residual = 9.53597e-07, No Iterations 3
nonePBiCGStab:  Solving for Uy, Initial residual = 0.0357516, Final residual = 4.21542e-07, No Iterations 3
nonePBiCGStab:  Solving for Uz, Initial residual = 0.0868016, Final residual = 5.27225e-07, No Iterations 4
linear solve U 0
[OGL LOG] init_host_sparsity_pattern : 0 ms
[OGL LOG] matrix not stored update host matrix
[OGL LOG] update_host_mtx : 0 ms
[OGL LOG] matrix is not yet sorted, sorting host matrix
[OGL LOG] sort_host_mtx_sparsity_pattern : 0 ms
[OGL LOG] sort_host_mtx : 0 ms
[OGL LOG] init_preconditioner : 0 ms
[OGL LOG] solve : 9 ms
nonecudaGKOCG:  Solving for p, Initial residual = 0.0168061, Final residual = 8.05923e-05, No Iterations 58
linear solve p 10
time step continuity errors : sum local = 7.12125e-08, global = -4.86e-21, cumulative = 1.90477e-20
[OGL LOG] init_host_sparsity_pattern : 0 ms
[OGL LOG] matrix not stored update host matrix
[OGL LOG] update_host_mtx : 0 ms
[OGL LOG] matrix is not yet sorted, sorting host matrix
[OGL LOG] sort_host_mtx_sparsity_pattern : 0 ms
[OGL LOG] sort_host_mtx : 0 ms
[OGL LOG] init_preconditioner : 0 ms
[OGL LOG] solve : 3 ms
nonecudaGKOCG:  Solving for p, Initial residual = 0.00387701, Final residual = 9.22354e-05, No Iterations 22
linear solve p 4
time step continuity errors : sum local = 1.06694e-07, global = -8.63907e-21, cumulative = 1.04086e-20
ExecutionTime = 0.95 s  ClockTime = 1 s

Time = 0.009

Courant Number mean: 0.0113437 max: 0.0508022
nonePBiCGStab:  Solving for Ux, Initial residual = 0.0231943, Final residual = 5.84055e-07, No Iterations 3
nonePBiCGStab:  Solving for Uy, Initial residual = 0.029373, Final residual = 2.60109e-07, No Iterations 3
nonePBiCGStab:  Solving for Uz, Initial residual = 0.0734676, Final residual = 3.77877e-07, No Iterations 4
linear solve U 0
[OGL LOG] init_host_sparsity_pattern : 0 ms
[OGL LOG] matrix not stored update host matrix
[OGL LOG] update_host_mtx : 0 ms
[OGL LOG] matrix is not yet sorted, sorting host matrix
[OGL LOG] sort_host_mtx_sparsity_pattern : 0 ms
[OGL LOG] sort_host_mtx : 0 ms
[OGL LOG] init_preconditioner : 0 ms
[OGL LOG] solve : 4 ms
nonecudaGKOCG:  Solving for p, Initial residual = 0.0151156, Final residual = 9.54143e-05, No Iterations 28
linear solve p 5
time step continuity errors : sum local = 9.68452e-08, global = -1.4292e-20, cumulative = -3.88343e-21
[OGL LOG] init_host_sparsity_pattern : 0 ms
[OGL LOG] matrix not stored update host matrix
[OGL LOG] update_host_mtx : 0 ms
[OGL LOG] matrix is not yet sorted, sorting host matrix
[OGL LOG] sort_host_mtx_sparsity_pattern : 0 ms
[OGL LOG] sort_host_mtx : 0 ms
[OGL LOG] init_preconditioner : 0 ms
[OGL LOG] solve : 3 ms
nonecudaGKOCG:  Solving for p, Initial residual = 0.00335275, Final residual = 7.86349e-05, No Iterations 22
linear solve p 4
time step continuity errors : sum local = 7.24238e-08, global = -5.2013e-21, cumulative = -9.08473e-21
ExecutionTime = 0.96 s  ClockTime = 1 s

Time = 0.01

Courant Number mean: 0.011944 max: 0.0530169
nonePBiCGStab:  Solving for Ux, Initial residual = 0.0193042, Final residual = 3.7561e-07, No Iterations 3
nonePBiCGStab:  Solving for Uy, Initial residual = 0.0245434, Final residual = 8.4654e-07, No Iterations 3
nonePBiCGStab:  Solving for Uz, Initial residual = 0.0638241, Final residual = 3.40856e-07, No Iterations 4
linear solve U 0
[OGL LOG] init_host_sparsity_pattern : 0 ms
[OGL LOG] matrix not stored update host matrix
[OGL LOG] update_host_mtx : 0 ms
[OGL LOG] matrix is not yet sorted, sorting host matrix
[OGL LOG] sort_host_mtx_sparsity_pattern : 0 ms
[OGL LOG] sort_host_mtx : 0 ms
[OGL LOG] init_preconditioner : 0 ms
[OGL LOG] solve : 8 ms
nonecudaGKOCG:  Solving for p, Initial residual = 0.0134892, Final residual = 7.84626e-05, No Iterations 57
linear solve p 9
time step continuity errors : sum local = 7.13909e-08, global = -4.76653e-20, cumulative = -5.675e-20
[OGL LOG] init_host_sparsity_pattern : 0 ms
[OGL LOG] matrix not stored update host matrix
[OGL LOG] update_host_mtx : 0 ms
[OGL LOG] matrix is not yet sorted, sorting host matrix
[OGL LOG] sort_host_mtx_sparsity_pattern : 0 ms
[OGL LOG] sort_host_mtx : 0 ms
[OGL LOG] init_preconditioner : 0 ms
[OGL LOG] solve : 3 ms
nonecudaGKOCG:  Solving for p, Initial residual = 0.00272989, Final residual = 8.88667e-05, No Iterations 21
linear solve p 4
time step continuity errors : sum local = 9.71682e-08, global = 3.52338e-20, cumulative = -2.15162e-20
ExecutionTime = 0.98 s  ClockTime = 1 s

End

