/*---------------------------------------------------------------------------*\
  =========                 |
  \\      /  F ield         | OpenFOAM: The Open Source CFD Toolbox
   \\    /   O peration     | Website:  https://openfoam.org
    \\  /    A nd           | Version:  8
     \\/     M anipulation  |
\*---------------------------------------------------------------------------*/
Build  : 8-40a5a48f630f
Exec   : icoFoam
Date   : Jul 28 2021
Time   : 02:41:57
Host   : "uc2n476.localdomain"
PID    : 1921583
I/O    : uncollated
Case   : /pfs/data5/home/kit/scc/nq7776/code/OBR/lidDrivenCavity3D/Variation_mesh/95/Variation_matrix_solver/BiCGStab_NoPrecond_Serial/base
nProcs : 1
sigFpe : Enabling floating point exception trapping (FOAM_SIGFPE).
fileModificationChecking : Monitoring run-time modified files using timeStampMaster (fileModificationSkew 10)
allowSystemOperations : Allowing user-supplied system call operations

// * * * * * * * * * * * * * * * * * * * * * * * * * * * * * * * * * * * * * //
Create time

Create mesh for time = 0

Reading transportProperties

Reading field p

Reading field U

Reading/calculating face flux field phi


Starting time loop

Time = 0.001

Courant Number mean: 0 max: 0
nonePBiCGStab:  Solving for Ux, Initial residual = 1, Final residual = 0.078913, No Iterations 5
nonePBiCGStab:  Solving for Uy, Initial residual = 0, Final residual = 0, No Iterations 0
nonePBiCGStab:  Solving for Uz, Initial residual = 0, Final residual = 0, No Iterations 0
linear solve U 221
nonePBiCGStab:  Solving for p, Initial residual = 1, Final residual = 5.41104e-05, No Iterations 693
linear solve p 16040
time step continuity errors : sum local = 4.16286e-08, global = 7.16494e-21, cumulative = 7.16494e-21
nonePBiCGStab:  Solving for p, Initial residual = 0.704482, Final residual = 8.56017e-05, No Iterations 603
linear solve p 13993
time step continuity errors : sum local = 8.6484e-08, global = -2.7954e-21, cumulative = 4.36954e-21
ExecutionTime = 33.79 s  ClockTime = 34 s

Time = 0.002

Courant Number mean: 0.0412069 max: 0.745797
nonePBiCGStab:  Solving for Ux, Initial residual = 0.139224, Final residual = 0.0378217, No Iterations 5
nonePBiCGStab:  Solving for Uy, Initial residual = 0.440069, Final residual = 0.117152, No Iterations 5
nonePBiCGStab:  Solving for Uz, Initial residual = 0.981828, Final residual = 0.301978, No Iterations 5
linear solve U 495
nonePBiCGStab:  Solving for p, Initial residual = 0.777839, Final residual = 9.38669e-05, No Iterations 579
linear solve p 13472
time step continuity errors : sum local = 1.70796e-07, global = -6.02299e-21, cumulative = -1.65345e-21
nonePBiCGStab:  Solving for p, Initial residual = 0.70121, Final residual = 9.94595e-05, No Iterations 233
linear solve p 5418
time step continuity errors : sum local = 1.38611e-07, global = 2.02649e-21, cumulative = 3.73044e-22
ExecutionTime = 53.63 s  ClockTime = 54 s

Time = 0.003

Courant Number mean: 0.0654736 max: 0.850095
nonePBiCGStab:  Solving for Ux, Initial residual = 0.0601258, Final residual = 0.0136622, No Iterations 5
nonePBiCGStab:  Solving for Uy, Initial residual = 0.196335, Final residual = 0.0540909, No Iterations 5
nonePBiCGStab:  Solving for Uz, Initial residual = 0.686469, Final residual = 0.19272, No Iterations 5
linear solve U 489
nonePBiCGStab:  Solving for p, Initial residual = 0.778086, Final residual = 9.67716e-05, No Iterations 257
linear solve p 5972
time step continuity errors : sum local = 8.93118e-08, global = 3.38641e-21, cumulative = 3.75945e-21
nonePBiCGStab:  Solving for p, Initial residual = 0.70658, Final residual = 9.26513e-05, No Iterations 248
linear solve p 5751
time step continuity errors : sum local = 7.76045e-08, global = -1.43387e-21, cumulative = 2.32559e-21
ExecutionTime = 66.34 s  ClockTime = 67 s

Time = 0.004

Courant Number mean: 0.0789311 max: 0.864899
nonePBiCGStab:  Solving for Ux, Initial residual = 0.0379632, Final residual = 0.00941804, No Iterations 5
nonePBiCGStab:  Solving for Uy, Initial residual = 0.138187, Final residual = 0.0426563, No Iterations 5
nonePBiCGStab:  Solving for Uz, Initial residual = 0.459446, Final residual = 0.116943, No Iterations 5
linear solve U 490
nonePBiCGStab:  Solving for p, Initial residual = 0.689131, Final residual = 9.89966e-05, No Iterations 526
linear solve p 12187
time step continuity errors : sum local = 9.95516e-08, global = -9.32714e-21, cumulative = -7.00155e-21
nonePBiCGStab:  Solving for p, Initial residual = 0.593091, Final residual = 9.7187e-05, No Iterations 241
linear solve p 5607
time step continuity errors : sum local = 1.42121e-07, global = 3.1458e-21, cumulative = -3.85576e-21
ExecutionTime = 85.09 s  ClockTime = 85 s

Time = 0.005

Courant Number mean: 0.0895863 max: 0.877478
nonePBiCGStab:  Solving for Ux, Initial residual = 0.0285312, Final residual = 0.00740559, No Iterations 5
nonePBiCGStab:  Solving for Uy, Initial residual = 0.0922167, Final residual = 0.0314558, No Iterations 5
nonePBiCGStab:  Solving for Uz, Initial residual = 0.322158, Final residual = 0.0920939, No Iterations 5
linear solve U 496
nonePBiCGStab:  Solving for p, Initial residual = 0.724909, Final residual = 8.30785e-05, No Iterations 540
linear solve p 12513
time step continuity errors : sum local = 5.61455e-08, global = 6.62361e-21, cumulative = 2.76786e-21
nonePBiCGStab:  Solving for p, Initial residual = 0.640076, Final residual = 9.89579e-05, No Iterations 566
linear solve p 13124
time step continuity errors : sum local = 8.03454e-08, global = 9.52277e-21, cumulative = 1.22906e-20
ExecutionTime = 111.68 s  ClockTime = 112 s

Time = 0.006

Courant Number mean: 0.0978222 max: 0.884205
nonePBiCGStab:  Solving for Ux, Initial residual = 0.0225431, Final residual = 0.00598697, No Iterations 5
nonePBiCGStab:  Solving for Uy, Initial residual = 0.0730431, Final residual = 0.0241758, No Iterations 5
nonePBiCGStab:  Solving for Uz, Initial residual = 0.276225, Final residual = 0.0812173, No Iterations 5
linear solve U 488
nonePBiCGStab:  Solving for p, Initial residual = 0.653089, Final residual = 8.07202e-05, No Iterations 578
linear solve p 13338
time step continuity errors : sum local = 5.65543e-08, global = -2.81897e-21, cumulative = 9.47165e-21
nonePBiCGStab:  Solving for p, Initial residual = 0.559754, Final residual = 9.66771e-05, No Iterations 468
linear solve p 10851
time step continuity errors : sum local = 1.24104e-07, global = 1.1931e-20, cumulative = 2.14027e-20
ExecutionTime = 136.79 s  ClockTime = 137 s

Time = 0.007

Courant Number mean: 0.104775 max: 0.889601
nonePBiCGStab:  Solving for Ux, Initial residual = 0.0191217, Final residual = 0.00488446, No Iterations 5
nonePBiCGStab:  Solving for Uy, Initial residual = 0.0579354, Final residual = 0.0198001, No Iterations 5
nonePBiCGStab:  Solving for Uz, Initial residual = 0.239758, Final residual = 0.0778836, No Iterations 5
linear solve U 488
nonePBiCGStab:  Solving for p, Initial residual = 0.690402, Final residual = 9.97812e-05, No Iterations 519
linear solve p 12053
time step continuity errors : sum local = 6.65329e-08, global = -6.55183e-21, cumulative = 1.48508e-20
nonePBiCGStab:  Solving for p, Initial residual = 0.598436, Final residual = 9.20527e-05, No Iterations 492
linear solve p 11423
time step continuity errors : sum local = 9.73749e-08, global = -3.67806e-21, cumulative = 1.11728e-20
ExecutionTime = 161.2 s  ClockTime = 162 s

Time = 0.008

Courant Number mean: 0.110738 max: 0.893466
nonePBiCGStab:  Solving for Ux, Initial residual = 0.0164778, Final residual = 0.00450459, No Iterations 5
nonePBiCGStab:  Solving for Uy, Initial residual = 0.0491179, Final residual = 0.014975, No Iterations 5
nonePBiCGStab:  Solving for Uz, Initial residual = 0.195105, Final residual = 0.0611513, No Iterations 5
linear solve U 499
nonePBiCGStab:  Solving for p, Initial residual = 0.631097, Final residual = 6.23907e-05, No Iterations 596
linear solve p 13795
time step continuity errors : sum local = 4.33509e-08, global = -1.94651e-20, cumulative = -8.29237e-21
nonePBiCGStab:  Solving for p, Initial residual = 0.538454, Final residual = 9.69637e-05, No Iterations 485
linear solve p 11260
time step continuity errors : sum local = 8.75118e-08, global = -3.46588e-20, cumulative = -4.29511e-20
ExecutionTime = 187.16 s  ClockTime = 188 s

Time = 0.009

Courant Number mean: 0.115969 max: 0.896658
nonePBiCGStab:  Solving for Ux, Initial residual = 0.0145587, Final residual = 0.00390734, No Iterations 5
nonePBiCGStab:  Solving for Uy, Initial residual = 0.0420392, Final residual = 0.013761, No Iterations 5
nonePBiCGStab:  Solving for Uz, Initial residual = 0.169198, Final residual = 0.0533548, No Iterations 5
linear solve U 488
nonePBiCGStab:  Solving for p, Initial residual = 0.671491, Final residual = 9.96933e-05, No Iterations 497
linear solve p 11537
time step continuity errors : sum local = 7.73628e-08, global = -1.14806e-20, cumulative = -5.44318e-20
nonePBiCGStab:  Solving for p, Initial residual = 0.576522, Final residual = 9.76428e-05, No Iterations 470
linear solve p 10890
time step continuity errors : sum local = 1.09609e-07, global = 5.39651e-21, cumulative = -4.90353e-20
ExecutionTime = 210.55 s  ClockTime = 211 s

Time = 0.01

Courant Number mean: 0.120567 max: 0.899068
nonePBiCGStab:  Solving for Ux, Initial residual = 0.0131919, Final residual = 0.00355771, No Iterations 5
nonePBiCGStab:  Solving for Uy, Initial residual = 0.0371529, Final residual = 0.010716, No Iterations 5
nonePBiCGStab:  Solving for Uz, Initial residual = 0.152823, Final residual = 0.050877, No Iterations 5
linear solve U 458
nonePBiCGStab:  Solving for p, Initial residual = 0.627471, Final residual = 8.46743e-05, No Iterations 567
linear solve p 13135
time step continuity errors : sum local = 6.26114e-08, global = -8.56882e-21, cumulative = -5.76041e-20
nonePBiCGStab:  Solving for p, Initial residual = 0.535017, Final residual = 9.02699e-05, No Iterations 543
linear solve p 12577
time step continuity errors : sum local = 6.81075e-08, global = -7.15977e-21, cumulative = -6.47638e-20
ExecutionTime = 237.13 s  ClockTime = 238 s

End

