/*---------------------------------------------------------------------------*\
  =========                 |
  \\      /  F ield         | OpenFOAM: The Open Source CFD Toolbox
   \\    /   O peration     | Website:  https://openfoam.org
    \\  /    A nd           | Version:  8
     \\/     M anipulation  |
\*---------------------------------------------------------------------------*/
Build  : 8-40a5a48f630f
Exec   : icoFoam
Date   : Jul 28 2021
Time   : 02:08:30
Host   : "uc2n462.localdomain"
PID    : 3687685
I/O    : uncollated
Case   : /pfs/data5/home/kit/scc/nq7776/code/OBR/lidDrivenCavity3D/Variation_mesh/25/Variation_matrix_solver/BiCGStab_NoPrecond_OMP/base
nProcs : 1
sigFpe : Enabling floating point exception trapping (FOAM_SIGFPE).
fileModificationChecking : Monitoring run-time modified files using timeStampMaster (fileModificationSkew 10)
allowSystemOperations : Allowing user-supplied system call operations

// * * * * * * * * * * * * * * * * * * * * * * * * * * * * * * * * * * * * * //
Create time

Create mesh for time = 0

Reading transportProperties

Reading field p

Reading field U

Reading/calculating face flux field phi


Starting time loop

Time = 0.001

Courant Number mean: 0 max: 0
nonePBiCGStab:  Solving for Ux, Initial residual = 1, Final residual = 0.00310183, No Iterations 5
nonePBiCGStab:  Solving for Uy, Initial residual = 0, Final residual = 0, No Iterations 0
nonePBiCGStab:  Solving for Uz, Initial residual = 0, Final residual = 0, No Iterations 0
linear solve U 2
[OGL LOG] init_host_sparsity_pattern : 4 ms
[OGL LOG] matrix not stored update host matrix
[OGL LOG] update_host_mtx : 2 ms
[OGL LOG] matrix is not yet sorted, compute sorting idxs
[OGL LOG] compute_sort : 107 ms
[OGL LOG] matrix is not yet sorted, sorting host matrix
[OGL LOG] sort_host_mtx_sparsity_pattern : 3 ms
[OGL LOG] sort_host_mtx : 1 ms
[OGL LOG] init_preconditioner : 0 ms
[OGL LOG] solve : 67 ms
noneompGKOBiCGStab:  Solving for p, Initial residual = 1, Final residual = 7.67433e-05, No Iterations 160
linear solve p 205
time step continuity errors : sum local = 3.85783e-07, global = -1.89259e-20, cumulative = -1.89259e-20
[OGL LOG] init_host_sparsity_pattern : 5 ms
[OGL LOG] matrix not stored update host matrix
[OGL LOG] update_host_mtx : 2 ms
[OGL LOG] matrix is not yet sorted, sorting host matrix
[OGL LOG] sort_host_mtx_sparsity_pattern : 3 ms
[OGL LOG] sort_host_mtx : 1 ms
[OGL LOG] init_preconditioner : 0 ms
[OGL LOG] solve : 64 ms
noneompGKOBiCGStab:  Solving for p, Initial residual = 0.480816, Final residual = 9.82708e-05, No Iterations 153
linear solve p 79
time step continuity errors : sum local = 3.73229e-06, global = 7.43144e-21, cumulative = -1.14945e-20
ExecutionTime = 3.2 s  ClockTime = 1 s

Time = 0.002

Courant Number mean: 0.0119717 max: 0.106554
nonePBiCGStab:  Solving for Ux, Initial residual = 0.210832, Final residual = 0.000694996, No Iterations 5
nonePBiCGStab:  Solving for Uy, Initial residual = 0.284537, Final residual = 0.000656472, No Iterations 5
nonePBiCGStab:  Solving for Uz, Initial residual = 0.855388, Final residual = 0.00330778, No Iterations 5
linear solve U 6
[OGL LOG] init_host_sparsity_pattern : 4 ms
[OGL LOG] matrix not stored update host matrix
[OGL LOG] update_host_mtx : 2 ms
[OGL LOG] matrix is not yet sorted, sorting host matrix
[OGL LOG] sort_host_mtx_sparsity_pattern : 3 ms
[OGL LOG] sort_host_mtx : 1 ms
[OGL LOG] init_preconditioner : 0 ms
[OGL LOG] solve : 64 ms
noneompGKOBiCGStab:  Solving for p, Initial residual = 0.289095, Final residual = 8.9979e-05, No Iterations 153
linear solve p 77
time step continuity errors : sum local = 4.22348e-07, global = 2.66125e-21, cumulative = -8.8332e-21
[OGL LOG] init_host_sparsity_pattern : 4 ms
[OGL LOG] matrix not stored update host matrix
[OGL LOG] update_host_mtx : 2 ms
[OGL LOG] matrix is not yet sorted, sorting host matrix
[OGL LOG] sort_host_mtx_sparsity_pattern : 3 ms
[OGL LOG] sort_host_mtx : 1 ms
[OGL LOG] init_preconditioner : 0 ms
[OGL LOG] solve : 59 ms
noneompGKOBiCGStab:  Solving for p, Initial residual = 0.190089, Final residual = 9.04919e-05, No Iterations 143
linear solve p 73
time step continuity errors : sum local = 2.90723e-07, global = -2.10176e-21, cumulative = -1.0935e-20
ExecutionTime = 5.94 s  ClockTime = 1 s

Time = 0.003

Courant Number mean: 0.0188464 max: 0.153564
nonePBiCGStab:  Solving for Ux, Initial residual = 0.0900112, Final residual = 0.000292162, No Iterations 5
nonePBiCGStab:  Solving for Uy, Initial residual = 0.124855, Final residual = 0.000215342, No Iterations 5
nonePBiCGStab:  Solving for Uz, Initial residual = 0.272839, Final residual = 0.000985928, No Iterations 5
linear solve U 6
[OGL LOG] init_host_sparsity_pattern : 4 ms
[OGL LOG] matrix not stored update host matrix
[OGL LOG] update_host_mtx : 2 ms
[OGL LOG] matrix is not yet sorted, sorting host matrix
[OGL LOG] sort_host_mtx_sparsity_pattern : 3 ms
[OGL LOG] sort_host_mtx : 1 ms
[OGL LOG] init_preconditioner : 0 ms
[OGL LOG] solve : 56 ms
noneompGKOBiCGStab:  Solving for p, Initial residual = 0.103828, Final residual = 9.12362e-05, No Iterations 134
linear solve p 69
time step continuity errors : sum local = 2.84463e-07, global = 1.21502e-20, cumulative = 1.21528e-21
[OGL LOG] init_host_sparsity_pattern : 4 ms
[OGL LOG] matrix not stored update host matrix
[OGL LOG] update_host_mtx : 2 ms
[OGL LOG] matrix is not yet sorted, sorting host matrix
[OGL LOG] sort_host_mtx_sparsity_pattern : 3 ms
[OGL LOG] sort_host_mtx : 1 ms
[OGL LOG] init_preconditioner : 0 ms
[OGL LOG] solve : 66 ms
noneompGKOBiCGStab:  Solving for p, Initial residual = 0.0704125, Final residual = 9.49817e-05, No Iterations 135
linear solve p 81
time step continuity errors : sum local = 3.35548e-07, global = 3.94317e-21, cumulative = 5.15845e-21
ExecutionTime = 8.66 s  ClockTime = 1 s

Time = 0.004

Courant Number mean: 0.0233144 max: 0.175118
nonePBiCGStab:  Solving for Ux, Initial residual = 0.0520938, Final residual = 0.000102893, No Iterations 5
nonePBiCGStab:  Solving for Uy, Initial residual = 0.0743126, Final residual = 7.32388e-05, No Iterations 5
nonePBiCGStab:  Solving for Uz, Initial residual = 0.130443, Final residual = 0.000225975, No Iterations 5
linear solve U 5
[OGL LOG] init_host_sparsity_pattern : 4 ms
[OGL LOG] matrix not stored update host matrix
[OGL LOG] update_host_mtx : 2 ms
[OGL LOG] matrix is not yet sorted, sorting host matrix
[OGL LOG] sort_host_mtx_sparsity_pattern : 3 ms
[OGL LOG] sort_host_mtx : 1 ms
[OGL LOG] init_preconditioner : 0 ms
[OGL LOG] solve : 30 ms
noneompGKOBiCGStab:  Solving for p, Initial residual = 0.0555715, Final residual = 9.69805e-05, No Iterations 55
linear solve p 43
time step continuity errors : sum local = 1.07063e-07, global = -4.46264e-22, cumulative = 4.71219e-21
[OGL LOG] init_host_sparsity_pattern : 4 ms
[OGL LOG] matrix not stored update host matrix
[OGL LOG] update_host_mtx : 2 ms
[OGL LOG] matrix is not yet sorted, sorting host matrix
[OGL LOG] sort_host_mtx_sparsity_pattern : 2 ms
[OGL LOG] sort_host_mtx : 1 ms
[OGL LOG] init_preconditioner : 0 ms
[OGL LOG] solve : 28 ms
noneompGKOBiCGStab:  Solving for p, Initial residual = 0.0371844, Final residual = 9.78532e-05, No Iterations 52
linear solve p 41
time step continuity errors : sum local = 1.26203e-07, global = -1.83024e-20, cumulative = -1.35902e-20
ExecutionTime = 10.09 s  ClockTime = 1 s

Time = 0.005

Courant Number mean: 0.0264937 max: 0.186504
nonePBiCGStab:  Solving for Ux, Initial residual = 0.0351292, Final residual = 3.76045e-05, No Iterations 5
nonePBiCGStab:  Solving for Uy, Initial residual = 0.0508442, Final residual = 2.70374e-05, No Iterations 5
nonePBiCGStab:  Solving for Uz, Initial residual = 0.0918916, Final residual = 0.000163902, No Iterations 5
linear solve U 5
[OGL LOG] init_host_sparsity_pattern : 4 ms
[OGL LOG] matrix not stored update host matrix
[OGL LOG] update_host_mtx : 2 ms
[OGL LOG] matrix is not yet sorted, sorting host matrix
[OGL LOG] sort_host_mtx_sparsity_pattern : 3 ms
[OGL LOG] sort_host_mtx : 1 ms
[OGL LOG] init_preconditioner : 0 ms
[OGL LOG] solve : 31 ms
noneompGKOBiCGStab:  Solving for p, Initial residual = 0.0351229, Final residual = 8.43127e-05, No Iterations 57
linear solve p 44
time step continuity errors : sum local = 8.14374e-08, global = -8.78321e-21, cumulative = -2.23734e-20
[OGL LOG] init_host_sparsity_pattern : 4 ms
[OGL LOG] matrix not stored update host matrix
[OGL LOG] update_host_mtx : 2 ms
[OGL LOG] matrix is not yet sorted, sorting host matrix
[OGL LOG] sort_host_mtx_sparsity_pattern : 2 ms
[OGL LOG] sort_host_mtx : 1 ms
[OGL LOG] init_preconditioner : 0 ms
[OGL LOG] solve : 26 ms
noneompGKOBiCGStab:  Solving for p, Initial residual = 0.0232822, Final residual = 9.36246e-05, No Iterations 48
linear solve p 39
time step continuity errors : sum local = 1.10742e-07, global = -6.55453e-21, cumulative = -2.89279e-20
ExecutionTime = 11.49 s  ClockTime = 1 s

Time = 0.006

Courant Number mean: 0.0288952 max: 0.193336
nonePBiCGStab:  Solving for Ux, Initial residual = 0.0259544, Final residual = 1.40219e-05, No Iterations 5
nonePBiCGStab:  Solving for Uy, Initial residual = 0.0379968, Final residual = 1.64237e-05, No Iterations 5
nonePBiCGStab:  Solving for Uz, Initial residual = 0.0708297, Final residual = 6.73836e-05, No Iterations 5
linear solve U 5
[OGL LOG] init_host_sparsity_pattern : 4 ms
[OGL LOG] matrix not stored update host matrix
[OGL LOG] update_host_mtx : 2 ms
[OGL LOG] matrix is not yet sorted, sorting host matrix
[OGL LOG] sort_host_mtx_sparsity_pattern : 3 ms
[OGL LOG] sort_host_mtx : 1 ms
[OGL LOG] init_preconditioner : 0 ms
[OGL LOG] solve : 29 ms
noneompGKOBiCGStab:  Solving for p, Initial residual = 0.0245349, Final residual = 8.31127e-05, No Iterations 52
linear solve p 41
time step continuity errors : sum local = 1.33141e-07, global = 3.36981e-20, cumulative = 4.77019e-21
[OGL LOG] init_host_sparsity_pattern : 4 ms
[OGL LOG] matrix not stored update host matrix
[OGL LOG] update_host_mtx : 2 ms
[OGL LOG] matrix is not yet sorted, sorting host matrix
[OGL LOG] sort_host_mtx_sparsity_pattern : 3 ms
[OGL LOG] sort_host_mtx : 1 ms
[OGL LOG] init_preconditioner : 0 ms
[OGL LOG] solve : 27 ms
noneompGKOBiCGStab:  Solving for p, Initial residual = 0.016463, Final residual = 9.23308e-05, No Iterations 48
linear solve p 39
time step continuity errors : sum local = 2.19782e-06, global = -4.24447e-21, cumulative = 5.25724e-22
ExecutionTime = 12.86 s  ClockTime = 1 s

Time = 0.007

Courant Number mean: 0.0308264 max: 0.197896
nonePBiCGStab:  Solving for Ux, Initial residual = 0.0198123, Final residual = 1.11071e-05, No Iterations 5
nonePBiCGStab:  Solving for Uy, Initial residual = 0.0310333, Final residual = 1.18328e-05, No Iterations 5
nonePBiCGStab:  Solving for Uz, Initial residual = 0.0606512, Final residual = 8.45671e-05, No Iterations 5
linear solve U 5
[OGL LOG] init_host_sparsity_pattern : 4 ms
[OGL LOG] matrix not stored update host matrix
[OGL LOG] update_host_mtx : 2 ms
[OGL LOG] matrix is not yet sorted, sorting host matrix
[OGL LOG] sort_host_mtx_sparsity_pattern : 3 ms
[OGL LOG] sort_host_mtx : 1 ms
[OGL LOG] init_preconditioner : 0 ms
[OGL LOG] solve : 30 ms
noneompGKOBiCGStab:  Solving for p, Initial residual = 0.026994, Final residual = 8.03797e-05, No Iterations 54
linear solve p 43
time step continuity errors : sum local = 1.42141e-07, global = 3.80586e-21, cumulative = 4.33158e-21
[OGL LOG] init_host_sparsity_pattern : 4 ms
[OGL LOG] matrix not stored update host matrix
[OGL LOG] update_host_mtx : 2 ms
[OGL LOG] matrix is not yet sorted, sorting host matrix
[OGL LOG] sort_host_mtx_sparsity_pattern : 3 ms
[OGL LOG] sort_host_mtx : 1 ms
[OGL LOG] init_preconditioner : 0 ms
[OGL LOG] solve : 28 ms
noneompGKOBiCGStab:  Solving for p, Initial residual = 0.0183679, Final residual = 9.16709e-05, No Iterations 50
linear solve p 40
time step continuity errors : sum local = 1.13726e-07, global = -2.48961e-21, cumulative = 1.84198e-21
ExecutionTime = 14.27 s  ClockTime = 1 s

Time = 0.008

Courant Number mean: 0.0324756 max: 0.201167
nonePBiCGStab:  Solving for Ux, Initial residual = 0.0167057, Final residual = 6.49025e-06, No Iterations 5
nonePBiCGStab:  Solving for Uy, Initial residual = 0.0243653, Final residual = 7.94585e-06, No Iterations 5
nonePBiCGStab:  Solving for Uz, Initial residual = 0.0484506, Final residual = 4.46898e-05, No Iterations 5
linear solve U 5
[OGL LOG] init_host_sparsity_pattern : 4 ms
[OGL LOG] matrix not stored update host matrix
[OGL LOG] update_host_mtx : 2 ms
[OGL LOG] matrix is not yet sorted, sorting host matrix
[OGL LOG] sort_host_mtx_sparsity_pattern : 3 ms
[OGL LOG] sort_host_mtx : 1 ms
[OGL LOG] init_preconditioner : 0 ms
[OGL LOG] solve : 29 ms
noneompGKOBiCGStab:  Solving for p, Initial residual = 0.0160217, Final residual = 9.84009e-05, No Iterations 52
linear solve p 41
time step continuity errors : sum local = 1.09667e-07, global = 1.21863e-20, cumulative = 1.40283e-20
[OGL LOG] init_host_sparsity_pattern : 4 ms
[OGL LOG] matrix not stored update host matrix
[OGL LOG] update_host_mtx : 2 ms
[OGL LOG] matrix is not yet sorted, sorting host matrix
[OGL LOG] sort_host_mtx_sparsity_pattern : 3 ms
[OGL LOG] sort_host_mtx : 1 ms
[OGL LOG] init_preconditioner : 0 ms
[OGL LOG] solve : 27 ms
noneompGKOBiCGStab:  Solving for p, Initial residual = 0.0108564, Final residual = 9.53739e-05, No Iterations 49
linear solve p 39
time step continuity errors : sum local = 1.01587e-07, global = 9.80917e-21, cumulative = 2.38375e-20
ExecutionTime = 15.63 s  ClockTime = 2 s

Time = 0.009

Courant Number mean: 0.0338803 max: 0.203666
nonePBiCGStab:  Solving for Ux, Initial residual = 0.0137966, Final residual = 3.8074e-06, No Iterations 5
nonePBiCGStab:  Solving for Uy, Initial residual = 0.0207076, Final residual = 4.96183e-06, No Iterations 5
nonePBiCGStab:  Solving for Uz, Initial residual = 0.0411598, Final residual = 3.21443e-05, No Iterations 5
linear solve U 5
[OGL LOG] init_host_sparsity_pattern : 4 ms
[OGL LOG] matrix not stored update host matrix
[OGL LOG] update_host_mtx : 2 ms
[OGL LOG] matrix is not yet sorted, sorting host matrix
[OGL LOG] sort_host_mtx_sparsity_pattern : 3 ms
[OGL LOG] sort_host_mtx : 1 ms
[OGL LOG] init_preconditioner : 0 ms
[OGL LOG] solve : 28 ms
noneompGKOBiCGStab:  Solving for p, Initial residual = 0.0126536, Final residual = 9.2241e-05, No Iterations 51
linear solve p 40
time step continuity errors : sum local = 8.70438e-08, global = -4.42407e-21, cumulative = 1.94134e-20
[OGL LOG] init_host_sparsity_pattern : 4 ms
[OGL LOG] matrix not stored update host matrix
[OGL LOG] update_host_mtx : 2 ms
[OGL LOG] matrix is not yet sorted, sorting host matrix
[OGL LOG] sort_host_mtx_sparsity_pattern : 3 ms
[OGL LOG] sort_host_mtx : 1 ms
[OGL LOG] init_preconditioner : 0 ms
[OGL LOG] solve : 26 ms
noneompGKOBiCGStab:  Solving for p, Initial residual = 0.00871493, Final residual = 9.60166e-05, No Iterations 48
linear solve p 39
time step continuity errors : sum local = 9.97158e-08, global = 2.79277e-20, cumulative = 4.73411e-20
ExecutionTime = 16.98 s  ClockTime = 2 s

Time = 0.01

Courant Number mean: 0.0350916 max: 0.205642
nonePBiCGStab:  Solving for Ux, Initial residual = 0.0117315, Final residual = 2.13814e-06, No Iterations 5
nonePBiCGStab:  Solving for Uy, Initial residual = 0.0177086, Final residual = 2.94763e-06, No Iterations 5
nonePBiCGStab:  Solving for Uz, Initial residual = 0.0356655, Final residual = 1.53351e-05, No Iterations 5
linear solve U 5
[OGL LOG] init_host_sparsity_pattern : 4 ms
[OGL LOG] matrix not stored update host matrix
[OGL LOG] update_host_mtx : 2 ms
[OGL LOG] matrix is not yet sorted, sorting host matrix
[OGL LOG] sort_host_mtx_sparsity_pattern : 3 ms
[OGL LOG] sort_host_mtx : 1 ms
[OGL LOG] init_preconditioner : 0 ms
[OGL LOG] solve : 27 ms
noneompGKOBiCGStab:  Solving for p, Initial residual = 0.0106024, Final residual = 6.1782e-05, No Iterations 49
linear solve p 39
time step continuity errors : sum local = 5.74753e-08, global = -1.57233e-20, cumulative = 3.16178e-20
[OGL LOG] init_host_sparsity_pattern : 4 ms
[OGL LOG] matrix not stored update host matrix
[OGL LOG] update_host_mtx : 2 ms
[OGL LOG] matrix is not yet sorted, sorting host matrix
[OGL LOG] sort_host_mtx_sparsity_pattern : 3 ms
[OGL LOG] sort_host_mtx : 1 ms
[OGL LOG] init_preconditioner : 0 ms
[OGL LOG] solve : 25 ms
noneompGKOBiCGStab:  Solving for p, Initial residual = 0.00731564, Final residual = 9.33537e-05, No Iterations 46
linear solve p 38
time step continuity errors : sum local = 8.14985e-08, global = -3.03773e-20, cumulative = 1.24059e-21
ExecutionTime = 18.29 s  ClockTime = 2 s

End

