/*---------------------------------------------------------------------------*\
  =========                 |
  \\      /  F ield         | OpenFOAM: The Open Source CFD Toolbox
   \\    /   O peration     | Website:  https://openfoam.org
    \\  /    A nd           | Version:  8
     \\/     M anipulation  |
\*---------------------------------------------------------------------------*/
Build  : 8-40a5a48f630f
Exec   : icoFoam
Date   : Jul 27 2021
Time   : 23:04:16
Host   : "uc2n481.localdomain"
PID    : 173168
I/O    : uncollated
Case   : /pfs/data5/home/kit/scc/nq7776/code/OBR/lidDrivenCavity3D/Variation_mesh/85/Variation_matrix_solver/IR_NoPrecond_CUDA/base
nProcs : 1
sigFpe : Enabling floating point exception trapping (FOAM_SIGFPE).
fileModificationChecking : Monitoring run-time modified files using timeStampMaster (fileModificationSkew 10)
allowSystemOperations : Allowing user-supplied system call operations

// * * * * * * * * * * * * * * * * * * * * * * * * * * * * * * * * * * * * * //
Create time

Create mesh for time = 0

Reading transportProperties

Reading field p

Reading field U

Reading/calculating face flux field phi


Starting time loop

Time = 0.001

Courant Number mean: 0 max: 0
nonePBiCGStab:  Solving for Ux, Initial residual = 1, Final residual = 0.0719741, No Iterations 5
nonePBiCGStab:  Solving for Uy, Initial residual = 0, Final residual = 0, No Iterations 0
nonePBiCGStab:  Solving for Uz, Initial residual = 0, Final residual = 0, No Iterations 0
linear solve U 170
[OGL LOG] init_host_sparsity_pattern : 180 ms
[OGL LOG] matrix not stored update host matrix
[OGL LOG] update_host_mtx : 94 ms
[OGL LOG] matrix is not yet sorted, compute sorting idxs
[OGL LOG] compute_sort : 5578 ms
[OGL LOG] matrix is not yet sorted, sorting host matrix
[OGL LOG] sort_host_mtx_sparsity_pattern : 125 ms
[OGL LOG] sort_host_mtx : 72 ms
[OGL LOG] init_preconditioner : 0 ms
[OGL LOG] solve : 283 ms
nonecudaGKOIR:  Solving for p, Initial residual = 1, Final residual = 1.65682e-05, No Iterations 3
linear solve p 7161
time step continuity errors : sum local = 6.988e-09, global = -6.22247e-21, cumulative = -6.22247e-21
[OGL LOG] init_host_sparsity_pattern : 179 ms
[OGL LOG] matrix not stored update host matrix
[OGL LOG] update_host_mtx : 91 ms
[OGL LOG] matrix is not yet sorted, sorting host matrix
[OGL LOG] sort_host_mtx_sparsity_pattern : 129 ms
[OGL LOG] sort_host_mtx : 65 ms
[OGL LOG] init_preconditioner : 0 ms
[OGL LOG] solve : 288 ms
nonecudaGKOIR:  Solving for p, Initial residual = 0.697558, Final residual = 8.33662e-06, No Iterations 3
linear solve p 793
time step continuity errors : sum local = 4.90882e-09, global = -2.67414e-21, cumulative = -8.89661e-21
ExecutionTime = 10.77 s  ClockTime = 11 s

Time = 0.002

Courant Number mean: 0.038884 max: 0.653652
nonePBiCGStab:  Solving for Ux, Initial residual = 0.142238, Final residual = 0.0328614, No Iterations 5
nonePBiCGStab:  Solving for Uy, Initial residual = 0.416105, Final residual = 0.0915733, No Iterations 5
nonePBiCGStab:  Solving for Uz, Initial residual = 0.98524, Final residual = 0.255269, No Iterations 5
linear solve U 352
[OGL LOG] init_host_sparsity_pattern : 174 ms
[OGL LOG] matrix not stored update host matrix
[OGL LOG] update_host_mtx : 92 ms
[OGL LOG] matrix is not yet sorted, sorting host matrix
[OGL LOG] sort_host_mtx_sparsity_pattern : 133 ms
[OGL LOG] sort_host_mtx : 65 ms
[OGL LOG] init_preconditioner : 0 ms
[OGL LOG] solve : 293 ms
nonecudaGKOIR:  Solving for p, Initial residual = 0.748604, Final residual = 4.20719e-06, No Iterations 3
linear solve p 798
time step continuity errors : sum local = 3.77944e-09, global = 1.62544e-20, cumulative = 7.3578e-21
[OGL LOG] init_host_sparsity_pattern : 181 ms
[OGL LOG] matrix not stored update host matrix
[OGL LOG] update_host_mtx : 92 ms
[OGL LOG] matrix is not yet sorted, sorting host matrix
[OGL LOG] sort_host_mtx_sparsity_pattern : 128 ms
[OGL LOG] sort_host_mtx : 64 ms
[OGL LOG] init_preconditioner : 0 ms
[OGL LOG] solve : 293 ms
nonecudaGKOIR:  Solving for p, Initial residual = 0.670909, Final residual = 3.51305e-06, No Iterations 3
linear solve p 800
time step continuity errors : sum local = 3.21665e-09, global = -1.23783e-20, cumulative = -5.02045e-21
ExecutionTime = 13.09 s  ClockTime = 13 s

Time = 0.003

Courant Number mean: 0.061064 max: 0.752672
nonePBiCGStab:  Solving for Ux, Initial residual = 0.0586786, Final residual = 0.0111573, No Iterations 5
nonePBiCGStab:  Solving for Uy, Initial residual = 0.169751, Final residual = 0.0421166, No Iterations 5
nonePBiCGStab:  Solving for Uz, Initial residual = 0.624388, Final residual = 0.150527, No Iterations 5
linear solve U 344
[OGL LOG] init_host_sparsity_pattern : 176 ms
[OGL LOG] matrix not stored update host matrix
[OGL LOG] update_host_mtx : 93 ms
[OGL LOG] matrix is not yet sorted, sorting host matrix
[OGL LOG] sort_host_mtx_sparsity_pattern : 129 ms
[OGL LOG] sort_host_mtx : 64 ms
[OGL LOG] init_preconditioner : 0 ms
[OGL LOG] solve : 271 ms
nonecudaGKOIR:  Solving for p, Initial residual = 0.730323, Final residual = 3.28035e-06, No Iterations 3
linear solve p 775
time step continuity errors : sum local = 2.17728e-09, global = -5.23974e-21, cumulative = -1.02602e-20
[OGL LOG] init_host_sparsity_pattern : 179 ms
[OGL LOG] matrix not stored update host matrix
[OGL LOG] update_host_mtx : 92 ms
[OGL LOG] matrix is not yet sorted, sorting host matrix
[OGL LOG] sort_host_mtx_sparsity_pattern : 129 ms
[OGL LOG] sort_host_mtx : 64 ms
[OGL LOG] init_preconditioner : 0 ms
[OGL LOG] solve : 273 ms
nonecudaGKOIR:  Solving for p, Initial residual = 0.661105, Final residual = 3.12241e-06, No Iterations 3
linear solve p 779
time step continuity errors : sum local = 2.01694e-09, global = -8.32129e-21, cumulative = -1.85815e-20
ExecutionTime = 15.38 s  ClockTime = 16 s

Time = 0.004

Courant Number mean: 0.0733935 max: 0.76873
nonePBiCGStab:  Solving for Ux, Initial residual = 0.03559, Final residual = 0.00668458, No Iterations 5
nonePBiCGStab:  Solving for Uy, Initial residual = 0.117394, Final residual = 0.0285523, No Iterations 5
nonePBiCGStab:  Solving for Uz, Initial residual = 0.380808, Final residual = 0.0806491, No Iterations 5
linear solve U 343
[OGL LOG] init_host_sparsity_pattern : 172 ms
[OGL LOG] matrix not stored update host matrix
[OGL LOG] update_host_mtx : 92 ms
[OGL LOG] matrix is not yet sorted, sorting host matrix
[OGL LOG] sort_host_mtx_sparsity_pattern : 128 ms
[OGL LOG] sort_host_mtx : 64 ms
[OGL LOG] init_preconditioner : 0 ms
[OGL LOG] solve : 309 ms
nonecudaGKOIR:  Solving for p, Initial residual = 0.607698, Final residual = 2.61118e-06, No Iterations 3
linear solve p 809
time step continuity errors : sum local = 1.7018e-09, global = -4.13058e-21, cumulative = -2.27121e-20
[OGL LOG] init_host_sparsity_pattern : 181 ms
[OGL LOG] matrix not stored update host matrix
[OGL LOG] update_host_mtx : 91 ms
[OGL LOG] matrix is not yet sorted, sorting host matrix
[OGL LOG] sort_host_mtx_sparsity_pattern : 128 ms
[OGL LOG] sort_host_mtx : 64 ms
[OGL LOG] init_preconditioner : 0 ms
[OGL LOG] solve : 209 ms
nonecudaGKOIR:  Solving for p, Initial residual = 0.520335, Final residual = 2.07971e-06, No Iterations 3
linear solve p 714
time step continuity errors : sum local = 1.54707e-09, global = -1.62066e-20, cumulative = -3.89187e-20
ExecutionTime = 17.64 s  ClockTime = 18 s

Time = 0.005

Courant Number mean: 0.0835064 max: 0.780763
nonePBiCGStab:  Solving for Ux, Initial residual = 0.0264383, Final residual = 0.00475416, No Iterations 5
nonePBiCGStab:  Solving for Uy, Initial residual = 0.0748595, Final residual = 0.020301, No Iterations 5
nonePBiCGStab:  Solving for Uz, Initial residual = 0.204852, Final residual = 0.0497966, No Iterations 5
linear solve U 342
[OGL LOG] init_host_sparsity_pattern : 173 ms
[OGL LOG] matrix not stored update host matrix
[OGL LOG] update_host_mtx : 93 ms
[OGL LOG] matrix is not yet sorted, sorting host matrix
[OGL LOG] sort_host_mtx_sparsity_pattern : 133 ms
[OGL LOG] sort_host_mtx : 64 ms
[OGL LOG] init_preconditioner : 0 ms
[OGL LOG] solve : 276 ms
nonecudaGKOIR:  Solving for p, Initial residual = 0.628218, Final residual = 2.46298e-06, No Iterations 3
linear solve p 779
time step continuity errors : sum local = 1.38275e-09, global = 1.09772e-20, cumulative = -2.79415e-20
[OGL LOG] init_host_sparsity_pattern : 179 ms
[OGL LOG] matrix not stored update host matrix
[OGL LOG] update_host_mtx : 92 ms
[OGL LOG] matrix is not yet sorted, sorting host matrix
[OGL LOG] sort_host_mtx_sparsity_pattern : 129 ms
[OGL LOG] sort_host_mtx : 64 ms
[OGL LOG] init_preconditioner : 0 ms
[OGL LOG] solve : 278 ms
nonecudaGKOIR:  Solving for p, Initial residual = 0.551794, Final residual = 2.11645e-06, No Iterations 3
linear solve p 784
time step continuity errors : sum local = 1.17244e-09, global = -2.13456e-20, cumulative = -4.92871e-20
ExecutionTime = 19.92 s  ClockTime = 20 s

Time = 0.006

Courant Number mean: 0.0913479 max: 0.787598
nonePBiCGStab:  Solving for Ux, Initial residual = 0.020069, Final residual = 0.0035823, No Iterations 5
nonePBiCGStab:  Solving for Uy, Initial residual = 0.0589174, Final residual = 0.0141987, No Iterations 5
nonePBiCGStab:  Solving for Uz, Initial residual = 0.15989, Final residual = 0.0396433, No Iterations 5
linear solve U 339
[OGL LOG] init_host_sparsity_pattern : 172 ms
[OGL LOG] matrix not stored update host matrix
[OGL LOG] update_host_mtx : 94 ms
[OGL LOG] matrix is not yet sorted, sorting host matrix
[OGL LOG] sort_host_mtx_sparsity_pattern : 128 ms
[OGL LOG] sort_host_mtx : 64 ms
[OGL LOG] init_preconditioner : 0 ms
[OGL LOG] solve : 277 ms
nonecudaGKOIR:  Solving for p, Initial residual = 0.537771, Final residual = 1.93277e-06, No Iterations 3
linear solve p 776
time step continuity errors : sum local = 1.13888e-09, global = -1.78536e-20, cumulative = -6.71408e-20
[OGL LOG] init_host_sparsity_pattern : 183 ms
[OGL LOG] matrix not stored update host matrix
[OGL LOG] update_host_mtx : 95 ms
[OGL LOG] matrix is not yet sorted, sorting host matrix
[OGL LOG] sort_host_mtx_sparsity_pattern : 131 ms
[OGL LOG] sort_host_mtx : 64 ms
[OGL LOG] init_preconditioner : 0 ms
[OGL LOG] solve : 278 ms
nonecudaGKOIR:  Solving for p, Initial residual = 0.459028, Final residual = 1.55349e-06, No Iterations 3
linear solve p 794
time step continuity errors : sum local = 9.24634e-10, global = -2.31912e-21, cumulative = -6.94599e-20
ExecutionTime = 22.2 s  ClockTime = 23 s

Time = 0.007

Courant Number mean: 0.0980397 max: 0.792712
nonePBiCGStab:  Solving for Ux, Initial residual = 0.0164986, Final residual = 0.00281354, No Iterations 5
nonePBiCGStab:  Solving for Uy, Initial residual = 0.0451806, Final residual = 0.0113166, No Iterations 5
nonePBiCGStab:  Solving for Uz, Initial residual = 0.116832, Final residual = 0.0299012, No Iterations 5
linear solve U 342
[OGL LOG] init_host_sparsity_pattern : 173 ms
[OGL LOG] matrix not stored update host matrix
[OGL LOG] update_host_mtx : 93 ms
[OGL LOG] matrix is not yet sorted, sorting host matrix
[OGL LOG] sort_host_mtx_sparsity_pattern : 129 ms
[OGL LOG] sort_host_mtx : 63 ms
[OGL LOG] init_preconditioner : 0 ms
[OGL LOG] solve : 264 ms
nonecudaGKOIR:  Solving for p, Initial residual = 0.56363, Final residual = 1.78181e-06, No Iterations 3
linear solve p 768
time step continuity errors : sum local = 9.47111e-10, global = -1.66151e-20, cumulative = -8.6075e-20
[OGL LOG] init_host_sparsity_pattern : 180 ms
[OGL LOG] matrix not stored update host matrix
[OGL LOG] update_host_mtx : 92 ms
[OGL LOG] matrix is not yet sorted, sorting host matrix
[OGL LOG] sort_host_mtx_sparsity_pattern : 130 ms
[OGL LOG] sort_host_mtx : 64 ms
[OGL LOG] init_preconditioner : 0 ms
[OGL LOG] solve : 260 ms
nonecudaGKOIR:  Solving for p, Initial residual = 0.487228, Final residual = 1.51447e-06, No Iterations 3
linear solve p 768
time step continuity errors : sum local = 8.00459e-10, global = 2.14132e-20, cumulative = -6.46618e-20
ExecutionTime = 24.46 s  ClockTime = 25 s

Time = 0.008

Courant Number mean: 0.103699 max: 0.796501
nonePBiCGStab:  Solving for Ux, Initial residual = 0.0136201, Final residual = 0.00224129, No Iterations 5
nonePBiCGStab:  Solving for Uy, Initial residual = 0.038063, Final residual = 0.00754833, No Iterations 5
nonePBiCGStab:  Solving for Uz, Initial residual = 0.0999746, Final residual = 0.0263284, No Iterations 5
linear solve U 346
[OGL LOG] init_host_sparsity_pattern : 171 ms
[OGL LOG] matrix not stored update host matrix
[OGL LOG] update_host_mtx : 92 ms
[OGL LOG] matrix is not yet sorted, sorting host matrix
[OGL LOG] sort_host_mtx_sparsity_pattern : 130 ms
[OGL LOG] sort_host_mtx : 63 ms
[OGL LOG] init_preconditioner : 0 ms
[OGL LOG] solve : 274 ms
nonecudaGKOIR:  Solving for p, Initial residual = 0.496846, Final residual = 1.32905e-06, No Iterations 3
linear solve p 772
time step continuity errors : sum local = 7.47046e-10, global = -1.95614e-20, cumulative = -8.42232e-20
[OGL LOG] init_host_sparsity_pattern : 179 ms
[OGL LOG] matrix not stored update host matrix
[OGL LOG] update_host_mtx : 92 ms
[OGL LOG] matrix is not yet sorted, sorting host matrix
[OGL LOG] sort_host_mtx_sparsity_pattern : 128 ms
[OGL LOG] sort_host_mtx : 64 ms
[OGL LOG] init_preconditioner : 0 ms
[OGL LOG] solve : 275 ms
nonecudaGKOIR:  Solving for p, Initial residual = 0.423709, Final residual = 1.16509e-06, No Iterations 3
linear solve p 779
time step continuity errors : sum local = 6.5789e-10, global = 8.70723e-21, cumulative = -7.5516e-20
ExecutionTime = 26.74 s  ClockTime = 27 s

Time = 0.009

Courant Number mean: 0.108745 max: 0.799481
nonePBiCGStab:  Solving for Ux, Initial residual = 0.0118483, Final residual = 0.00179167, No Iterations 5
nonePBiCGStab:  Solving for Uy, Initial residual = 0.0313519, Final residual = 0.00665659, No Iterations 5
nonePBiCGStab:  Solving for Uz, Initial residual = 0.0811904, Final residual = 0.0211682, No Iterations 5
linear solve U 339
[OGL LOG] init_host_sparsity_pattern : 175 ms
[OGL LOG] matrix not stored update host matrix
[OGL LOG] update_host_mtx : 92 ms
[OGL LOG] matrix is not yet sorted, sorting host matrix
[OGL LOG] sort_host_mtx_sparsity_pattern : 133 ms
[OGL LOG] sort_host_mtx : 65 ms
[OGL LOG] init_preconditioner : 0 ms
[OGL LOG] solve : 257 ms
nonecudaGKOIR:  Solving for p, Initial residual = 0.514343, Final residual = 1.27552e-06, No Iterations 3
linear solve p 764
time step continuity errors : sum local = 6.59079e-10, global = -7.31869e-22, cumulative = -7.62479e-20
[OGL LOG] init_host_sparsity_pattern : 181 ms
[OGL LOG] matrix not stored update host matrix
[OGL LOG] update_host_mtx : 93 ms
[OGL LOG] matrix is not yet sorted, sorting host matrix
[OGL LOG] sort_host_mtx_sparsity_pattern : 128 ms
[OGL LOG] sort_host_mtx : 64 ms
[OGL LOG] init_preconditioner : 0 ms
[OGL LOG] solve : 271 ms
nonecudaGKOIR:  Solving for p, Initial residual = 0.441735, Final residual = 1.08971e-06, No Iterations 3
linear solve p 778
time step continuity errors : sum local = 5.61185e-10, global = -2.72643e-21, cumulative = -7.89743e-20
ExecutionTime = 28.99 s  ClockTime = 29 s

Time = 0.01

Courant Number mean: 0.11312 max: 0.801924
nonePBiCGStab:  Solving for Ux, Initial residual = 0.0100899, Final residual = 0.00147411, No Iterations 5
nonePBiCGStab:  Solving for Uy, Initial residual = 0.0274601, Final residual = 0.00485442, No Iterations 5
nonePBiCGStab:  Solving for Uz, Initial residual = 0.0726979, Final residual = 0.019699, No Iterations 5
linear solve U 341
[OGL LOG] init_host_sparsity_pattern : 172 ms
[OGL LOG] matrix not stored update host matrix
[OGL LOG] update_host_mtx : 93 ms
[OGL LOG] matrix is not yet sorted, sorting host matrix
[OGL LOG] sort_host_mtx_sparsity_pattern : 129 ms
[OGL LOG] sort_host_mtx : 65 ms
[OGL LOG] init_preconditioner : 0 ms
[OGL LOG] solve : 275 ms
nonecudaGKOIR:  Solving for p, Initial residual = 0.463399, Final residual = 1.07284e-06, No Iterations 3
linear solve p 775
time step continuity errors : sum local = 5.82451e-10, global = 5.85059e-21, cumulative = -7.31237e-20
[OGL LOG] init_host_sparsity_pattern : 179 ms
[OGL LOG] matrix not stored update host matrix
[OGL LOG] update_host_mtx : 99 ms
[OGL LOG] matrix is not yet sorted, sorting host matrix
[OGL LOG] sort_host_mtx_sparsity_pattern : 137 ms
[OGL LOG] sort_host_mtx : 65 ms
[OGL LOG] init_preconditioner : 0 ms
[OGL LOG] solve : 120 ms
nonecudaGKOIR:  Solving for p, Initial residual = 0.396219, Final residual = 9.55007e-05, No Iterations 2
linear solve p 645
time step continuity errors : sum local = 5.28459e-08, global = -2.6728e-21, cumulative = -7.57965e-20
ExecutionTime = 31.14 s  ClockTime = 32 s

End

