/*---------------------------------------------------------------------------*\
  =========                 |
  \\      /  F ield         | OpenFOAM: The Open Source CFD Toolbox
   \\    /   O peration     | Website:  https://openfoam.org
    \\  /    A nd           | Version:  8
     \\/     M anipulation  |
\*---------------------------------------------------------------------------*/
Build  : 8-40a5a48f630f
Exec   : icoFoam
Date   : Jul 28 2021
Time   : 02:26:01
Host   : "uc2n471.localdomain"
PID    : 2459818
I/O    : uncollated
Case   : /pfs/data5/home/kit/scc/nq7776/code/OBR/lidDrivenCavity3D/Variation_mesh/65/Variation_matrix_solver/BiCGStab_BJ_OMP/base
nProcs : 1
sigFpe : Enabling floating point exception trapping (FOAM_SIGFPE).
fileModificationChecking : Monitoring run-time modified files using timeStampMaster (fileModificationSkew 10)
allowSystemOperations : Allowing user-supplied system call operations

// * * * * * * * * * * * * * * * * * * * * * * * * * * * * * * * * * * * * * //
Create time

Create mesh for time = 0

Reading transportProperties

Reading field p

Reading field U

Reading/calculating face flux field phi


Starting time loop

Time = 0.001

Courant Number mean: 0 max: 0
nonePBiCGStab:  Solving for Ux, Initial residual = 1, Final residual = 0.053017, No Iterations 5
nonePBiCGStab:  Solving for Uy, Initial residual = 0, Final residual = 0, No Iterations 0
nonePBiCGStab:  Solving for Uz, Initial residual = 0, Final residual = 0, No Iterations 0
linear solve U 70
[OGL LOG] init_host_sparsity_pattern : 78 ms
[OGL LOG] matrix not stored update host matrix
[OGL LOG] update_host_mtx : 41 ms
[OGL LOG] matrix is not yet sorted, compute sorting idxs
[OGL LOG] compute_sort : 2381 ms
[OGL LOG] matrix is not yet sorted, sorting host matrix
[OGL LOG] sort_host_mtx_sparsity_pattern : 56 ms
[OGL LOG] sort_host_mtx : 34 ms
[OGL LOG] init_preconditioner : 73 ms
[OGL LOG] solve : 14973 ms
BJompGKOBiCGStab:  Solving for p, Initial residual = 1, Final residual = 2.89219e-05, No Iterations 324
linear solve p 17697
time step continuity errors : sum local = 2.18262e-07, global = -5.81746e-21, cumulative = -5.81746e-21
[OGL LOG] init_host_sparsity_pattern : 75 ms
[OGL LOG] matrix not stored update host matrix
[OGL LOG] update_host_mtx : 40 ms
[OGL LOG] matrix is not yet sorted, sorting host matrix
[OGL LOG] sort_host_mtx_sparsity_pattern : 56 ms
[OGL LOG] sort_host_mtx : 27 ms
[OGL LOG] init_preconditioner : 0 ms
[OGL LOG] solve : 14518 ms
BJompGKOBiCGStab:  Solving for p, Initial residual = 0.674743, Final residual = 7.92043e-05, No Iterations 314
linear solve p 14752
time step continuity errors : sum local = 2.83593e-07, global = 6.16903e-21, cumulative = 3.51571e-22
ExecutionTime = 33.62 s  ClockTime = 34 s

Time = 0.002

Courant Number mean: 0.0326856 max: 0.468251
nonePBiCGStab:  Solving for Ux, Initial residual = 0.152102, Final residual = 0.0211741, No Iterations 5
nonePBiCGStab:  Solving for Uy, Initial residual = 0.364769, Final residual = 0.0456941, No Iterations 5
nonePBiCGStab:  Solving for Uz, Initial residual = 0.969608, Final residual = 0.15881, No Iterations 5
linear solve U 140
[OGL LOG] init_host_sparsity_pattern : 72 ms
[OGL LOG] matrix not stored update host matrix
[OGL LOG] update_host_mtx : 37 ms
[OGL LOG] matrix is not yet sorted, sorting host matrix
[OGL LOG] sort_host_mtx_sparsity_pattern : 56 ms
[OGL LOG] sort_host_mtx : 27 ms
[OGL LOG] init_preconditioner : 0 ms
[OGL LOG] solve : 13955 ms
BJompGKOBiCGStab:  Solving for p, Initial residual = 0.656299, Final residual = 9.12115e-05, No Iterations 302
linear solve p 14183
time step continuity errors : sum local = 1.218e-07, global = 6.90592e-22, cumulative = 1.04216e-21
[OGL LOG] init_host_sparsity_pattern : 72 ms
[OGL LOG] matrix not stored update host matrix
[OGL LOG] update_host_mtx : 35 ms
[OGL LOG] matrix is not yet sorted, sorting host matrix
[OGL LOG] sort_host_mtx_sparsity_pattern : 56 ms
[OGL LOG] sort_host_mtx : 27 ms
[OGL LOG] init_preconditioner : 0 ms
[OGL LOG] solve : 13270 ms
BJompGKOBiCGStab:  Solving for p, Initial residual = 0.573889, Final residual = 9.35046e-05, No Iterations 287
linear solve p 13496
time step continuity errors : sum local = 1.60371e-07, global = -1.16159e-20, cumulative = -1.05737e-20
ExecutionTime = 61.53 s  ClockTime = 62 s

Time = 0.003

Courant Number mean: 0.0502417 max: 0.556606
nonePBiCGStab:  Solving for Ux, Initial residual = 0.055108, Final residual = 0.00590155, No Iterations 5
nonePBiCGStab:  Solving for Uy, Initial residual = 0.125971, Final residual = 0.0164475, No Iterations 5
nonePBiCGStab:  Solving for Uz, Initial residual = 0.408073, Final residual = 0.0717086, No Iterations 5
linear solve U 139
[OGL LOG] init_host_sparsity_pattern : 74 ms
[OGL LOG] matrix not stored update host matrix
[OGL LOG] update_host_mtx : 40 ms
[OGL LOG] matrix is not yet sorted, sorting host matrix
[OGL LOG] sort_host_mtx_sparsity_pattern : 56 ms
[OGL LOG] sort_host_mtx : 27 ms
[OGL LOG] init_preconditioner : 0 ms
[OGL LOG] solve : 14327 ms
BJompGKOBiCGStab:  Solving for p, Initial residual = 0.558646, Final residual = 2.12741e-05, No Iterations 310
linear solve p 14560
time step continuity errors : sum local = 9.53831e-08, global = 6.91155e-22, cumulative = -9.88255e-21
[OGL LOG] init_host_sparsity_pattern : 72 ms
[OGL LOG] matrix not stored update host matrix
[OGL LOG] update_host_mtx : 35 ms
[OGL LOG] matrix is not yet sorted, sorting host matrix
[OGL LOG] sort_host_mtx_sparsity_pattern : 59 ms
[OGL LOG] sort_host_mtx : 28 ms
[OGL LOG] init_preconditioner : 0 ms
[OGL LOG] solve : 11241 ms
BJompGKOBiCGStab:  Solving for p, Initial residual = 0.492532, Final residual = 9.75508e-05, No Iterations 243
linear solve p 11469
time step continuity errors : sum local = 4.36228e-06, global = -2.66571e-21, cumulative = -1.25483e-20
ExecutionTime = 87.81 s  ClockTime = 88 s

Time = 0.004

Courant Number mean: 0.0603216 max: 0.575021
nonePBiCGStab:  Solving for Ux, Initial residual = 0.0363246, Final residual = 0.00496381, No Iterations 5
nonePBiCGStab:  Solving for Uy, Initial residual = 0.0844995, Final residual = 0.0121407, No Iterations 5
nonePBiCGStab:  Solving for Uz, Initial residual = 0.480457, Final residual = 0.109982, No Iterations 5
linear solve U 138
[OGL LOG] init_host_sparsity_pattern : 74 ms
[OGL LOG] matrix not stored update host matrix
[OGL LOG] update_host_mtx : 40 ms
[OGL LOG] matrix is not yet sorted, sorting host matrix
[OGL LOG] sort_host_mtx_sparsity_pattern : 56 ms
[OGL LOG] sort_host_mtx : 27 ms
[OGL LOG] init_preconditioner : 0 ms
[OGL LOG] solve : 14687 ms
BJompGKOBiCGStab:  Solving for p, Initial residual = 0.395422, Final residual = 6.02503e-05, No Iterations 318
linear solve p 14921
time step continuity errors : sum local = 3.60826e-08, global = 3.48314e-21, cumulative = -9.06512e-21
[OGL LOG] init_host_sparsity_pattern : 73 ms
[OGL LOG] matrix not stored update host matrix
[OGL LOG] update_host_mtx : 35 ms
[OGL LOG] matrix is not yet sorted, sorting host matrix
[OGL LOG] sort_host_mtx_sparsity_pattern : 56 ms
[OGL LOG] sort_host_mtx : 27 ms
[OGL LOG] init_preconditioner : 0 ms
[OGL LOG] solve : 14099 ms
BJompGKOBiCGStab:  Solving for p, Initial residual = 0.330019, Final residual = 8.99844e-05, No Iterations 305
linear solve p 14326
time step continuity errors : sum local = 6.55273e-08, global = 1.55303e-20, cumulative = 6.46521e-21
ExecutionTime = 117.3 s  ClockTime = 117 s

Time = 0.005

Courant Number mean: 0.0681408 max: 0.585569
nonePBiCGStab:  Solving for Ux, Initial residual = 0.0246143, Final residual = 0.00256493, No Iterations 5
nonePBiCGStab:  Solving for Uy, Initial residual = 0.059094, Final residual = 0.00664075, No Iterations 5
nonePBiCGStab:  Solving for Uz, Initial residual = 0.263737, Final residual = 0.0475568, No Iterations 5
linear solve U 139
[OGL LOG] init_host_sparsity_pattern : 74 ms
[OGL LOG] matrix not stored update host matrix
[OGL LOG] update_host_mtx : 40 ms
[OGL LOG] matrix is not yet sorted, sorting host matrix
[OGL LOG] sort_host_mtx_sparsity_pattern : 56 ms
[OGL LOG] sort_host_mtx : 27 ms
[OGL LOG] init_preconditioner : 0 ms
[OGL LOG] solve : 13277 ms
BJompGKOBiCGStab:  Solving for p, Initial residual = 0.322812, Final residual = 5.44409e-05, No Iterations 287
linear solve p 13510
time step continuity errors : sum local = 1.00599e-07, global = -1.08278e-20, cumulative = -4.36263e-21
[OGL LOG] init_host_sparsity_pattern : 72 ms
[OGL LOG] matrix not stored update host matrix
[OGL LOG] update_host_mtx : 35 ms
[OGL LOG] matrix is not yet sorted, sorting host matrix
[OGL LOG] sort_host_mtx_sparsity_pattern : 55 ms
[OGL LOG] sort_host_mtx : 28 ms
[OGL LOG] init_preconditioner : 0 ms
[OGL LOG] solve : 13155 ms
BJompGKOBiCGStab:  Solving for p, Initial residual = 0.272586, Final residual = 7.94044e-05, No Iterations 285
linear solve p 13380
time step continuity errors : sum local = 4.02311e-08, global = 1.14941e-20, cumulative = 7.13143e-21
ExecutionTime = 144.44 s  ClockTime = 145 s

Time = 0.006

Courant Number mean: 0.0742333 max: 0.591995
nonePBiCGStab:  Solving for Ux, Initial residual = 0.0183996, Final residual = 0.00134155, No Iterations 5
nonePBiCGStab:  Solving for Uy, Initial residual = 0.0415062, Final residual = 0.00258302, No Iterations 5
nonePBiCGStab:  Solving for Uz, Initial residual = 0.136265, Final residual = 0.023004, No Iterations 5
linear solve U 141
[OGL LOG] init_host_sparsity_pattern : 74 ms
[OGL LOG] matrix not stored update host matrix
[OGL LOG] update_host_mtx : 40 ms
[OGL LOG] matrix is not yet sorted, sorting host matrix
[OGL LOG] sort_host_mtx_sparsity_pattern : 56 ms
[OGL LOG] sort_host_mtx : 27 ms
[OGL LOG] init_preconditioner : 0 ms
[OGL LOG] solve : 14878 ms
BJompGKOBiCGStab:  Solving for p, Initial residual = 0.221715, Final residual = 7.3075e-05, No Iterations 322
linear solve p 15111
time step continuity errors : sum local = 5.29657e-08, global = -1.22569e-20, cumulative = -5.12542e-21
[OGL LOG] init_host_sparsity_pattern : 72 ms
[OGL LOG] matrix not stored update host matrix
[OGL LOG] update_host_mtx : 38 ms
[OGL LOG] matrix is not yet sorted, sorting host matrix
[OGL LOG] sort_host_mtx_sparsity_pattern : 55 ms
[OGL LOG] sort_host_mtx : 28 ms
[OGL LOG] init_preconditioner : 0 ms
[OGL LOG] solve : 14307 ms
BJompGKOBiCGStab:  Solving for p, Initial residual = 0.183562, Final residual = 8.72727e-05, No Iterations 310
linear solve p 14535
time step continuity errors : sum local = 7.05582e-08, global = 2.26087e-20, cumulative = 1.74833e-20
ExecutionTime = 174.33 s  ClockTime = 175 s

regIOobject::readIfModified() : 
    Re-reading object controlDict from file "/pfs/data5/home/kit/scc/nq7776/code/OBR/lidDrivenCavity3D/Variation_mesh/65/Variation_matrix_solver/BiCGStab_BJ_OMP/base/system/controlDict"
End

