/*---------------------------------------------------------------------------*\
  =========                 |
  \\      /  F ield         | OpenFOAM: The Open Source CFD Toolbox
   \\    /   O peration     | Website:  https://openfoam.org
    \\  /    A nd           | Version:  8
     \\/     M anipulation  |
\*---------------------------------------------------------------------------*/
Build  : 8-40a5a48f630f
Exec   : icoFoam
Date   : Jul 27 2021
Time   : 22:47:47
Host   : "uc2n481.localdomain"
PID    : 158447
I/O    : uncollated
Case   : /pfs/data5/home/kit/scc/nq7776/code/OBR/lidDrivenCavity3D/Variation_mesh/80/Variation_matrix_solver/CG_BJ_CUDA/base
nProcs : 1
sigFpe : Enabling floating point exception trapping (FOAM_SIGFPE).
fileModificationChecking : Monitoring run-time modified files using timeStampMaster (fileModificationSkew 10)
allowSystemOperations : Allowing user-supplied system call operations

// * * * * * * * * * * * * * * * * * * * * * * * * * * * * * * * * * * * * * //
Create time

Create mesh for time = 0

Reading transportProperties

Reading field p

Reading field U

Reading/calculating face flux field phi


Starting time loop

Time = 0.001

Courant Number mean: 0 max: 0
nonePBiCGStab:  Solving for Ux, Initial residual = 1, Final residual = 0.0679229, No Iterations 5
nonePBiCGStab:  Solving for Uy, Initial residual = 0, Final residual = 0, No Iterations 0
nonePBiCGStab:  Solving for Uz, Initial residual = 0, Final residual = 0, No Iterations 0
linear solve U 144
[OGL LOG] init_host_sparsity_pattern : 151 ms
[OGL LOG] matrix not stored update host matrix
[OGL LOG] update_host_mtx : 76 ms
[OGL LOG] matrix is not yet sorted, compute sorting idxs
[OGL LOG] compute_sort : 4526 ms
[OGL LOG] matrix is not yet sorted, sorting host matrix
[OGL LOG] sort_host_mtx_sparsity_pattern : 105 ms
[OGL LOG] sort_host_mtx : 60 ms
[OGL LOG] init_preconditioner : 55 ms
 CG create  precond 
[OGL LOG] solve : 430 ms
BJcudaGKOCG:  Solving for p, Initial residual = 1, Final residual = 9.73017e-05, No Iterations 511
linear solve p 6220
time step continuity errors : sum local = 4.23324e-08, global = -6.77628e-21, cumulative = -6.77628e-21
[OGL LOG] init_host_sparsity_pattern : 144 ms
[OGL LOG] matrix not stored update host matrix
[OGL LOG] update_host_mtx : 81 ms
[OGL LOG] matrix is not yet sorted, sorting host matrix
[OGL LOG] sort_host_mtx_sparsity_pattern : 110 ms
[OGL LOG] sort_host_mtx : 53 ms
[OGL LOG] init_preconditioner : 0 ms
 CG create  precond 
[OGL LOG] solve : 418 ms
BJcudaGKOCG:  Solving for p, Initial residual = 0.693087, Final residual = 9.40176e-05, No Iterations 505
linear solve p 844
time step continuity errors : sum local = 5.72625e-08, global = -3.58653e-21, cumulative = -1.03628e-20
ExecutionTime = 9.32 s  ClockTime = 9 s

Time = 0.002

Courant Number mean: 0.0375484 max: 0.607434
nonePBiCGStab:  Solving for Ux, Initial residual = 0.144186, Final residual = 0.0301435, No Iterations 5
nonePBiCGStab:  Solving for Uy, Initial residual = 0.403761, Final residual = 0.0791764, No Iterations 5
nonePBiCGStab:  Solving for Uz, Initial residual = 0.984248, Final residual = 0.230874, No Iterations 5
linear solve U 291
[OGL LOG] init_host_sparsity_pattern : 146 ms
[OGL LOG] matrix not stored update host matrix
[OGL LOG] update_host_mtx : 80 ms
[OGL LOG] matrix is not yet sorted, sorting host matrix
[OGL LOG] sort_host_mtx_sparsity_pattern : 107 ms
[OGL LOG] sort_host_mtx : 54 ms
[OGL LOG] init_preconditioner : 0 ms
 CG create  precond 
[OGL LOG] solve : 416 ms
BJcudaGKOCG:  Solving for p, Initial residual = 0.730341, Final residual = 9.78405e-05, No Iterations 503
linear solve p 836
time step continuity errors : sum local = 8.70013e-08, global = -6.81887e-21, cumulative = -1.71817e-20
[OGL LOG] init_host_sparsity_pattern : 146 ms
[OGL LOG] matrix not stored update host matrix
[OGL LOG] update_host_mtx : 77 ms
[OGL LOG] matrix is not yet sorted, sorting host matrix
[OGL LOG] sort_host_mtx_sparsity_pattern : 110 ms
[OGL LOG] sort_host_mtx : 54 ms
[OGL LOG] init_preconditioner : 0 ms
 CG create  precond 
[OGL LOG] solve : 417 ms
BJcudaGKOCG:  Solving for p, Initial residual = 0.651921, Final residual = 8.94879e-05, No Iterations 502
linear solve p 839
time step continuity errors : sum local = 8.11537e-08, global = 2.98627e-21, cumulative = -1.41954e-20
ExecutionTime = 11.6 s  ClockTime = 11 s

Time = 0.003

Courant Number mean: 0.0586298 max: 0.703939
nonePBiCGStab:  Solving for Ux, Initial residual = 0.057644, Final residual = 0.0100371, No Iterations 5
nonePBiCGStab:  Solving for Uy, Initial residual = 0.157469, Final residual = 0.0362548, No Iterations 5
nonePBiCGStab:  Solving for Uz, Initial residual = 0.573716, Final residual = 0.125994, No Iterations 5
linear solve U 296
[OGL LOG] init_host_sparsity_pattern : 150 ms
[OGL LOG] matrix not stored update host matrix
[OGL LOG] update_host_mtx : 77 ms
[OGL LOG] matrix is not yet sorted, sorting host matrix
[OGL LOG] sort_host_mtx_sparsity_pattern : 107 ms
[OGL LOG] sort_host_mtx : 54 ms
[OGL LOG] init_preconditioner : 0 ms
 CG create  precond 
[OGL LOG] solve : 418 ms
BJcudaGKOCG:  Solving for p, Initial residual = 0.699539, Final residual = 9.24747e-05, No Iterations 502
linear solve p 843
time step continuity errors : sum local = 5.92623e-08, global = 1.00962e-20, cumulative = -4.09917e-21
[OGL LOG] init_host_sparsity_pattern : 146 ms
[OGL LOG] matrix not stored update host matrix
[OGL LOG] update_host_mtx : 78 ms
[OGL LOG] matrix is not yet sorted, sorting host matrix
[OGL LOG] sort_host_mtx_sparsity_pattern : 106 ms
[OGL LOG] sort_host_mtx : 53 ms
[OGL LOG] init_preconditioner : 0 ms
 CG create  precond 
[OGL LOG] solve : 414 ms
BJcudaGKOCG:  Solving for p, Initial residual = 0.63118, Final residual = 9.17437e-05, No Iterations 501
linear solve p 832
time step continuity errors : sum local = 5.71604e-08, global = 8.469e-21, cumulative = 4.36984e-21
ExecutionTime = 13.89 s  ClockTime = 14 s

Time = 0.004

Courant Number mean: 0.0703593 max: 0.720481
nonePBiCGStab:  Solving for Ux, Initial residual = 0.0347263, Final residual = 0.00567935, No Iterations 5
nonePBiCGStab:  Solving for Uy, Initial residual = 0.107387, Final residual = 0.0220164, No Iterations 5
nonePBiCGStab:  Solving for Uz, Initial residual = 0.335251, Final residual = 0.0632583, No Iterations 5
linear solve U 293
[OGL LOG] init_host_sparsity_pattern : 148 ms
[OGL LOG] matrix not stored update host matrix
[OGL LOG] update_host_mtx : 77 ms
[OGL LOG] matrix is not yet sorted, sorting host matrix
[OGL LOG] sort_host_mtx_sparsity_pattern : 107 ms
[OGL LOG] sort_host_mtx : 52 ms
[OGL LOG] init_preconditioner : 0 ms
 CG create  precond 
[OGL LOG] solve : 201 ms
BJcudaGKOCG:  Solving for p, Initial residual = 0.55677, Final residual = 9.83077e-05, No Iterations 241
linear solve p 620
time step continuity errors : sum local = 6.21132e-08, global = -8.20398e-21, cumulative = -3.83415e-21
[OGL LOG] init_host_sparsity_pattern : 146 ms
[OGL LOG] matrix not stored update host matrix
[OGL LOG] update_host_mtx : 76 ms
[OGL LOG] matrix is not yet sorted, sorting host matrix
[OGL LOG] sort_host_mtx_sparsity_pattern : 108 ms
[OGL LOG] sort_host_mtx : 54 ms
[OGL LOG] init_preconditioner : 0 ms
 CG create  precond 
[OGL LOG] solve : 202 ms
BJcudaGKOCG:  Solving for p, Initial residual = 0.474273, Final residual = 9.36812e-05, No Iterations 238
linear solve p 622
time step continuity errors : sum local = 5.97434e-08, global = 2.33726e-21, cumulative = -1.49688e-21
ExecutionTime = 15.74 s  ClockTime = 15 s

Time = 0.005

Courant Number mean: 0.08007 max: 0.732219
nonePBiCGStab:  Solving for Ux, Initial residual = 0.0254691, Final residual = 0.00381089, No Iterations 5
nonePBiCGStab:  Solving for Uy, Initial residual = 0.0681742, Final residual = 0.0150351, No Iterations 5
nonePBiCGStab:  Solving for Uz, Initial residual = 0.174887, Final residual = 0.0408391, No Iterations 5
linear solve U 290
[OGL LOG] init_host_sparsity_pattern : 145 ms
[OGL LOG] matrix not stored update host matrix
[OGL LOG] update_host_mtx : 78 ms
[OGL LOG] matrix is not yet sorted, sorting host matrix
[OGL LOG] sort_host_mtx_sparsity_pattern : 115 ms
[OGL LOG] sort_host_mtx : 56 ms
[OGL LOG] init_preconditioner : 0 ms
 CG create  precond 
[OGL LOG] solve : 199 ms
BJcudaGKOCG:  Solving for p, Initial residual = 0.55863, Final residual = 9.284e-05, No Iterations 238
linear solve p 628
time step continuity errors : sum local = 5.79133e-08, global = 6.60565e-21, cumulative = 5.10877e-21
[OGL LOG] init_host_sparsity_pattern : 147 ms
[OGL LOG] matrix not stored update host matrix
[OGL LOG] update_host_mtx : 76 ms
[OGL LOG] matrix is not yet sorted, sorting host matrix
[OGL LOG] sort_host_mtx_sparsity_pattern : 110 ms
[OGL LOG] sort_host_mtx : 53 ms
[OGL LOG] init_preconditioner : 0 ms
 CG create  precond 
[OGL LOG] solve : 197 ms
BJcudaGKOCG:  Solving for p, Initial residual = 0.487233, Final residual = 9.40594e-05, No Iterations 235
linear solve p 618
time step continuity errors : sum local = 5.16664e-08, global = -9.2248e-21, cumulative = -4.11603e-21
ExecutionTime = 17.59 s  ClockTime = 17 s

Time = 0.006

Courant Number mean: 0.0876264 max: 0.739075
nonePBiCGStab:  Solving for Ux, Initial residual = 0.0191306, Final residual = 0.00262816, No Iterations 5
nonePBiCGStab:  Solving for Uy, Initial residual = 0.0527741, Final residual = 0.00970033, No Iterations 5
nonePBiCGStab:  Solving for Uz, Initial residual = 0.139656, Final residual = 0.0308251, No Iterations 5
linear solve U 290
[OGL LOG] init_host_sparsity_pattern : 146 ms
[OGL LOG] matrix not stored update host matrix
[OGL LOG] update_host_mtx : 77 ms
[OGL LOG] matrix is not yet sorted, sorting host matrix
[OGL LOG] sort_host_mtx_sparsity_pattern : 106 ms
[OGL LOG] sort_host_mtx : 53 ms
[OGL LOG] init_preconditioner : 0 ms
 CG create  precond 
[OGL LOG] solve : 198 ms
BJcudaGKOCG:  Solving for p, Initial residual = 0.459934, Final residual = 9.42864e-05, No Iterations 236
linear solve p 613
time step continuity errors : sum local = 5.7742e-08, global = -1.40887e-20, cumulative = -1.82047e-20
[OGL LOG] init_host_sparsity_pattern : 149 ms
[OGL LOG] matrix not stored update host matrix
[OGL LOG] update_host_mtx : 79 ms
[OGL LOG] matrix is not yet sorted, sorting host matrix
[OGL LOG] sort_host_mtx_sparsity_pattern : 108 ms
[OGL LOG] sort_host_mtx : 53 ms
[OGL LOG] init_preconditioner : 0 ms
 CG create  precond 
[OGL LOG] solve : 191 ms
BJcudaGKOCG:  Solving for p, Initial residual = 0.390912, Final residual = 9.79044e-05, No Iterations 228
linear solve p 616
time step continuity errors : sum local = 5.4854e-08, global = 1.33623e-20, cumulative = -4.84241e-21
ExecutionTime = 19.41 s  ClockTime = 19 s

Time = 0.007

Courant Number mean: 0.0940976 max: 0.744014
nonePBiCGStab:  Solving for Ux, Initial residual = 0.0154581, Final residual = 0.00190845, No Iterations 5
nonePBiCGStab:  Solving for Uy, Initial residual = 0.0406323, Final residual = 0.00729314, No Iterations 5
nonePBiCGStab:  Solving for Uz, Initial residual = 0.101117, Final residual = 0.0226109, No Iterations 5
linear solve U 291
[OGL LOG] init_host_sparsity_pattern : 145 ms
[OGL LOG] matrix not stored update host matrix
[OGL LOG] update_host_mtx : 77 ms
[OGL LOG] matrix is not yet sorted, sorting host matrix
[OGL LOG] sort_host_mtx_sparsity_pattern : 106 ms
[OGL LOG] sort_host_mtx : 53 ms
[OGL LOG] init_preconditioner : 0 ms
 CG create  precond 
[OGL LOG] solve : 391 ms
BJcudaGKOCG:  Solving for p, Initial residual = 0.465601, Final residual = 9.9331e-05, No Iterations 470
linear solve p 809
time step continuity errors : sum local = 4.80856e-08, global = 1.65766e-20, cumulative = 1.17342e-20
[OGL LOG] init_host_sparsity_pattern : 145 ms
[OGL LOG] matrix not stored update host matrix
[OGL LOG] update_host_mtx : 78 ms
[OGL LOG] matrix is not yet sorted, sorting host matrix
[OGL LOG] sort_host_mtx_sparsity_pattern : 108 ms
[OGL LOG] sort_host_mtx : 54 ms
[OGL LOG] init_preconditioner : 0 ms
 CG create  precond 
[OGL LOG] solve : 389 ms
BJcudaGKOCG:  Solving for p, Initial residual = 0.400567, Final residual = 9.31133e-05, No Iterations 470
linear solve p 808
time step continuity errors : sum local = 4.48212e-08, global = -6.48013e-21, cumulative = 5.25407e-21
ExecutionTime = 21.64 s  ClockTime = 21 s

Time = 0.008

Courant Number mean: 0.0995637 max: 0.747797
nonePBiCGStab:  Solving for Ux, Initial residual = 0.0126255, Final residual = 0.00143677, No Iterations 5
nonePBiCGStab:  Solving for Uy, Initial residual = 0.0333618, Final residual = 0.00460132, No Iterations 5
nonePBiCGStab:  Solving for Uz, Initial residual = 0.0860167, Final residual = 0.0192394, No Iterations 5
linear solve U 292
[OGL LOG] init_host_sparsity_pattern : 147 ms
[OGL LOG] matrix not stored update host matrix
[OGL LOG] update_host_mtx : 77 ms
[OGL LOG] matrix is not yet sorted, sorting host matrix
[OGL LOG] sort_host_mtx_sparsity_pattern : 107 ms
[OGL LOG] sort_host_mtx : 52 ms
[OGL LOG] init_preconditioner : 0 ms
 CG create  precond 
[OGL LOG] solve : 189 ms
BJcudaGKOCG:  Solving for p, Initial residual = 0.394775, Final residual = 9.53725e-05, No Iterations 225
linear solve p 606
time step continuity errors : sum local = 5.49394e-08, global = -3.49417e-20, cumulative = -2.96876e-20
[OGL LOG] init_host_sparsity_pattern : 146 ms
[OGL LOG] matrix not stored update host matrix
[OGL LOG] update_host_mtx : 83 ms
[OGL LOG] matrix is not yet sorted, sorting host matrix
[OGL LOG] sort_host_mtx_sparsity_pattern : 107 ms
[OGL LOG] sort_host_mtx : 52 ms
[OGL LOG] init_preconditioner : 0 ms
 CG create  precond 
[OGL LOG] solve : 186 ms
BJcudaGKOCG:  Solving for p, Initial residual = 0.33592, Final residual = 9.60031e-05, No Iterations 222
linear solve p 608
time step continuity errors : sum local = 5.11365e-08, global = -1.99592e-20, cumulative = -4.96467e-20
ExecutionTime = 23.45 s  ClockTime = 23 s

Time = 0.009

Courant Number mean: 0.104377 max: 0.750643
nonePBiCGStab:  Solving for Ux, Initial residual = 0.0107141, Final residual = 0.00111379, No Iterations 5
nonePBiCGStab:  Solving for Uy, Initial residual = 0.0276022, Final residual = 0.00391244, No Iterations 5
nonePBiCGStab:  Solving for Uz, Initial residual = 0.0691558, Final residual = 0.0146482, No Iterations 5
linear solve U 290
[OGL LOG] init_host_sparsity_pattern : 149 ms
[OGL LOG] matrix not stored update host matrix
[OGL LOG] update_host_mtx : 79 ms
[OGL LOG] matrix is not yet sorted, sorting host matrix
[OGL LOG] sort_host_mtx_sparsity_pattern : 110 ms
[OGL LOG] sort_host_mtx : 53 ms
[OGL LOG] init_preconditioner : 0 ms
 CG create  precond 
[OGL LOG] solve : 359 ms
BJcudaGKOCG:  Solving for p, Initial residual = 0.390172, Final residual = 9.66574e-05, No Iterations 433
linear solve p 787
time step continuity errors : sum local = 4.49725e-08, global = 5.8637e-21, cumulative = -4.3783e-20
[OGL LOG] init_host_sparsity_pattern : 146 ms
[OGL LOG] matrix not stored update host matrix
[OGL LOG] update_host_mtx : 77 ms
[OGL LOG] matrix is not yet sorted, sorting host matrix
[OGL LOG] sort_host_mtx_sparsity_pattern : 107 ms
[OGL LOG] sort_host_mtx : 53 ms
[OGL LOG] init_preconditioner : 0 ms
 CG create  precond 
[OGL LOG] solve : 358 ms
BJcudaGKOCG:  Solving for p, Initial residual = 0.33385, Final residual = 9.97222e-05, No Iterations 432
linear solve p 777
time step continuity errors : sum local = 4.62896e-08, global = -1.32765e-20, cumulative = -5.70596e-20
ExecutionTime = 25.62 s  ClockTime = 25 s

Time = 0.01

Courant Number mean: 0.108569 max: 0.753044
nonePBiCGStab:  Solving for Ux, Initial residual = 0.00906958, Final residual = 0.000867295, No Iterations 5
nonePBiCGStab:  Solving for Uy, Initial residual = 0.0235911, Final residual = 0.00258999, No Iterations 5
nonePBiCGStab:  Solving for Uz, Initial residual = 0.0608262, Final residual = 0.0135014, No Iterations 5
linear solve U 295
[OGL LOG] init_host_sparsity_pattern : 146 ms
[OGL LOG] matrix not stored update host matrix
[OGL LOG] update_host_mtx : 76 ms
[OGL LOG] matrix is not yet sorted, sorting host matrix
[OGL LOG] sort_host_mtx_sparsity_pattern : 107 ms
[OGL LOG] sort_host_mtx : 53 ms
[OGL LOG] init_preconditioner : 0 ms
 CG create  precond 
[OGL LOG] solve : 182 ms
BJcudaGKOCG:  Solving for p, Initial residual = 0.338889, Final residual = 9.82999e-05, No Iterations 218
linear solve p 598
time step continuity errors : sum local = 5.28916e-08, global = -9.59085e-21, cumulative = -6.66504e-20
[OGL LOG] init_host_sparsity_pattern : 146 ms
[OGL LOG] matrix not stored update host matrix
[OGL LOG] update_host_mtx : 77 ms
[OGL LOG] matrix is not yet sorted, sorting host matrix
[OGL LOG] sort_host_mtx_sparsity_pattern : 108 ms
[OGL LOG] sort_host_mtx : 53 ms
[OGL LOG] init_preconditioner : 0 ms
 CG create  precond 
[OGL LOG] solve : 179 ms
BJcudaGKOCG:  Solving for p, Initial residual = 0.289018, Final residual = 9.89475e-05, No Iterations 214
linear solve p 598
time step continuity errors : sum local = 4.92971e-08, global = 8.91628e-21, cumulative = -5.77341e-20
ExecutionTime = 27.42 s  ClockTime = 27 s

End

