/*---------------------------------------------------------------------------*\
  =========                 |
  \\      /  F ield         | OpenFOAM: The Open Source CFD Toolbox
   \\    /   O peration     | Website:  https://openfoam.org
    \\  /    A nd           | Version:  8
     \\/     M anipulation  |
\*---------------------------------------------------------------------------*/
Build  : 8-40a5a48f630f
Exec   : icoFoam
Date   : Jul 28 2021
Time   : 02:13:55
Host   : "uc2n471.localdomain"
PID    : 2459116
I/O    : uncollated
Case   : /pfs/data5/home/kit/scc/nq7776/code/OBR/lidDrivenCavity3D/Variation_mesh/65/Variation_matrix_solver/CG_NoPrecond_OMP/base
nProcs : 1
sigFpe : Enabling floating point exception trapping (FOAM_SIGFPE).
fileModificationChecking : Monitoring run-time modified files using timeStampMaster (fileModificationSkew 10)
allowSystemOperations : Allowing user-supplied system call operations

// * * * * * * * * * * * * * * * * * * * * * * * * * * * * * * * * * * * * * //
Create time

Create mesh for time = 0

Reading transportProperties

Reading field p

Reading field U

Reading/calculating face flux field phi


Starting time loop

Time = 0.001

Courant Number mean: 0 max: 0
nonePBiCGStab:  Solving for Ux, Initial residual = 1, Final residual = 0.053017, No Iterations 5
nonePBiCGStab:  Solving for Uy, Initial residual = 0, Final residual = 0, No Iterations 0
nonePBiCGStab:  Solving for Uz, Initial residual = 0, Final residual = 0, No Iterations 0
linear solve U 70
[OGL LOG] init_host_sparsity_pattern : 78 ms
[OGL LOG] matrix not stored update host matrix
[OGL LOG] update_host_mtx : 40 ms
[OGL LOG] matrix is not yet sorted, compute sorting idxs
[OGL LOG] compute_sort : 2385 ms
[OGL LOG] matrix is not yet sorted, sorting host matrix
[OGL LOG] sort_host_mtx_sparsity_pattern : 56 ms
[OGL LOG] sort_host_mtx : 34 ms
[OGL LOG] init_preconditioner : 0 ms
[OGL LOG] solve : 3885 ms
noneompGKOCG:  Solving for p, Initial residual = 1, Final residual = 9.51647e-05, No Iterations 510
linear solve p 6539
time step continuity errors : sum local = 4.57958e-08, global = -4.77344e-21, cumulative = -4.77344e-21
[OGL LOG] init_host_sparsity_pattern : 75 ms
[OGL LOG] matrix not stored update host matrix
[OGL LOG] update_host_mtx : 40 ms
[OGL LOG] matrix is not yet sorted, sorting host matrix
[OGL LOG] sort_host_mtx_sparsity_pattern : 56 ms
[OGL LOG] sort_host_mtx : 27 ms
[OGL LOG] init_preconditioner : 0 ms
[OGL LOG] solve : 3851 ms
noneompGKOCG:  Solving for p, Initial residual = 0.674187, Final residual = 9.9797e-05, No Iterations 503
linear solve p 4085
time step continuity errors : sum local = 6.81762e-08, global = -1.95279e-21, cumulative = -6.72623e-21
ExecutionTime = 11.84 s  ClockTime = 11 s

Time = 0.002

Courant Number mean: 0.0326827 max: 0.468252
nonePBiCGStab:  Solving for Ux, Initial residual = 0.151756, Final residual = 0.0210783, No Iterations 5
nonePBiCGStab:  Solving for Uy, Initial residual = 0.364889, Final residual = 0.0451023, No Iterations 5
nonePBiCGStab:  Solving for Uz, Initial residual = 0.979949, Final residual = 0.154118, No Iterations 5
linear solve U 137
[OGL LOG] init_host_sparsity_pattern : 72 ms
[OGL LOG] matrix not stored update host matrix
[OGL LOG] update_host_mtx : 38 ms
[OGL LOG] matrix is not yet sorted, sorting host matrix
[OGL LOG] sort_host_mtx_sparsity_pattern : 56 ms
[OGL LOG] sort_host_mtx : 27 ms
[OGL LOG] init_preconditioner : 0 ms
[OGL LOG] solve : 3798 ms
noneompGKOCG:  Solving for p, Initial residual = 0.656711, Final residual = 9.96987e-05, No Iterations 499
linear solve p 4028
time step continuity errors : sum local = 8.47761e-08, global = -5.53658e-21, cumulative = -1.22628e-20
[OGL LOG] init_host_sparsity_pattern : 78 ms
[OGL LOG] matrix not stored update host matrix
[OGL LOG] update_host_mtx : 40 ms
[OGL LOG] matrix is not yet sorted, sorting host matrix
[OGL LOG] sort_host_mtx_sparsity_pattern : 56 ms
[OGL LOG] sort_host_mtx : 27 ms
[OGL LOG] init_preconditioner : 0 ms
[OGL LOG] solve : 3796 ms
noneompGKOCG:  Solving for p, Initial residual = 0.574986, Final residual = 8.86738e-05, No Iterations 498
linear solve p 4035
time step continuity errors : sum local = 7.72293e-08, global = -8.38588e-21, cumulative = -2.06487e-20
ExecutionTime = 20.17 s  ClockTime = 20 s

Time = 0.003

Courant Number mean: 0.0502554 max: 0.556611
nonePBiCGStab:  Solving for Ux, Initial residual = 0.0551707, Final residual = 0.00592584, No Iterations 5
nonePBiCGStab:  Solving for Uy, Initial residual = 0.124792, Final residual = 0.0163171, No Iterations 5
nonePBiCGStab:  Solving for Uz, Initial residual = 0.342257, Final residual = 0.0517398, No Iterations 5
linear solve U 140
[OGL LOG] init_host_sparsity_pattern : 72 ms
[OGL LOG] matrix not stored update host matrix
[OGL LOG] update_host_mtx : 40 ms
[OGL LOG] matrix is not yet sorted, sorting host matrix
[OGL LOG] sort_host_mtx_sparsity_pattern : 56 ms
[OGL LOG] sort_host_mtx : 27 ms
[OGL LOG] init_preconditioner : 0 ms
[OGL LOG] solve : 3755 ms
noneompGKOCG:  Solving for p, Initial residual = 0.556896, Final residual = 9.8395e-05, No Iterations 493
linear solve p 3987
time step continuity errors : sum local = 5.66879e-08, global = -2.25017e-21, cumulative = -2.28989e-20
[OGL LOG] init_host_sparsity_pattern : 72 ms
[OGL LOG] matrix not stored update host matrix
[OGL LOG] update_host_mtx : 40 ms
[OGL LOG] matrix is not yet sorted, sorting host matrix
[OGL LOG] sort_host_mtx_sparsity_pattern : 56 ms
[OGL LOG] sort_host_mtx : 27 ms
[OGL LOG] init_preconditioner : 0 ms
[OGL LOG] solve : 3750 ms
noneompGKOCG:  Solving for p, Initial residual = 0.491439, Final residual = 9.72422e-05, No Iterations 492
linear solve p 3982
time step continuity errors : sum local = 5.43998e-08, global = -8.99157e-21, cumulative = -3.18904e-20
ExecutionTime = 28.41 s  ClockTime = 28 s

Time = 0.004

Courant Number mean: 0.0602927 max: 0.575008
nonePBiCGStab:  Solving for Ux, Initial residual = 0.0331619, Final residual = 0.00304836, No Iterations 5
nonePBiCGStab:  Solving for Uy, Initial residual = 0.0805128, Final residual = 0.00691233, No Iterations 5
nonePBiCGStab:  Solving for Uz, Initial residual = 0.204146, Final residual = 0.0243135, No Iterations 5
linear solve U 137
[OGL LOG] init_host_sparsity_pattern : 73 ms
[OGL LOG] matrix not stored update host matrix
[OGL LOG] update_host_mtx : 43 ms
[OGL LOG] matrix is not yet sorted, sorting host matrix
[OGL LOG] sort_host_mtx_sparsity_pattern : 56 ms
[OGL LOG] sort_host_mtx : 27 ms
[OGL LOG] init_preconditioner : 0 ms
[OGL LOG] solve : 1820 ms
noneompGKOCG:  Solving for p, Initial residual = 0.352227, Final residual = 9.98818e-05, No Iterations 239
linear solve p 2055
time step continuity errors : sum local = 6.1886e-08, global = -1.38917e-20, cumulative = -4.57821e-20
[OGL LOG] init_host_sparsity_pattern : 72 ms
[OGL LOG] matrix not stored update host matrix
[OGL LOG] update_host_mtx : 38 ms
[OGL LOG] matrix is not yet sorted, sorting host matrix
[OGL LOG] sort_host_mtx_sparsity_pattern : 59 ms
[OGL LOG] sort_host_mtx : 27 ms
[OGL LOG] init_preconditioner : 0 ms
[OGL LOG] solve : 1800 ms
noneompGKOCG:  Solving for p, Initial residual = 0.291674, Final residual = 9.53557e-05, No Iterations 236
linear solve p 2032
time step continuity errors : sum local = 5.53639e-08, global = 1.31583e-20, cumulative = -3.26238e-20
ExecutionTime = 32.78 s  ClockTime = 32 s

Time = 0.005

Courant Number mean: 0.0682799 max: 0.585617
nonePBiCGStab:  Solving for Ux, Initial residual = 0.0235497, Final residual = 0.00193592, No Iterations 5
nonePBiCGStab:  Solving for Uy, Initial residual = 0.0529868, Final residual = 0.00378499, No Iterations 5
nonePBiCGStab:  Solving for Uz, Initial residual = 0.105308, Final residual = 0.0122169, No Iterations 5
linear solve U 140
[OGL LOG] init_host_sparsity_pattern : 72 ms
[OGL LOG] matrix not stored update host matrix
[OGL LOG] update_host_mtx : 41 ms
[OGL LOG] matrix is not yet sorted, sorting host matrix
[OGL LOG] sort_host_mtx_sparsity_pattern : 56 ms
[OGL LOG] sort_host_mtx : 27 ms
[OGL LOG] init_preconditioner : 0 ms
[OGL LOG] solve : 1733 ms
noneompGKOCG:  Solving for p, Initial residual = 0.271316, Final residual = 9.74255e-05, No Iterations 227
linear solve p 1965
time step continuity errors : sum local = 4.7741e-08, global = -8.32193e-21, cumulative = -4.09457e-20
[OGL LOG] init_host_sparsity_pattern : 72 ms
[OGL LOG] matrix not stored update host matrix
[OGL LOG] update_host_mtx : 42 ms
[OGL LOG] matrix is not yet sorted, sorting host matrix
[OGL LOG] sort_host_mtx_sparsity_pattern : 56 ms
[OGL LOG] sort_host_mtx : 28 ms
[OGL LOG] init_preconditioner : 0 ms
[OGL LOG] solve : 1719 ms
noneompGKOCG:  Solving for p, Initial residual = 0.230529, Final residual = 9.78597e-05, No Iterations 225
linear solve p 1954
time step continuity errors : sum local = 4.75023e-08, global = 1.34391e-20, cumulative = -2.75066e-20
ExecutionTime = 36.99 s  ClockTime = 37 s

Time = 0.006

Courant Number mean: 0.0745601 max: 0.592192
nonePBiCGStab:  Solving for Ux, Initial residual = 0.0176777, Final residual = 0.001107, No Iterations 5
nonePBiCGStab:  Solving for Uy, Initial residual = 0.0396037, Final residual = 0.00184101, No Iterations 5
nonePBiCGStab:  Solving for Uz, Initial residual = 0.0847542, Final residual = 0.0088882, No Iterations 5
linear solve U 137
[OGL LOG] init_host_sparsity_pattern : 73 ms
[OGL LOG] matrix not stored update host matrix
[OGL LOG] update_host_mtx : 43 ms
[OGL LOG] matrix is not yet sorted, sorting host matrix
[OGL LOG] sort_host_mtx_sparsity_pattern : 56 ms
[OGL LOG] sort_host_mtx : 27 ms
[OGL LOG] init_preconditioner : 0 ms
[OGL LOG] solve : 1719 ms
noneompGKOCG:  Solving for p, Initial residual = 0.175809, Final residual = 9.01697e-05, No Iterations 225
linear solve p 1953
time step continuity errors : sum local = 5.07803e-08, global = -1.53124e-21, cumulative = -2.90379e-20
[OGL LOG] init_host_sparsity_pattern : 72 ms
[OGL LOG] matrix not stored update host matrix
[OGL LOG] update_host_mtx : 37 ms
[OGL LOG] matrix is not yet sorted, sorting host matrix
[OGL LOG] sort_host_mtx_sparsity_pattern : 56 ms
[OGL LOG] sort_host_mtx : 27 ms
[OGL LOG] init_preconditioner : 0 ms
[OGL LOG] solve : 1692 ms
noneompGKOCG:  Solving for p, Initial residual = 0.145788, Final residual = 9.64208e-05, No Iterations 222
linear solve p 1924
time step continuity errors : sum local = 4.9553e-08, global = 3.16096e-20, cumulative = 2.57167e-21
ExecutionTime = 41.15 s  ClockTime = 41 s

Time = 0.007

Courant Number mean: 0.0797731 max: 0.596671
nonePBiCGStab:  Solving for Ux, Initial residual = 0.013948, Final residual = 0.000743761, No Iterations 5
nonePBiCGStab:  Solving for Uy, Initial residual = 0.0312508, Final residual = 0.0014114, No Iterations 5
nonePBiCGStab:  Solving for Uz, Initial residual = 0.0641655, Final residual = 0.0044988, No Iterations 5
linear solve U 140
[OGL LOG] init_host_sparsity_pattern : 72 ms
[OGL LOG] matrix not stored update host matrix
[OGL LOG] update_host_mtx : 40 ms
[OGL LOG] matrix is not yet sorted, sorting host matrix
[OGL LOG] sort_host_mtx_sparsity_pattern : 56 ms
[OGL LOG] sort_host_mtx : 30 ms
[OGL LOG] init_preconditioner : 0 ms
[OGL LOG] solve : 1640 ms
noneompGKOCG:  Solving for p, Initial residual = 0.127914, Final residual = 9.56571e-05, No Iterations 215
linear solve p 1874
time step continuity errors : sum local = 4.31267e-08, global = 6.90761e-21, cumulative = 9.47929e-21
[OGL LOG] init_host_sparsity_pattern : 72 ms
[OGL LOG] matrix not stored update host matrix
[OGL LOG] update_host_mtx : 40 ms
[OGL LOG] matrix is not yet sorted, sorting host matrix
[OGL LOG] sort_host_mtx_sparsity_pattern : 56 ms
[OGL LOG] sort_host_mtx : 27 ms
[OGL LOG] init_preconditioner : 0 ms
[OGL LOG] solve : 1629 ms
noneompGKOCG:  Solving for p, Initial residual = 0.107269, Final residual = 9.76025e-05, No Iterations 213
linear solve p 1860
time step continuity errors : sum local = 4.56366e-08, global = -9.7729e-21, cumulative = -2.93613e-22
ExecutionTime = 45.17 s  ClockTime = 45 s

Time = 0.008

Courant Number mean: 0.084144 max: 0.600054
nonePBiCGStab:  Solving for Ux, Initial residual = 0.0113974, Final residual = 0.000498271, No Iterations 5
nonePBiCGStab:  Solving for Uy, Initial residual = 0.0252535, Final residual = 0.000814956, No Iterations 5
nonePBiCGStab:  Solving for Uz, Initial residual = 0.0531053, Final residual = 0.00391348, No Iterations 5
linear solve U 137
[OGL LOG] init_host_sparsity_pattern : 72 ms
[OGL LOG] matrix not stored update host matrix
[OGL LOG] update_host_mtx : 40 ms
[OGL LOG] matrix is not yet sorted, sorting host matrix
[OGL LOG] sort_host_mtx_sparsity_pattern : 56 ms
[OGL LOG] sort_host_mtx : 27 ms
[OGL LOG] init_preconditioner : 0 ms
[OGL LOG] solve : 3428 ms
noneompGKOCG:  Solving for p, Initial residual = 0.0860646, Final residual = 9.88033e-05, No Iterations 448
linear solve p 3659
time step continuity errors : sum local = 4.3308e-08, global = -2.02661e-20, cumulative = -2.05597e-20
[OGL LOG] init_host_sparsity_pattern : 72 ms
[OGL LOG] matrix not stored update host matrix
[OGL LOG] update_host_mtx : 38 ms
[OGL LOG] matrix is not yet sorted, sorting host matrix
[OGL LOG] sort_host_mtx_sparsity_pattern : 56 ms
[OGL LOG] sort_host_mtx : 27 ms
[OGL LOG] init_preconditioner : 0 ms
[OGL LOG] solve : 1647 ms
noneompGKOCG:  Solving for p, Initial residual = 0.071854, Final residual = 9.71061e-05, No Iterations 216
linear solve p 1877
time step continuity errors : sum local = 5.05425e-08, global = 6.66604e-22, cumulative = -1.98931e-20
ExecutionTime = 50.99 s  ClockTime = 51 s

Time = 0.009

Courant Number mean: 0.0878974 max: 0.602634
nonePBiCGStab:  Solving for Ux, Initial residual = 0.00949925, Final residual = 0.000425604, No Iterations 5
nonePBiCGStab:  Solving for Uy, Initial residual = 0.0212983, Final residual = 0.000652955, No Iterations 5
nonePBiCGStab:  Solving for Uz, Initial residual = 0.0451081, Final residual = 0.00253887, No Iterations 5
linear solve U 140
[OGL LOG] init_host_sparsity_pattern : 72 ms
[OGL LOG] matrix not stored update host matrix
[OGL LOG] update_host_mtx : 40 ms
[OGL LOG] matrix is not yet sorted, sorting host matrix
[OGL LOG] sort_host_mtx_sparsity_pattern : 56 ms
[OGL LOG] sort_host_mtx : 27 ms
[OGL LOG] init_preconditioner : 0 ms
[OGL LOG] solve : 3428 ms
noneompGKOCG:  Solving for p, Initial residual = 0.0622753, Final residual = 9.47409e-05, No Iterations 450
linear solve p 3659
time step continuity errors : sum local = 4.0891e-08, global = 7.48983e-21, cumulative = -1.24033e-20
[OGL LOG] init_host_sparsity_pattern : 72 ms
[OGL LOG] matrix not stored update host matrix
[OGL LOG] update_host_mtx : 40 ms
[OGL LOG] matrix is not yet sorted, sorting host matrix
[OGL LOG] sort_host_mtx_sparsity_pattern : 56 ms
[OGL LOG] sort_host_mtx : 27 ms
[OGL LOG] init_preconditioner : 0 ms
[OGL LOG] solve : 3419 ms
noneompGKOCG:  Solving for p, Initial residual = 0.0525451, Final residual = 9.86586e-05, No Iterations 448
linear solve p 3651
time step continuity errors : sum local = 4.26014e-08, global = -1.6199e-20, cumulative = -2.86023e-20
ExecutionTime = 58.58 s  ClockTime = 58 s

Time = 0.01

Courant Number mean: 0.0911617 max: 0.604745
nonePBiCGStab:  Solving for Ux, Initial residual = 0.0080956, Final residual = 0.000301679, No Iterations 5
nonePBiCGStab:  Solving for Uy, Initial residual = 0.0180122, Final residual = 0.000470322, No Iterations 5
nonePBiCGStab:  Solving for Uz, Initial residual = 0.0389296, Final residual = 0.00235255, No Iterations 5
linear solve U 138
[OGL LOG] init_host_sparsity_pattern : 72 ms
[OGL LOG] matrix not stored update host matrix
[OGL LOG] update_host_mtx : 40 ms
[OGL LOG] matrix is not yet sorted, sorting host matrix
[OGL LOG] sort_host_mtx_sparsity_pattern : 56 ms
[OGL LOG] sort_host_mtx : 27 ms
[OGL LOG] init_preconditioner : 0 ms
[OGL LOG] solve : 3405 ms
noneompGKOCG:  Solving for p, Initial residual = 0.0439473, Final residual = 9.60777e-05, No Iterations 446
linear solve p 3636
time step continuity errors : sum local = 4.1101e-08, global = -1.73828e-20, cumulative = -4.59852e-20
[OGL LOG] init_host_sparsity_pattern : 73 ms
[OGL LOG] matrix not stored update host matrix
[OGL LOG] update_host_mtx : 37 ms
[OGL LOG] matrix is not yet sorted, sorting host matrix
[OGL LOG] sort_host_mtx_sparsity_pattern : 56 ms
[OGL LOG] sort_host_mtx : 27 ms
[OGL LOG] init_preconditioner : 0 ms
[OGL LOG] solve : 1590 ms
noneompGKOCG:  Solving for p, Initial residual = 0.0372168, Final residual = 9.8782e-05, No Iterations 208
linear solve p 1820
time step continuity errors : sum local = 5.03591e-08, global = -5.54596e-21, cumulative = -5.15311e-20
ExecutionTime = 64.31 s  ClockTime = 64 s

End

