/*---------------------------------------------------------------------------*\
  =========                 |
  \\      /  F ield         | OpenFOAM: The Open Source CFD Toolbox
   \\    /   O peration     | Website:  https://openfoam.org
    \\  /    A nd           | Version:  8
     \\/     M anipulation  |
\*---------------------------------------------------------------------------*/
Build  : 8-40a5a48f630f
Exec   : icoFoam
Date   : Jul 27 2021
Time   : 23:19:02
Host   : "uc2n481.localdomain"
PID    : 187207
I/O    : uncollated
Case   : /pfs/data5/home/kit/scc/nq7776/code/OBR/lidDrivenCavity3D/Variation_mesh/20/Variation_matrix_solver/IR_NoPrecond_CUDA/base
nProcs : 1
sigFpe : Enabling floating point exception trapping (FOAM_SIGFPE).
fileModificationChecking : Monitoring run-time modified files using timeStampMaster (fileModificationSkew 10)
allowSystemOperations : Allowing user-supplied system call operations

// * * * * * * * * * * * * * * * * * * * * * * * * * * * * * * * * * * * * * //
Create time

Create mesh for time = 0

Reading transportProperties

Reading field p

Reading field U

Reading/calculating face flux field phi


Starting time loop

Time = 0.001

Courant Number mean: 0 max: 0
nonePBiCGStab:  Solving for Ux, Initial residual = 1, Final residual = 0.000780533, No Iterations 5
nonePBiCGStab:  Solving for Uy, Initial residual = 0, Final residual = 0, No Iterations 0
nonePBiCGStab:  Solving for Uz, Initial residual = 0, Final residual = 0, No Iterations 0
linear solve U 1
[OGL LOG] init_host_sparsity_pattern : 2 ms
[OGL LOG] matrix not stored update host matrix
[OGL LOG] update_host_mtx : 1 ms
[OGL LOG] matrix is not yet sorted, compute sorting idxs
[OGL LOG] compute_sort : 51 ms
[OGL LOG] matrix is not yet sorted, sorting host matrix
[OGL LOG] sort_host_mtx_sparsity_pattern : 1 ms
[OGL LOG] sort_host_mtx : 0 ms
[OGL LOG] init_preconditioner : 0 ms
[OGL LOG] solve : 25 ms
nonecudaGKOIR:  Solving for p, Initial residual = 1, Final residual = 4.69022e-06, No Iterations 3
linear solve p 854
time step continuity errors : sum local = 2.25212e-09, global = 1.057e-20, cumulative = 1.057e-20
[OGL LOG] init_host_sparsity_pattern : 2 ms
[OGL LOG] matrix not stored update host matrix
[OGL LOG] update_host_mtx : 1 ms
[OGL LOG] matrix is not yet sorted, sorting host matrix
[OGL LOG] sort_host_mtx_sparsity_pattern : 1 ms
[OGL LOG] sort_host_mtx : 0 ms
[OGL LOG] init_preconditioner : 0 ms
[OGL LOG] solve : 24 ms
nonecudaGKOIR:  Solving for p, Initial residual = 0.411682, Final residual = 1.18638e-06, No Iterations 3
linear solve p 31
time step continuity errors : sum local = 9.53119e-10, global = 6.99041e-21, cumulative = 1.75604e-20
ExecutionTime = 0.92 s  ClockTime = 1 s

Time = 0.002

Courant Number mean: 0.00876068 max: 0.0682852
nonePBiCGStab:  Solving for Ux, Initial residual = 0.225309, Final residual = 0.000138389, No Iterations 5
nonePBiCGStab:  Solving for Uy, Initial residual = 0.289716, Final residual = 0.000126799, No Iterations 5
nonePBiCGStab:  Solving for Uz, Initial residual = 0.825406, Final residual = 0.000516631, No Iterations 5
linear solve U 2
[OGL LOG] init_host_sparsity_pattern : 2 ms
[OGL LOG] matrix not stored update host matrix
[OGL LOG] update_host_mtx : 1 ms
[OGL LOG] matrix is not yet sorted, sorting host matrix
[OGL LOG] sort_host_mtx_sparsity_pattern : 1 ms
[OGL LOG] sort_host_mtx : 0 ms
[OGL LOG] init_preconditioner : 0 ms
[OGL LOG] solve : 19 ms
nonecudaGKOIR:  Solving for p, Initial residual = 0.212695, Final residual = 4.92423e-05, No Iterations 2
linear solve p 25
time step continuity errors : sum local = 3.7269e-08, global = 7.80486e-21, cumulative = 2.53653e-20
[OGL LOG] init_host_sparsity_pattern : 2 ms
[OGL LOG] matrix not stored update host matrix
[OGL LOG] update_host_mtx : 1 ms
[OGL LOG] matrix is not yet sorted, sorting host matrix
[OGL LOG] sort_host_mtx_sparsity_pattern : 1 ms
[OGL LOG] sort_host_mtx : 0 ms
[OGL LOG] init_preconditioner : 0 ms
[OGL LOG] solve : 19 ms
nonecudaGKOIR:  Solving for p, Initial residual = 0.122926, Final residual = 2.4338e-05, No Iterations 2
linear solve p 25
time step continuity errors : sum local = 1.97093e-08, global = -1.04358e-20, cumulative = 1.49295e-20
ExecutionTime = 0.98 s  ClockTime = 2 s

Time = 0.003

Courant Number mean: 0.014243 max: 0.104361
nonePBiCGStab:  Solving for Ux, Initial residual = 0.102611, Final residual = 6.43538e-05, No Iterations 5
nonePBiCGStab:  Solving for Uy, Initial residual = 0.13509, Final residual = 4.05114e-05, No Iterations 5
nonePBiCGStab:  Solving for Uz, Initial residual = 0.29389, Final residual = 0.000137907, No Iterations 5
linear solve U 2
[OGL LOG] init_host_sparsity_pattern : 2 ms
[OGL LOG] matrix not stored update host matrix
[OGL LOG] update_host_mtx : 1 ms
[OGL LOG] matrix is not yet sorted, sorting host matrix
[OGL LOG] sort_host_mtx_sparsity_pattern : 1 ms
[OGL LOG] sort_host_mtx : 0 ms
[OGL LOG] init_preconditioner : 0 ms
[OGL LOG] solve : 19 ms
nonecudaGKOIR:  Solving for p, Initial residual = 0.0912783, Final residual = 2.10566e-05, No Iterations 2
linear solve p 25
time step continuity errors : sum local = 1.69304e-08, global = -3.25327e-21, cumulative = 1.16762e-20
[OGL LOG] init_host_sparsity_pattern : 2 ms
[OGL LOG] matrix not stored update host matrix
[OGL LOG] update_host_mtx : 1 ms
[OGL LOG] matrix is not yet sorted, sorting host matrix
[OGL LOG] sort_host_mtx_sparsity_pattern : 1 ms
[OGL LOG] sort_host_mtx : 0 ms
[OGL LOG] init_preconditioner : 0 ms
[OGL LOG] solve : 19 ms
nonecudaGKOIR:  Solving for p, Initial residual = 0.0546979, Final residual = 9.25779e-06, No Iterations 2
linear solve p 25
time step continuity errors : sum local = 7.72006e-09, global = -3.77038e-20, cumulative = -2.60276e-20
ExecutionTime = 1.04 s  ClockTime = 2 s

Time = 0.004

Courant Number mean: 0.0178673 max: 0.123851
nonePBiCGStab:  Solving for Ux, Initial residual = 0.0604264, Final residual = 2.52634e-05, No Iterations 5
nonePBiCGStab:  Solving for Uy, Initial residual = 0.0809586, Final residual = 1.46054e-05, No Iterations 5
nonePBiCGStab:  Solving for Uz, Initial residual = 0.154711, Final residual = 5.14662e-05, No Iterations 5
linear solve U 2
[OGL LOG] init_host_sparsity_pattern : 2 ms
[OGL LOG] matrix not stored update host matrix
[OGL LOG] update_host_mtx : 1 ms
[OGL LOG] matrix is not yet sorted, sorting host matrix
[OGL LOG] sort_host_mtx_sparsity_pattern : 1 ms
[OGL LOG] sort_host_mtx : 0 ms
[OGL LOG] init_preconditioner : 0 ms
[OGL LOG] solve : 19 ms
nonecudaGKOIR:  Solving for p, Initial residual = 0.0542091, Final residual = 1.28604e-05, No Iterations 2
linear solve p 25
time step continuity errors : sum local = 1.08314e-08, global = 2.46658e-20, cumulative = -1.36177e-21
[OGL LOG] init_host_sparsity_pattern : 2 ms
[OGL LOG] matrix not stored update host matrix
[OGL LOG] update_host_mtx : 1 ms
[OGL LOG] matrix is not yet sorted, sorting host matrix
[OGL LOG] sort_host_mtx_sparsity_pattern : 1 ms
[OGL LOG] sort_host_mtx : 0 ms
[OGL LOG] init_preconditioner : 0 ms
[OGL LOG] solve : 19 ms
nonecudaGKOIR:  Solving for p, Initial residual = 0.0313179, Final residual = 5.75044e-06, No Iterations 2
linear solve p 25
time step continuity errors : sum local = 4.96549e-09, global = -1.3256e-20, cumulative = -1.46178e-20
ExecutionTime = 1.1 s  ClockTime = 2 s

Time = 0.005

Courant Number mean: 0.020462 max: 0.135213
nonePBiCGStab:  Solving for Ux, Initial residual = 0.0403985, Final residual = 9.48063e-06, No Iterations 5
nonePBiCGStab:  Solving for Uy, Initial residual = 0.0549719, Final residual = 5.35735e-06, No Iterations 5
nonePBiCGStab:  Solving for Uz, Initial residual = 0.106942, Final residual = 3.02877e-05, No Iterations 5
linear solve U 2
[OGL LOG] init_host_sparsity_pattern : 2 ms
[OGL LOG] matrix not stored update host matrix
[OGL LOG] update_host_mtx : 1 ms
[OGL LOG] matrix is not yet sorted, sorting host matrix
[OGL LOG] sort_host_mtx_sparsity_pattern : 1 ms
[OGL LOG] sort_host_mtx : 0 ms
[OGL LOG] init_preconditioner : 0 ms
[OGL LOG] solve : 19 ms
nonecudaGKOIR:  Solving for p, Initial residual = 0.035653, Final residual = 8.23625e-06, No Iterations 2
linear solve p 25
time step continuity errors : sum local = 7.19929e-09, global = -3.48595e-20, cumulative = -4.94773e-20
[OGL LOG] init_host_sparsity_pattern : 2 ms
[OGL LOG] matrix not stored update host matrix
[OGL LOG] update_host_mtx : 1 ms
[OGL LOG] matrix is not yet sorted, sorting host matrix
[OGL LOG] sort_host_mtx_sparsity_pattern : 1 ms
[OGL LOG] sort_host_mtx : 0 ms
[OGL LOG] init_preconditioner : 0 ms
[OGL LOG] solve : 19 ms
nonecudaGKOIR:  Solving for p, Initial residual = 0.020116, Final residual = 2.91836e-06, No Iterations 2
linear solve p 25
time step continuity errors : sum local = 2.59432e-09, global = -9.97518e-21, cumulative = -5.94525e-20
ExecutionTime = 1.15 s  ClockTime = 2 s

Time = 0.006

Courant Number mean: 0.0225069 max: 0.142363
nonePBiCGStab:  Solving for Ux, Initial residual = 0.0295668, Final residual = 4.07191e-06, No Iterations 5
nonePBiCGStab:  Solving for Uy, Initial residual = 0.0406189, Final residual = 2.56093e-06, No Iterations 5
nonePBiCGStab:  Solving for Uz, Initial residual = 0.0813301, Final residual = 1.8384e-05, No Iterations 5
linear solve U 2
[OGL LOG] init_host_sparsity_pattern : 2 ms
[OGL LOG] matrix not stored update host matrix
[OGL LOG] update_host_mtx : 1 ms
[OGL LOG] matrix is not yet sorted, sorting host matrix
[OGL LOG] sort_host_mtx_sparsity_pattern : 1 ms
[OGL LOG] sort_host_mtx : 0 ms
[OGL LOG] init_preconditioner : 0 ms
[OGL LOG] solve : 18 ms
nonecudaGKOIR:  Solving for p, Initial residual = 0.0254121, Final residual = 5.99324e-06, No Iterations 2
linear solve p 24
time step continuity errors : sum local = 5.37855e-09, global = -5.38258e-21, cumulative = -6.48351e-20
[OGL LOG] init_host_sparsity_pattern : 2 ms
[OGL LOG] matrix not stored update host matrix
[OGL LOG] update_host_mtx : 1 ms
[OGL LOG] matrix is not yet sorted, sorting host matrix
[OGL LOG] sort_host_mtx_sparsity_pattern : 1 ms
[OGL LOG] sort_host_mtx : 0 ms
[OGL LOG] init_preconditioner : 0 ms
[OGL LOG] solve : 22 ms
nonecudaGKOIR:  Solving for p, Initial residual = 0.0141057, Final residual = 2.50858e-06, No Iterations 2
linear solve p 28
time step continuity errors : sum local = 2.27953e-09, global = -6.65554e-21, cumulative = -7.14906e-20
ExecutionTime = 1.22 s  ClockTime = 2 s

Time = 0.007

Courant Number mean: 0.0241599 max: 0.147194
nonePBiCGStab:  Solving for Ux, Initial residual = 0.022995, Final residual = 2.20001e-06, No Iterations 5
nonePBiCGStab:  Solving for Uy, Initial residual = 0.0317509, Final residual = 1.75233e-06, No Iterations 5
nonePBiCGStab:  Solving for Uz, Initial residual = 0.0649879, Final residual = 1.20115e-05, No Iterations 5
linear solve U 2
[OGL LOG] init_host_sparsity_pattern : 2 ms
[OGL LOG] matrix not stored update host matrix
[OGL LOG] update_host_mtx : 1 ms
[OGL LOG] matrix is not yet sorted, sorting host matrix
[OGL LOG] sort_host_mtx_sparsity_pattern : 1 ms
[OGL LOG] sort_host_mtx : 0 ms
[OGL LOG] init_preconditioner : 0 ms
[OGL LOG] solve : 19 ms
nonecudaGKOIR:  Solving for p, Initial residual = 0.0186493, Final residual = 3.22695e-06, No Iterations 2
linear solve p 25
time step continuity errors : sum local = 2.95168e-09, global = -1.15822e-20, cumulative = -8.30727e-20
[OGL LOG] init_host_sparsity_pattern : 2 ms
[OGL LOG] matrix not stored update host matrix
[OGL LOG] update_host_mtx : 1 ms
[OGL LOG] matrix is not yet sorted, sorting host matrix
[OGL LOG] sort_host_mtx_sparsity_pattern : 1 ms
[OGL LOG] sort_host_mtx : 0 ms
[OGL LOG] init_preconditioner : 0 ms
[OGL LOG] solve : 19 ms
nonecudaGKOIR:  Solving for p, Initial residual = 0.0104039, Final residual = 1.70175e-06, No Iterations 2
linear solve p 25
time step continuity errors : sum local = 1.56894e-09, global = -1.04055e-20, cumulative = -9.34783e-20
ExecutionTime = 1.27 s  ClockTime = 2 s

Time = 0.008

Courant Number mean: 0.0255309 max: 0.150663
nonePBiCGStab:  Solving for Ux, Initial residual = 0.0184905, Final residual = 1.42457e-06, No Iterations 5
nonePBiCGStab:  Solving for Uy, Initial residual = 0.0257983, Final residual = 1.35394e-06, No Iterations 5
nonePBiCGStab:  Solving for Uz, Initial residual = 0.0535877, Final residual = 8.82657e-06, No Iterations 5
linear solve U 2
[OGL LOG] init_host_sparsity_pattern : 2 ms
[OGL LOG] matrix not stored update host matrix
[OGL LOG] update_host_mtx : 1 ms
[OGL LOG] matrix is not yet sorted, sorting host matrix
[OGL LOG] sort_host_mtx_sparsity_pattern : 1 ms
[OGL LOG] sort_host_mtx : 0 ms
[OGL LOG] init_preconditioner : 0 ms
[OGL LOG] solve : 19 ms
nonecudaGKOIR:  Solving for p, Initial residual = 0.0147549, Final residual = 2.68006e-06, No Iterations 2
linear solve p 25
time step continuity errors : sum local = 2.4854e-09, global = -3.84811e-20, cumulative = -1.31959e-19
[OGL LOG] init_host_sparsity_pattern : 2 ms
[OGL LOG] matrix not stored update host matrix
[OGL LOG] update_host_mtx : 1 ms
[OGL LOG] matrix is not yet sorted, sorting host matrix
[OGL LOG] sort_host_mtx_sparsity_pattern : 1 ms
[OGL LOG] sort_host_mtx : 0 ms
[OGL LOG] init_preconditioner : 0 ms
[OGL LOG] solve : 19 ms
nonecudaGKOIR:  Solving for p, Initial residual = 0.00830963, Final residual = 1.38773e-06, No Iterations 2
linear solve p 25
time step continuity errors : sum local = 1.29487e-09, global = -2.19445e-22, cumulative = -1.32179e-19
ExecutionTime = 1.33 s  ClockTime = 2 s

Time = 0.009

Courant Number mean: 0.026681 max: 0.153281
nonePBiCGStab:  Solving for Ux, Initial residual = 0.015255, Final residual = 9.12868e-07, No Iterations 5
nonePBiCGStab:  Solving for Uy, Initial residual = 0.0215458, Final residual = 9.12908e-07, No Iterations 5
nonePBiCGStab:  Solving for Uz, Initial residual = 0.0451741, Final residual = 5.21952e-06, No Iterations 5
linear solve U 2
[OGL LOG] init_host_sparsity_pattern : 2 ms
[OGL LOG] matrix not stored update host matrix
[OGL LOG] update_host_mtx : 1 ms
[OGL LOG] matrix is not yet sorted, sorting host matrix
[OGL LOG] sort_host_mtx_sparsity_pattern : 1 ms
[OGL LOG] sort_host_mtx : 0 ms
[OGL LOG] init_preconditioner : 0 ms
[OGL LOG] solve : 19 ms
nonecudaGKOIR:  Solving for p, Initial residual = 0.0119493, Final residual = 1.76136e-06, No Iterations 2
linear solve p 25
time step continuity errors : sum local = 1.65068e-09, global = -1.36443e-20, cumulative = -1.45823e-19
[OGL LOG] init_host_sparsity_pattern : 2 ms
[OGL LOG] matrix not stored update host matrix
[OGL LOG] update_host_mtx : 1 ms
[OGL LOG] matrix is not yet sorted, sorting host matrix
[OGL LOG] sort_host_mtx_sparsity_pattern : 1 ms
[OGL LOG] sort_host_mtx : 0 ms
[OGL LOG] init_preconditioner : 0 ms
[OGL LOG] solve : 19 ms
nonecudaGKOIR:  Solving for p, Initial residual = 0.00682419, Final residual = 1.04437e-06, No Iterations 2
linear solve p 25
time step continuity errors : sum local = 9.83267e-10, global = -2.86944e-20, cumulative = -1.74518e-19
ExecutionTime = 1.39 s  ClockTime = 2 s

Time = 0.01

Courant Number mean: 0.0276657 max: 0.155334
nonePBiCGStab:  Solving for Ux, Initial residual = 0.0129113, Final residual = 9.59333e-07, No Iterations 5
nonePBiCGStab:  Solving for Uy, Initial residual = 0.0183585, Final residual = 7.20095e-07, No Iterations 5
nonePBiCGStab:  Solving for Uz, Initial residual = 0.0387515, Final residual = 3.97899e-06, No Iterations 5
linear solve U 2
[OGL LOG] init_host_sparsity_pattern : 2 ms
[OGL LOG] matrix not stored update host matrix
[OGL LOG] update_host_mtx : 1 ms
[OGL LOG] matrix is not yet sorted, sorting host matrix
[OGL LOG] sort_host_mtx_sparsity_pattern : 1 ms
[OGL LOG] sort_host_mtx : 0 ms
[OGL LOG] init_preconditioner : 0 ms
[OGL LOG] solve : 19 ms
nonecudaGKOIR:  Solving for p, Initial residual = 0.00993251, Final residual = 1.5639e-06, No Iterations 2
linear solve p 25
time step continuity errors : sum local = 1.47786e-09, global = -8.7425e-21, cumulative = -1.8326e-19
[OGL LOG] init_host_sparsity_pattern : 2 ms
[OGL LOG] matrix not stored update host matrix
[OGL LOG] update_host_mtx : 1 ms
[OGL LOG] matrix is not yet sorted, sorting host matrix
[OGL LOG] sort_host_mtx_sparsity_pattern : 1 ms
[OGL LOG] sort_host_mtx : 0 ms
[OGL LOG] init_preconditioner : 0 ms
[OGL LOG] solve : 6 ms
nonecudaGKOIR:  Solving for p, Initial residual = 0.00574356, Final residual = 7.94956e-05, No Iterations 1
linear solve p 12
time step continuity errors : sum local = 8.58245e-08, global = 2.80062e-20, cumulative = -1.55254e-19
ExecutionTime = 1.43 s  ClockTime = 2 s

End

