/*---------------------------------------------------------------------------*\
  =========                 |
  \\      /  F ield         | OpenFOAM: The Open Source CFD Toolbox
   \\    /   O peration     | Website:  https://openfoam.org
    \\  /    A nd           | Version:  8
     \\/     M anipulation  |
\*---------------------------------------------------------------------------*/
Build  : 8-40a5a48f630f
Exec   : icoFoam
Date   : Jul 27 2021
Time   : 22:22:01
Host   : "uc2n481.localdomain"
PID    : 135323
I/O    : uncollated
Case   : /pfs/data5/home/kit/scc/nq7776/code/OBR/lidDrivenCavity3D/Variation_mesh/30/Variation_matrix_solver/CG_BJ_CUDA/base
nProcs : 1
sigFpe : Enabling floating point exception trapping (FOAM_SIGFPE).
fileModificationChecking : Monitoring run-time modified files using timeStampMaster (fileModificationSkew 10)
allowSystemOperations : Allowing user-supplied system call operations

// * * * * * * * * * * * * * * * * * * * * * * * * * * * * * * * * * * * * * //
Create time

Create mesh for time = 0

Reading transportProperties

Reading field p

Reading field U

Reading/calculating face flux field phi


Starting time loop

Time = 0.001

Courant Number mean: 0 max: 0
nonePBiCGStab:  Solving for Ux, Initial residual = 1, Final residual = 0.00734209, No Iterations 5
nonePBiCGStab:  Solving for Uy, Initial residual = 0, Final residual = 0, No Iterations 0
nonePBiCGStab:  Solving for Uz, Initial residual = 0, Final residual = 0, No Iterations 0
linear solve U 5
[OGL LOG] init_host_sparsity_pattern : 7 ms
[OGL LOG] matrix not stored update host matrix
[OGL LOG] update_host_mtx : 3 ms
[OGL LOG] matrix is not yet sorted, compute sorting idxs
[OGL LOG] compute_sort : 194 ms
[OGL LOG] matrix is not yet sorted, sorting host matrix
[OGL LOG] sort_host_mtx_sparsity_pattern : 5 ms
[OGL LOG] sort_host_mtx : 2 ms
[OGL LOG] init_preconditioner : 3 ms
 CG create  precond 
[OGL LOG] solve : 29 ms
BJcudaGKOCG:  Solving for p, Initial residual = 1, Final residual = 9.52082e-05, No Iterations 195
linear solve p 1020
time step continuity errors : sum local = 5.04881e-08, global = -1.02951e-20, cumulative = -1.02951e-20
[OGL LOG] init_host_sparsity_pattern : 7 ms
[OGL LOG] matrix not stored update host matrix
[OGL LOG] update_host_mtx : 4 ms
[OGL LOG] matrix is not yet sorted, sorting host matrix
[OGL LOG] sort_host_mtx_sparsity_pattern : 5 ms
[OGL LOG] sort_host_mtx : 2 ms
[OGL LOG] init_preconditioner : 0 ms
 CG create  precond 
[OGL LOG] solve : 28 ms
BJcudaGKOCG:  Solving for p, Initial residual = 0.531066, Final residual = 8.36783e-05, No Iterations 190
linear solve p 50
time step continuity errors : sum local = 6.96605e-08, global = -1.11356e-20, cumulative = -2.14307e-20
ExecutionTime = 1.2 s  ClockTime = 2 s

Time = 0.002

Courant Number mean: 0.015082 max: 0.148277
nonePBiCGStab:  Solving for Ux, Initial residual = 0.195864, Final residual = 0.00210031, No Iterations 5
nonePBiCGStab:  Solving for Uy, Initial residual = 0.281604, Final residual = 0.00191331, No Iterations 5
nonePBiCGStab:  Solving for Uz, Initial residual = 0.925262, Final residual = 0.0100556, No Iterations 5
linear solve U 10
[OGL LOG] init_host_sparsity_pattern : 7 ms
[OGL LOG] matrix not stored update host matrix
[OGL LOG] update_host_mtx : 3 ms
[OGL LOG] matrix is not yet sorted, sorting host matrix
[OGL LOG] sort_host_mtx_sparsity_pattern : 5 ms
[OGL LOG] sort_host_mtx : 2 ms
[OGL LOG] init_preconditioner : 0 ms
 CG create  precond 
[OGL LOG] solve : 26 ms
BJcudaGKOCG:  Solving for p, Initial residual = 0.350905, Final residual = 9.89427e-05, No Iterations 178
linear solve p 47
time step continuity errors : sum local = 7.76016e-08, global = -4.91811e-21, cumulative = -2.63488e-20
[OGL LOG] init_host_sparsity_pattern : 7 ms
[OGL LOG] matrix not stored update host matrix
[OGL LOG] update_host_mtx : 3 ms
[OGL LOG] matrix is not yet sorted, sorting host matrix
[OGL LOG] sort_host_mtx_sparsity_pattern : 5 ms
[OGL LOG] sort_host_mtx : 2 ms
[OGL LOG] init_preconditioner : 0 ms
 CG create  precond 
[OGL LOG] solve : 28 ms
BJcudaGKOCG:  Solving for p, Initial residual = 0.251249, Final residual = 9.89217e-05, No Iterations 174
linear solve p 49
time step continuity errors : sum local = 8.17192e-08, global = -4.94034e-22, cumulative = -2.68428e-20
ExecutionTime = 1.33 s  ClockTime = 2 s

Time = 0.003

Courant Number mean: 0.0234541 max: 0.204101
nonePBiCGStab:  Solving for Ux, Initial residual = 0.0796763, Final residual = 0.000580123, No Iterations 5
nonePBiCGStab:  Solving for Uy, Initial residual = 0.116765, Final residual = 0.000486165, No Iterations 5
nonePBiCGStab:  Solving for Uz, Initial residual = 0.209415, Final residual = 0.00162473, No Iterations 5
linear solve U 9
[OGL LOG] init_host_sparsity_pattern : 7 ms
[OGL LOG] matrix not stored update host matrix
[OGL LOG] update_host_mtx : 3 ms
[OGL LOG] matrix is not yet sorted, sorting host matrix
[OGL LOG] sort_host_mtx_sparsity_pattern : 5 ms
[OGL LOG] sort_host_mtx : 2 ms
[OGL LOG] init_preconditioner : 0 ms
 CG create  precond 
[OGL LOG] solve : 25 ms
BJcudaGKOCG:  Solving for p, Initial residual = 0.110581, Final residual = 9.26769e-05, No Iterations 170
linear solve p 46
time step continuity errors : sum local = 6.76532e-08, global = -7.33965e-21, cumulative = -3.41825e-20
[OGL LOG] init_host_sparsity_pattern : 7 ms
[OGL LOG] matrix not stored update host matrix
[OGL LOG] update_host_mtx : 3 ms
[OGL LOG] matrix is not yet sorted, sorting host matrix
[OGL LOG] sort_host_mtx_sparsity_pattern : 5 ms
[OGL LOG] sort_host_mtx : 2 ms
[OGL LOG] init_preconditioner : 0 ms
 CG create  precond 
[OGL LOG] solve : 25 ms
BJcudaGKOCG:  Solving for p, Initial residual = 0.0812491, Final residual = 9.60276e-05, No Iterations 167
linear solve p 45
time step continuity errors : sum local = 7.13927e-08, global = -9.37046e-21, cumulative = -4.35529e-20
ExecutionTime = 1.44 s  ClockTime = 2 s

Time = 0.004

Courant Number mean: 0.0285809 max: 0.226294
nonePBiCGStab:  Solving for Ux, Initial residual = 0.0461247, Final residual = 0.000145535, No Iterations 5
nonePBiCGStab:  Solving for Uy, Initial residual = 0.070298, Final residual = 0.000144949, No Iterations 5
nonePBiCGStab:  Solving for Uz, Initial residual = 0.113106, Final residual = 0.000653271, No Iterations 5
linear solve U 9
[OGL LOG] init_host_sparsity_pattern : 7 ms
[OGL LOG] matrix not stored update host matrix
[OGL LOG] update_host_mtx : 3 ms
[OGL LOG] matrix is not yet sorted, sorting host matrix
[OGL LOG] sort_host_mtx_sparsity_pattern : 5 ms
[OGL LOG] sort_host_mtx : 2 ms
[OGL LOG] init_preconditioner : 0 ms
 CG create  precond 
[OGL LOG] solve : 24 ms
BJcudaGKOCG:  Solving for p, Initial residual = 0.0568485, Final residual = 9.75942e-05, No Iterations 165
linear solve p 45
time step continuity errors : sum local = 7.1524e-08, global = -1.0484e-20, cumulative = -5.4037e-20
[OGL LOG] init_host_sparsity_pattern : 7 ms
[OGL LOG] matrix not stored update host matrix
[OGL LOG] update_host_mtx : 3 ms
[OGL LOG] matrix is not yet sorted, sorting host matrix
[OGL LOG] sort_host_mtx_sparsity_pattern : 4 ms
[OGL LOG] sort_host_mtx : 2 ms
[OGL LOG] init_preconditioner : 0 ms
 CG create  precond 
[OGL LOG] solve : 24 ms
BJcudaGKOCG:  Solving for p, Initial residual = 0.0416334, Final residual = 8.56069e-05, No Iterations 163
linear solve p 44
time step continuity errors : sum local = 6.37891e-08, global = -4.54326e-21, cumulative = -5.85802e-20
ExecutionTime = 1.56 s  ClockTime = 2 s

Time = 0.005

Courant Number mean: 0.0322797 max: 0.237314
nonePBiCGStab:  Solving for Ux, Initial residual = 0.031519, Final residual = 6.67275e-05, No Iterations 5
nonePBiCGStab:  Solving for Uy, Initial residual = 0.0484219, Final residual = 7.36456e-05, No Iterations 5
nonePBiCGStab:  Solving for Uz, Initial residual = 0.0820557, Final residual = 0.000332747, No Iterations 5
linear solve U 10
[OGL LOG] init_host_sparsity_pattern : 7 ms
[OGL LOG] matrix not stored update host matrix
[OGL LOG] update_host_mtx : 3 ms
[OGL LOG] matrix is not yet sorted, sorting host matrix
[OGL LOG] sort_host_mtx_sparsity_pattern : 5 ms
[OGL LOG] sort_host_mtx : 2 ms
[OGL LOG] init_preconditioner : 0 ms
 CG create  precond 
[OGL LOG] solve : 24 ms
BJcudaGKOCG:  Solving for p, Initial residual = 0.0352476, Final residual = 9.02485e-05, No Iterations 161
linear solve p 45
time step continuity errors : sum local = 6.73102e-08, global = 3.77905e-22, cumulative = -5.82023e-20
[OGL LOG] init_host_sparsity_pattern : 7 ms
[OGL LOG] matrix not stored update host matrix
[OGL LOG] update_host_mtx : 3 ms
[OGL LOG] matrix is not yet sorted, sorting host matrix
[OGL LOG] sort_host_mtx_sparsity_pattern : 5 ms
[OGL LOG] sort_host_mtx : 2 ms
[OGL LOG] init_preconditioner : 0 ms
 CG create  precond 
[OGL LOG] solve : 23 ms
BJcudaGKOCG:  Solving for p, Initial residual = 0.0260229, Final residual = 8.75072e-05, No Iterations 159
linear solve p 44
time step continuity errors : sum local = 6.58145e-08, global = 9.69236e-21, cumulative = -4.851e-20
ExecutionTime = 1.67 s  ClockTime = 2 s

Time = 0.006

Courant Number mean: 0.0351495 max: 0.243824
nonePBiCGStab:  Solving for Ux, Initial residual = 0.0235736, Final residual = 3.63085e-05, No Iterations 5
nonePBiCGStab:  Solving for Uy, Initial residual = 0.0365748, Final residual = 4.30063e-05, No Iterations 5
nonePBiCGStab:  Solving for Uz, Initial residual = 0.0648598, Final residual = 0.00019253, No Iterations 5
linear solve U 10
[OGL LOG] init_host_sparsity_pattern : 7 ms
[OGL LOG] matrix not stored update host matrix
[OGL LOG] update_host_mtx : 6 ms
[OGL LOG] matrix is not yet sorted, sorting host matrix
[OGL LOG] sort_host_mtx_sparsity_pattern : 5 ms
[OGL LOG] sort_host_mtx : 2 ms
[OGL LOG] init_preconditioner : 0 ms
 CG create  precond 
[OGL LOG] solve : 24 ms
BJcudaGKOCG:  Solving for p, Initial residual = 0.0251411, Final residual = 9.02094e-05, No Iterations 159
linear solve p 48
time step continuity errors : sum local = 6.80611e-08, global = -4.85369e-21, cumulative = -5.33637e-20
[OGL LOG] init_host_sparsity_pattern : 7 ms
[OGL LOG] matrix not stored update host matrix
[OGL LOG] update_host_mtx : 3 ms
[OGL LOG] matrix is not yet sorted, sorting host matrix
[OGL LOG] sort_host_mtx_sparsity_pattern : 4 ms
[OGL LOG] sort_host_mtx : 2 ms
[OGL LOG] init_preconditioner : 0 ms
 CG create  precond 
[OGL LOG] solve : 11 ms
BJcudaGKOCG:  Solving for p, Initial residual = 0.0186841, Final residual = 9.974e-05, No Iterations 77
linear solve p 32
time step continuity errors : sum local = 9.43277e-08, global = -1.56506e-20, cumulative = -6.90143e-20
ExecutionTime = 1.77 s  ClockTime = 2 s

Time = 0.007

Courant Number mean: 0.0374504 max: 0.248188
nonePBiCGStab:  Solving for Ux, Initial residual = 0.0186034, Final residual = 2.25291e-05, No Iterations 5
nonePBiCGStab:  Solving for Uy, Initial residual = 0.0291199, Final residual = 3.07872e-05, No Iterations 5
nonePBiCGStab:  Solving for Uz, Initial residual = 0.0537504, Final residual = 0.000195934, No Iterations 5
linear solve U 10
[OGL LOG] init_host_sparsity_pattern : 7 ms
[OGL LOG] matrix not stored update host matrix
[OGL LOG] update_host_mtx : 3 ms
[OGL LOG] matrix is not yet sorted, sorting host matrix
[OGL LOG] sort_host_mtx_sparsity_pattern : 5 ms
[OGL LOG] sort_host_mtx : 2 ms
[OGL LOG] init_preconditioner : 0 ms
 CG create  precond 
[OGL LOG] solve : 11 ms
BJcudaGKOCG:  Solving for p, Initial residual = 0.0197133, Final residual = 9.81664e-05, No Iterations 76
linear solve p 32
time step continuity errors : sum local = 9.15502e-08, global = -1.00835e-20, cumulative = -7.90978e-20
[OGL LOG] init_host_sparsity_pattern : 7 ms
[OGL LOG] matrix not stored update host matrix
[OGL LOG] update_host_mtx : 3 ms
[OGL LOG] matrix is not yet sorted, sorting host matrix
[OGL LOG] sort_host_mtx_sparsity_pattern : 4 ms
[OGL LOG] sort_host_mtx : 2 ms
[OGL LOG] init_preconditioner : 0 ms
 CG create  precond 
[OGL LOG] solve : 12 ms
BJcudaGKOCG:  Solving for p, Initial residual = 0.0147593, Final residual = 9.97095e-05, No Iterations 77
linear solve p 32
time step continuity errors : sum local = 9.74944e-08, global = 1.84376e-20, cumulative = -6.06602e-20
ExecutionTime = 1.86 s  ClockTime = 2 s

Time = 0.008

Courant Number mean: 0.0393459 max: 0.25136
nonePBiCGStab:  Solving for Ux, Initial residual = 0.015175, Final residual = 1.28079e-05, No Iterations 5
nonePBiCGStab:  Solving for Uy, Initial residual = 0.0239547, Final residual = 1.92681e-05, No Iterations 5
nonePBiCGStab:  Solving for Uz, Initial residual = 0.0450569, Final residual = 9.25964e-05, No Iterations 5
linear solve U 9
[OGL LOG] init_host_sparsity_pattern : 7 ms
[OGL LOG] matrix not stored update host matrix
[OGL LOG] update_host_mtx : 3 ms
[OGL LOG] matrix is not yet sorted, sorting host matrix
[OGL LOG] sort_host_mtx_sparsity_pattern : 4 ms
[OGL LOG] sort_host_mtx : 2 ms
[OGL LOG] init_preconditioner : 0 ms
 CG create  precond 
[OGL LOG] solve : 11 ms
BJcudaGKOCG:  Solving for p, Initial residual = 0.0158167, Final residual = 8.78508e-05, No Iterations 72
linear solve p 31
time step continuity errors : sum local = 7.68768e-08, global = 4.638e-21, cumulative = -5.60222e-20
[OGL LOG] init_host_sparsity_pattern : 7 ms
[OGL LOG] matrix not stored update host matrix
[OGL LOG] update_host_mtx : 3 ms
[OGL LOG] matrix is not yet sorted, sorting host matrix
[OGL LOG] sort_host_mtx_sparsity_pattern : 5 ms
[OGL LOG] sort_host_mtx : 2 ms
[OGL LOG] init_preconditioner : 0 ms
 CG create  precond 
[OGL LOG] solve : 10 ms
BJcudaGKOCG:  Solving for p, Initial residual = 0.0119402, Final residual = 9.58468e-05, No Iterations 70
linear solve p 31
time step continuity errors : sum local = 9.07333e-08, global = -1.22762e-20, cumulative = -6.82983e-20
ExecutionTime = 1.95 s  ClockTime = 2 s

Time = 0.009

Courant Number mean: 0.0409906 max: 0.253798
nonePBiCGStab:  Solving for Ux, Initial residual = 0.0127146, Final residual = 8.51732e-06, No Iterations 5
nonePBiCGStab:  Solving for Uy, Initial residual = 0.0201991, Final residual = 1.36464e-05, No Iterations 5
nonePBiCGStab:  Solving for Uz, Initial residual = 0.0385909, Final residual = 7.60281e-05, No Iterations 5
linear solve U 10
[OGL LOG] init_host_sparsity_pattern : 7 ms
[OGL LOG] matrix not stored update host matrix
[OGL LOG] update_host_mtx : 3 ms
[OGL LOG] matrix is not yet sorted, sorting host matrix
[OGL LOG] sort_host_mtx_sparsity_pattern : 5 ms
[OGL LOG] sort_host_mtx : 2 ms
[OGL LOG] init_preconditioner : 0 ms
 CG create  precond 
[OGL LOG] solve : 11 ms
BJcudaGKOCG:  Solving for p, Initial residual = 0.0131758, Final residual = 9.20862e-05, No Iterations 70
linear solve p 31
time step continuity errors : sum local = 8.0198e-08, global = 1.14457e-20, cumulative = -5.68526e-20
[OGL LOG] init_host_sparsity_pattern : 7 ms
[OGL LOG] matrix not stored update host matrix
[OGL LOG] update_host_mtx : 3 ms
[OGL LOG] matrix is not yet sorted, sorting host matrix
[OGL LOG] sort_host_mtx_sparsity_pattern : 4 ms
[OGL LOG] sort_host_mtx : 2 ms
[OGL LOG] init_preconditioner : 0 ms
 CG create  precond 
[OGL LOG] solve : 10 ms
BJcudaGKOCG:  Solving for p, Initial residual = 0.00999223, Final residual = 9.79232e-05, No Iterations 67
linear solve p 31
time step continuity errors : sum local = 9.01095e-08, global = 1.10419e-20, cumulative = -4.58107e-20
ExecutionTime = 2.03 s  ClockTime = 2 s

Time = 0.01

Courant Number mean: 0.0424255 max: 0.255736
nonePBiCGStab:  Solving for Ux, Initial residual = 0.0108335, Final residual = 6.17451e-06, No Iterations 5
nonePBiCGStab:  Solving for Uy, Initial residual = 0.0173256, Final residual = 1.00462e-05, No Iterations 5
nonePBiCGStab:  Solving for Uz, Initial residual = 0.0335195, Final residual = 5.66563e-05, No Iterations 5
linear solve U 10
[OGL LOG] init_host_sparsity_pattern : 7 ms
[OGL LOG] matrix not stored update host matrix
[OGL LOG] update_host_mtx : 3 ms
[OGL LOG] matrix is not yet sorted, sorting host matrix
[OGL LOG] sort_host_mtx_sparsity_pattern : 4 ms
[OGL LOG] sort_host_mtx : 2 ms
[OGL LOG] init_preconditioner : 0 ms
 CG create  precond 
[OGL LOG] solve : 10 ms
BJcudaGKOCG:  Solving for p, Initial residual = 0.0111613, Final residual = 9.61537e-05, No Iterations 68
linear solve p 31
time step continuity errors : sum local = 8.18743e-08, global = 1.38721e-20, cumulative = -3.19387e-20
[OGL LOG] init_host_sparsity_pattern : 7 ms
[OGL LOG] matrix not stored update host matrix
[OGL LOG] update_host_mtx : 4 ms
[OGL LOG] matrix is not yet sorted, sorting host matrix
[OGL LOG] sort_host_mtx_sparsity_pattern : 5 ms
[OGL LOG] sort_host_mtx : 2 ms
[OGL LOG] init_preconditioner : 0 ms
 CG create  precond 
[OGL LOG] solve : 10 ms
BJcudaGKOCG:  Solving for p, Initial residual = 0.00850591, Final residual = 9.60307e-05, No Iterations 66
linear solve p 33
time step continuity errors : sum local = 8.64949e-08, global = -8.68193e-21, cumulative = -4.06206e-20
ExecutionTime = 2.11 s  ClockTime = 3 s

End

