/*---------------------------------------------------------------------------*\
  =========                 |
  \\      /  F ield         | OpenFOAM: The Open Source CFD Toolbox
   \\    /   O peration     | Website:  https://openfoam.org
    \\  /    A nd           | Version:  8
     \\/     M anipulation  |
\*---------------------------------------------------------------------------*/
Build  : 8-40a5a48f630f
Exec   : icoFoam
Date   : Jul 27 2021
Time   : 22:00:54
Host   : "uc2n481.localdomain"
PID    : 115621
I/O    : uncollated
Case   : /pfs/data5/home/kit/scc/nq7776/code/OBR/lidDrivenCavity3D/Variation_mesh/40/Variation_matrix_solver/BiCGStab_BJ_CUDA/base
nProcs : 1
sigFpe : Enabling floating point exception trapping (FOAM_SIGFPE).
fileModificationChecking : Monitoring run-time modified files using timeStampMaster (fileModificationSkew 10)
allowSystemOperations : Allowing user-supplied system call operations

// * * * * * * * * * * * * * * * * * * * * * * * * * * * * * * * * * * * * * //
Create time

Create mesh for time = 0

Reading transportProperties

Reading field p

Reading field U

Reading/calculating face flux field phi


Starting time loop

Time = 0.001

Courant Number mean: 0 max: 0
nonePBiCGStab:  Solving for Ux, Initial residual = 1, Final residual = 0.0197517, No Iterations 5
nonePBiCGStab:  Solving for Uy, Initial residual = 0, Final residual = 0, No Iterations 0
nonePBiCGStab:  Solving for Uz, Initial residual = 0, Final residual = 0, No Iterations 0
linear solve U 14
[OGL LOG] init_host_sparsity_pattern : 17 ms
[OGL LOG] matrix not stored update host matrix
[OGL LOG] update_host_mtx : 8 ms
[OGL LOG] matrix is not yet sorted, compute sorting idxs
[OGL LOG] compute_sort : 486 ms
[OGL LOG] matrix is not yet sorted, sorting host matrix
[OGL LOG] sort_host_mtx_sparsity_pattern : 11 ms
[OGL LOG] sort_host_mtx : 6 ms
[OGL LOG] init_preconditioner : 7 ms
[OGL LOG] solve : 60 ms
BJcudaGKOBiCGStab:  Solving for p, Initial residual = 1, Final residual = 8.48711e-05, No Iterations 206
linear solve p 1363
time step continuity errors : sum local = 9.12926e-08, global = -2.42645e-20, cumulative = -2.42645e-20
[OGL LOG] init_host_sparsity_pattern : 17 ms
[OGL LOG] matrix not stored update host matrix
[OGL LOG] update_host_mtx : 9 ms
[OGL LOG] matrix is not yet sorted, sorting host matrix
[OGL LOG] sort_host_mtx_sparsity_pattern : 13 ms
[OGL LOG] sort_host_mtx : 6 ms
[OGL LOG] init_preconditioner : 0 ms
[OGL LOG] solve : 57 ms
BJcudaGKOBiCGStab:  Solving for p, Initial residual = 0.598447, Final residual = 6.92572e-05, No Iterations 195
linear solve p 109
time step continuity errors : sum local = 1.1168e-07, global = -1.25562e-20, cumulative = -3.68207e-20
ExecutionTime = 1.75 s  ClockTime = 2 s

Time = 0.002

Courant Number mean: 0.0210248 max: 0.237018
nonePBiCGStab:  Solving for Ux, Initial residual = 0.177627, Final residual = 0.00670673, No Iterations 5
nonePBiCGStab:  Solving for Uy, Initial residual = 0.294205, Final residual = 0.00767306, No Iterations 5
nonePBiCGStab:  Solving for Uz, Initial residual = 0.950244, Final residual = 0.0369293, No Iterations 5
linear solve U 27
[OGL LOG] init_host_sparsity_pattern : 17 ms
[OGL LOG] matrix not stored update host matrix
[OGL LOG] update_host_mtx : 8 ms
[OGL LOG] matrix is not yet sorted, sorting host matrix
[OGL LOG] sort_host_mtx_sparsity_pattern : 11 ms
[OGL LOG] sort_host_mtx : 6 ms
[OGL LOG] init_preconditioner : 0 ms
[OGL LOG] solve : 52 ms
BJcudaGKOBiCGStab:  Solving for p, Initial residual = 0.457722, Final residual = 9.57467e-05, No Iterations 178
linear solve p 100
time step continuity errors : sum local = 1.33887e-07, global = -1.32871e-21, cumulative = -3.81494e-20
[OGL LOG] init_host_sparsity_pattern : 17 ms
[OGL LOG] matrix not stored update host matrix
[OGL LOG] update_host_mtx : 8 ms
[OGL LOG] matrix is not yet sorted, sorting host matrix
[OGL LOG] sort_host_mtx_sparsity_pattern : 11 ms
[OGL LOG] sort_host_mtx : 6 ms
[OGL LOG] init_preconditioner : 0 ms
[OGL LOG] solve : 52 ms
BJcudaGKOBiCGStab:  Solving for p, Initial residual = 0.361245, Final residual = 9.95808e-05, No Iterations 178
linear solve p 100
time step continuity errors : sum local = 1.14447e-07, global = -1.12151e-20, cumulative = -4.93645e-20
ExecutionTime = 2.02 s  ClockTime = 2 s

Time = 0.003

Courant Number mean: 0.0321027 max: 0.305902
nonePBiCGStab:  Solving for Ux, Initial residual = 0.0656879, Final residual = 0.0012407, No Iterations 5
nonePBiCGStab:  Solving for Uy, Initial residual = 0.107708, Final residual = 0.00173479, No Iterations 5
nonePBiCGStab:  Solving for Uz, Initial residual = 0.183957, Final residual = 0.00703216, No Iterations 5
linear solve U 30
[OGL LOG] init_host_sparsity_pattern : 17 ms
[OGL LOG] matrix not stored update host matrix
[OGL LOG] update_host_mtx : 8 ms
[OGL LOG] matrix is not yet sorted, sorting host matrix
[OGL LOG] sort_host_mtx_sparsity_pattern : 11 ms
[OGL LOG] sort_host_mtx : 6 ms
[OGL LOG] init_preconditioner : 0 ms
[OGL LOG] solve : 20 ms
BJcudaGKOBiCGStab:  Solving for p, Initial residual = 0.163597, Final residual = 9.39721e-05, No Iterations 69
linear solve p 69
time step continuity errors : sum local = 1.06213e-07, global = -1.17673e-20, cumulative = -6.11318e-20
[OGL LOG] init_host_sparsity_pattern : 17 ms
[OGL LOG] matrix not stored update host matrix
[OGL LOG] update_host_mtx : 8 ms
[OGL LOG] matrix is not yet sorted, sorting host matrix
[OGL LOG] sort_host_mtx_sparsity_pattern : 11 ms
[OGL LOG] sort_host_mtx : 6 ms
[OGL LOG] init_preconditioner : 0 ms
[OGL LOG] solve : 19 ms
BJcudaGKOBiCGStab:  Solving for p, Initial residual = 0.128104, Final residual = 9.86624e-05, No Iterations 65
linear solve p 68
time step continuity errors : sum local = 1.12378e-07, global = -4.95668e-21, cumulative = -6.60885e-20
ExecutionTime = 2.21 s  ClockTime = 3 s

Time = 0.004

Courant Number mean: 0.0386766 max: 0.327559
nonePBiCGStab:  Solving for Ux, Initial residual = 0.0386923, Final residual = 0.000518181, No Iterations 5
nonePBiCGStab:  Solving for Uy, Initial residual = 0.0671298, Final residual = 0.000636804, No Iterations 5
nonePBiCGStab:  Solving for Uz, Initial residual = 0.118094, Final residual = 0.00290409, No Iterations 5
linear solve U 27
[OGL LOG] init_host_sparsity_pattern : 17 ms
[OGL LOG] matrix not stored update host matrix
[OGL LOG] update_host_mtx : 8 ms
[OGL LOG] matrix is not yet sorted, sorting host matrix
[OGL LOG] sort_host_mtx_sparsity_pattern : 11 ms
[OGL LOG] sort_host_mtx : 6 ms
[OGL LOG] init_preconditioner : 0 ms
[OGL LOG] solve : 19 ms
BJcudaGKOBiCGStab:  Solving for p, Initial residual = 0.0847795, Final residual = 9.56147e-05, No Iterations 65
linear solve p 68
time step continuity errors : sum local = 6.88656e-08, global = -6.7273e-21, cumulative = -7.28158e-20
[OGL LOG] init_host_sparsity_pattern : 17 ms
[OGL LOG] matrix not stored update host matrix
[OGL LOG] update_host_mtx : 8 ms
[OGL LOG] matrix is not yet sorted, sorting host matrix
[OGL LOG] sort_host_mtx_sparsity_pattern : 11 ms
[OGL LOG] sort_host_mtx : 6 ms
[OGL LOG] init_preconditioner : 0 ms
[OGL LOG] solve : 20 ms
BJcudaGKOBiCGStab:  Solving for p, Initial residual = 0.0653984, Final residual = 9.79083e-05, No Iterations 66
linear solve p 68
time step continuity errors : sum local = 9.62462e-08, global = -2.89839e-20, cumulative = -1.018e-19
ExecutionTime = 2.41 s  ClockTime = 3 s

Time = 0.005

Courant Number mean: 0.0434819 max: 0.337867
nonePBiCGStab:  Solving for Ux, Initial residual = 0.0269066, Final residual = 0.000298063, No Iterations 5
nonePBiCGStab:  Solving for Uy, Initial residual = 0.0466666, Final residual = 0.00040286, No Iterations 5
nonePBiCGStab:  Solving for Uz, Initial residual = 0.0815877, Final residual = 0.00178165, No Iterations 5
linear solve U 28
[OGL LOG] init_host_sparsity_pattern : 18 ms
[OGL LOG] matrix not stored update host matrix
[OGL LOG] update_host_mtx : 8 ms
[OGL LOG] matrix is not yet sorted, sorting host matrix
[OGL LOG] sort_host_mtx_sparsity_pattern : 12 ms
[OGL LOG] sort_host_mtx : 6 ms
[OGL LOG] init_preconditioner : 0 ms
[OGL LOG] solve : 20 ms
BJcudaGKOBiCGStab:  Solving for p, Initial residual = 0.0442386, Final residual = 9.31072e-05, No Iterations 67
linear solve p 70
time step continuity errors : sum local = 9.22875e-08, global = -2.41819e-20, cumulative = -1.25982e-19
[OGL LOG] init_host_sparsity_pattern : 17 ms
[OGL LOG] matrix not stored update host matrix
[OGL LOG] update_host_mtx : 8 ms
[OGL LOG] matrix is not yet sorted, sorting host matrix
[OGL LOG] sort_host_mtx_sparsity_pattern : 11 ms
[OGL LOG] sort_host_mtx : 6 ms
[OGL LOG] init_preconditioner : 0 ms
[OGL LOG] solve : 18 ms
BJcudaGKOBiCGStab:  Solving for p, Initial residual = 0.0355132, Final residual = 8.84889e-05, No Iterations 60
linear solve p 66
time step continuity errors : sum local = 9.24592e-08, global = 6.378e-21, cumulative = -1.19604e-19
ExecutionTime = 2.61 s  ClockTime = 3 s

Time = 0.006

Courant Number mean: 0.0472023 max: 0.34403
nonePBiCGStab:  Solving for Ux, Initial residual = 0.0203917, Final residual = 0.000222521, No Iterations 5
nonePBiCGStab:  Solving for Uy, Initial residual = 0.0356503, Final residual = 0.000193364, No Iterations 5
nonePBiCGStab:  Solving for Uz, Initial residual = 0.0636256, Final residual = 0.000853405, No Iterations 5
linear solve U 26
[OGL LOG] init_host_sparsity_pattern : 17 ms
[OGL LOG] matrix not stored update host matrix
[OGL LOG] update_host_mtx : 8 ms
[OGL LOG] matrix is not yet sorted, sorting host matrix
[OGL LOG] sort_host_mtx_sparsity_pattern : 11 ms
[OGL LOG] sort_host_mtx : 6 ms
[OGL LOG] init_preconditioner : 0 ms
[OGL LOG] solve : 19 ms
BJcudaGKOBiCGStab:  Solving for p, Initial residual = 0.0295873, Final residual = 9.5813e-05, No Iterations 65
linear solve p 67
time step continuity errors : sum local = 8.44524e-08, global = 6.38041e-22, cumulative = -1.18966e-19
[OGL LOG] init_host_sparsity_pattern : 17 ms
[OGL LOG] matrix not stored update host matrix
[OGL LOG] update_host_mtx : 8 ms
[OGL LOG] matrix is not yet sorted, sorting host matrix
[OGL LOG] sort_host_mtx_sparsity_pattern : 11 ms
[OGL LOG] sort_host_mtx : 6 ms
[OGL LOG] init_preconditioner : 0 ms
[OGL LOG] solve : 18 ms
BJcudaGKOBiCGStab:  Solving for p, Initial residual = 0.0241787, Final residual = 9.78509e-05, No Iterations 59
linear solve p 66
time step continuity errors : sum local = 9.35394e-08, global = 1.23952e-20, cumulative = -1.0657e-19
ExecutionTime = 2.81 s  ClockTime = 3 s

Time = 0.007

Courant Number mean: 0.0502362 max: 0.348259
nonePBiCGStab:  Solving for Ux, Initial residual = 0.0161977, Final residual = 0.000134351, No Iterations 5
nonePBiCGStab:  Solving for Uy, Initial residual = 0.0285367, Final residual = 0.00015826, No Iterations 5
nonePBiCGStab:  Solving for Uz, Initial residual = 0.0520192, Final residual = 0.000772953, No Iterations 5
linear solve U 26
[OGL LOG] init_host_sparsity_pattern : 17 ms
[OGL LOG] matrix not stored update host matrix
[OGL LOG] update_host_mtx : 8 ms
[OGL LOG] matrix is not yet sorted, sorting host matrix
[OGL LOG] sort_host_mtx_sparsity_pattern : 11 ms
[OGL LOG] sort_host_mtx : 6 ms
[OGL LOG] init_preconditioner : 0 ms
[OGL LOG] solve : 20 ms
BJcudaGKOBiCGStab:  Solving for p, Initial residual = 0.0230885, Final residual = 9.06494e-05, No Iterations 59
linear solve p 68
time step continuity errors : sum local = 8.60935e-08, global = 1.57752e-20, cumulative = -9.07952e-20
[OGL LOG] init_host_sparsity_pattern : 17 ms
[OGL LOG] matrix not stored update host matrix
[OGL LOG] update_host_mtx : 8 ms
[OGL LOG] matrix is not yet sorted, sorting host matrix
[OGL LOG] sort_host_mtx_sparsity_pattern : 12 ms
[OGL LOG] sort_host_mtx : 6 ms
[OGL LOG] init_preconditioner : 0 ms
[OGL LOG] solve : 18 ms
BJcudaGKOBiCGStab:  Solving for p, Initial residual = 0.0192088, Final residual = 9.52016e-05, No Iterations 60
linear solve p 67
time step continuity errors : sum local = 9.1652e-08, global = 3.35185e-21, cumulative = -8.74434e-20
ExecutionTime = 3 s  ClockTime = 3 s

Time = 0.008

Courant Number mean: 0.0528063 max: 0.351373
nonePBiCGStab:  Solving for Ux, Initial residual = 0.0133403, Final residual = 9.0514e-05, No Iterations 5
nonePBiCGStab:  Solving for Uy, Initial residual = 0.0235364, Final residual = 0.000100642, No Iterations 5
nonePBiCGStab:  Solving for Uz, Initial residual = 0.0440491, Final residual = 0.000460911, No Iterations 5
linear solve U 26
[OGL LOG] init_host_sparsity_pattern : 17 ms
[OGL LOG] matrix not stored update host matrix
[OGL LOG] update_host_mtx : 8 ms
[OGL LOG] matrix is not yet sorted, sorting host matrix
[OGL LOG] sort_host_mtx_sparsity_pattern : 12 ms
[OGL LOG] sort_host_mtx : 6 ms
[OGL LOG] init_preconditioner : 0 ms
[OGL LOG] solve : 18 ms
BJcudaGKOBiCGStab:  Solving for p, Initial residual = 0.0182153, Final residual = 9.23517e-05, No Iterations 62
linear solve p 67
time step continuity errors : sum local = 8.26617e-08, global = -2.01877e-20, cumulative = -1.07631e-19
[OGL LOG] init_host_sparsity_pattern : 17 ms
[OGL LOG] matrix not stored update host matrix
[OGL LOG] update_host_mtx : 8 ms
[OGL LOG] matrix is not yet sorted, sorting host matrix
[OGL LOG] sort_host_mtx_sparsity_pattern : 11 ms
[OGL LOG] sort_host_mtx : 6 ms
[OGL LOG] init_preconditioner : 0 ms
[OGL LOG] solve : 18 ms
BJcudaGKOBiCGStab:  Solving for p, Initial residual = 0.0153568, Final residual = 8.98093e-05, No Iterations 60
linear solve p 66
time step continuity errors : sum local = 8.5577e-08, global = 1.40154e-20, cumulative = -9.36157e-20
ExecutionTime = 3.19 s  ClockTime = 4 s

Time = 0.009

Courant Number mean: 0.0549937 max: 0.353787
nonePBiCGStab:  Solving for Ux, Initial residual = 0.0111698, Final residual = 6.74653e-05, No Iterations 5
nonePBiCGStab:  Solving for Uy, Initial residual = 0.0199329, Final residual = 8.33534e-05, No Iterations 5
nonePBiCGStab:  Solving for Uz, Initial residual = 0.0377807, Final residual = 0.000423389, No Iterations 5
linear solve U 27
[OGL LOG] init_host_sparsity_pattern : 18 ms
[OGL LOG] matrix not stored update host matrix
[OGL LOG] update_host_mtx : 8 ms
[OGL LOG] matrix is not yet sorted, sorting host matrix
[OGL LOG] sort_host_mtx_sparsity_pattern : 11 ms
[OGL LOG] sort_host_mtx : 6 ms
[OGL LOG] init_preconditioner : 0 ms
[OGL LOG] solve : 18 ms
BJcudaGKOBiCGStab:  Solving for p, Initial residual = 0.0154859, Final residual = 9.57743e-05, No Iterations 61
linear solve p 68
time step continuity errors : sum local = 8.77126e-08, global = -3.05131e-20, cumulative = -1.24129e-19
[OGL LOG] init_host_sparsity_pattern : 17 ms
[OGL LOG] matrix not stored update host matrix
[OGL LOG] update_host_mtx : 8 ms
[OGL LOG] matrix is not yet sorted, sorting host matrix
[OGL LOG] sort_host_mtx_sparsity_pattern : 11 ms
[OGL LOG] sort_host_mtx : 8 ms
[OGL LOG] init_preconditioner : 0 ms
[OGL LOG] solve : 17 ms
BJcudaGKOBiCGStab:  Solving for p, Initial residual = 0.0131296, Final residual = 9.46761e-05, No Iterations 58
linear solve p 68
time step continuity errors : sum local = 8.8207e-08, global = -1.01496e-20, cumulative = -1.34278e-19
ExecutionTime = 3.39 s  ClockTime = 4 s

Time = 0.01

Courant Number mean: 0.0568758 max: 0.355714
nonePBiCGStab:  Solving for Ux, Initial residual = 0.00952407, Final residual = 4.53275e-05, No Iterations 5
nonePBiCGStab:  Solving for Uy, Initial residual = 0.0171299, Final residual = 5.8998e-05, No Iterations 5
nonePBiCGStab:  Solving for Uz, Initial residual = 0.032993, Final residual = 0.000247753, No Iterations 5
linear solve U 27
[OGL LOG] init_host_sparsity_pattern : 17 ms
[OGL LOG] matrix not stored update host matrix
[OGL LOG] update_host_mtx : 8 ms
[OGL LOG] matrix is not yet sorted, sorting host matrix
[OGL LOG] sort_host_mtx_sparsity_pattern : 11 ms
[OGL LOG] sort_host_mtx : 6 ms
[OGL LOG] init_preconditioner : 0 ms
[OGL LOG] solve : 20 ms
BJcudaGKOBiCGStab:  Solving for p, Initial residual = 0.0131874, Final residual = 8.97268e-05, No Iterations 68
linear solve p 68
time step continuity errors : sum local = 8.18826e-08, global = -3.7465e-20, cumulative = -1.71743e-19
[OGL LOG] init_host_sparsity_pattern : 17 ms
[OGL LOG] matrix not stored update host matrix
[OGL LOG] update_host_mtx : 8 ms
[OGL LOG] matrix is not yet sorted, sorting host matrix
[OGL LOG] sort_host_mtx_sparsity_pattern : 11 ms
[OGL LOG] sort_host_mtx : 6 ms
[OGL LOG] init_preconditioner : 0 ms
[OGL LOG] solve : 17 ms
BJcudaGKOBiCGStab:  Solving for p, Initial residual = 0.0112311, Final residual = 8.82258e-05, No Iterations 58
linear solve p 66
time step continuity errors : sum local = 8.26901e-08, global = -4.71767e-21, cumulative = -1.76461e-19
ExecutionTime = 3.58 s  ClockTime = 4 s

End

