/*---------------------------------------------------------------------------*\
  =========                 |
  \\      /  F ield         | OpenFOAM: The Open Source CFD Toolbox
   \\    /   O peration     | Website:  https://openfoam.org
    \\  /    A nd           | Version:  8
     \\/     M anipulation  |
\*---------------------------------------------------------------------------*/
Build  : 8-40a5a48f630f
Exec   : icoFoam
Date   : Jul 27 2021
Time   : 22:27:54
Host   : "uc2n481.localdomain"
PID    : 140945
I/O    : uncollated
Case   : /pfs/data5/home/kit/scc/nq7776/code/OBR/lidDrivenCavity3D/Variation_mesh/70/Variation_matrix_solver/IR_NoPrecond_CUDA/base
nProcs : 1
sigFpe : Enabling floating point exception trapping (FOAM_SIGFPE).
fileModificationChecking : Monitoring run-time modified files using timeStampMaster (fileModificationSkew 10)
allowSystemOperations : Allowing user-supplied system call operations

// * * * * * * * * * * * * * * * * * * * * * * * * * * * * * * * * * * * * * //
Create time

Create mesh for time = 0

Reading transportProperties

Reading field p

Reading field U

Reading/calculating face flux field phi


Starting time loop

Time = 0.001

Courant Number mean: 0 max: 0
nonePBiCGStab:  Solving for Ux, Initial residual = 1, Final residual = 0.0584718, No Iterations 5
nonePBiCGStab:  Solving for Uy, Initial residual = 0, Final residual = 0, No Iterations 0
nonePBiCGStab:  Solving for Uz, Initial residual = 0, Final residual = 0, No Iterations 0
linear solve U 91
[OGL LOG] init_host_sparsity_pattern : 99 ms
[OGL LOG] matrix not stored update host matrix
[OGL LOG] update_host_mtx : 52 ms
[OGL LOG] matrix is not yet sorted, compute sorting idxs
[OGL LOG] compute_sort : 3004 ms
[OGL LOG] matrix is not yet sorted, sorting host matrix
[OGL LOG] sort_host_mtx_sparsity_pattern : 74 ms
[OGL LOG] sort_host_mtx : 39 ms
[OGL LOG] init_preconditioner : 0 ms
[OGL LOG] solve : 153 ms
nonecudaGKOIR:  Solving for p, Initial residual = 1, Final residual = 1.32351e-05, No Iterations 3
linear solve p 4226
time step continuity errors : sum local = 6.19804e-09, global = -7.79279e-21, cumulative = -7.79279e-21
[OGL LOG] init_host_sparsity_pattern : 96 ms
[OGL LOG] matrix not stored update host matrix
[OGL LOG] update_host_mtx : 52 ms
[OGL LOG] matrix is not yet sorted, sorting host matrix
[OGL LOG] sort_host_mtx_sparsity_pattern : 73 ms
[OGL LOG] sort_host_mtx : 36 ms
[OGL LOG] init_preconditioner : 0 ms
[OGL LOG] solve : 151 ms
nonecudaGKOIR:  Solving for p, Initial residual = 0.681676, Final residual = 6.8397e-06, No Iterations 3
linear solve p 430
time step continuity errors : sum local = 4.5257e-09, global = 2.33987e-21, cumulative = -5.45292e-21
ExecutionTime = 6.2 s  ClockTime = 6 s

Time = 0.002

Courant Number mean: 0.0344583 max: 0.51472
nonePBiCGStab:  Solving for Ux, Initial residual = 0.148861, Final residual = 0.0242745, No Iterations 5
nonePBiCGStab:  Solving for Uy, Initial residual = 0.378252, Final residual = 0.0558308, No Iterations 5
nonePBiCGStab:  Solving for Uz, Initial residual = 0.981704, Final residual = 0.180081, No Iterations 5
linear solve U 184
[OGL LOG] init_host_sparsity_pattern : 93 ms
[OGL LOG] matrix not stored update host matrix
[OGL LOG] update_host_mtx : 46 ms
[OGL LOG] matrix is not yet sorted, sorting host matrix
[OGL LOG] sort_host_mtx_sparsity_pattern : 65 ms
[OGL LOG] sort_host_mtx : 35 ms
[OGL LOG] init_preconditioner : 0 ms
[OGL LOG] solve : 154 ms
nonecudaGKOIR:  Solving for p, Initial residual = 0.684974, Final residual = 3.46201e-06, No Iterations 3
linear solve p 416
time step continuity errors : sum local = 3.02759e-09, global = -5.80412e-21, cumulative = -1.1257e-20
[OGL LOG] init_host_sparsity_pattern : 93 ms
[OGL LOG] matrix not stored update host matrix
[OGL LOG] update_host_mtx : 45 ms
[OGL LOG] matrix is not yet sorted, sorting host matrix
[OGL LOG] sort_host_mtx_sparsity_pattern : 65 ms
[OGL LOG] sort_host_mtx : 35 ms
[OGL LOG] init_preconditioner : 0 ms
[OGL LOG] solve : 154 ms
nonecudaGKOIR:  Solving for p, Initial residual = 0.604548, Final residual = 2.70152e-06, No Iterations 3
linear solve p 413
time step continuity errors : sum local = 2.41297e-09, global = 1.18964e-20, cumulative = 6.39368e-22
ExecutionTime = 7.42 s  ClockTime = 8 s

Time = 0.003

Courant Number mean: 0.0532598 max: 0.605937
nonePBiCGStab:  Solving for Ux, Initial residual = 0.0557357, Final residual = 0.0075, No Iterations 5
nonePBiCGStab:  Solving for Uy, Initial residual = 0.135016, Final residual = 0.0233156, No Iterations 5
nonePBiCGStab:  Solving for Uz, Initial residual = 0.427215, Final residual = 0.0744471, No Iterations 5
linear solve U 187
[OGL LOG] init_host_sparsity_pattern : 96 ms
[OGL LOG] matrix not stored update host matrix
[OGL LOG] update_host_mtx : 45 ms
[OGL LOG] matrix is not yet sorted, sorting host matrix
[OGL LOG] sort_host_mtx_sparsity_pattern : 67 ms
[OGL LOG] sort_host_mtx : 37 ms
[OGL LOG] init_preconditioner : 0 ms
[OGL LOG] solve : 155 ms
nonecudaGKOIR:  Solving for p, Initial residual = 0.613248, Final residual = 2.39014e-06, No Iterations 3
linear solve p 422
time step continuity errors : sum local = 1.42643e-09, global = 9.83408e-21, cumulative = 1.04735e-20
[OGL LOG] init_host_sparsity_pattern : 94 ms
[OGL LOG] matrix not stored update host matrix
[OGL LOG] update_host_mtx : 45 ms
[OGL LOG] matrix is not yet sorted, sorting host matrix
[OGL LOG] sort_host_mtx_sparsity_pattern : 65 ms
[OGL LOG] sort_host_mtx : 36 ms
[OGL LOG] init_preconditioner : 0 ms
[OGL LOG] solve : 155 ms
nonecudaGKOIR:  Solving for p, Initial residual = 0.546153, Final residual = 2.10344e-06, No Iterations 3
linear solve p 417
time step continuity errors : sum local = 1.2262e-09, global = 6.41854e-21, cumulative = 1.6892e-20
ExecutionTime = 8.66 s  ClockTime = 9 s

Time = 0.004

Courant Number mean: 0.0638357 max: 0.623647
nonePBiCGStab:  Solving for Ux, Initial residual = 0.033464, Final residual = 0.00389741, No Iterations 5
nonePBiCGStab:  Solving for Uy, Initial residual = 0.0886117, Final residual = 0.0110273, No Iterations 5
nonePBiCGStab:  Solving for Uz, Initial residual = 0.241894, Final residual = 0.0341644, No Iterations 5
linear solve U 186
[OGL LOG] init_host_sparsity_pattern : 94 ms
[OGL LOG] matrix not stored update host matrix
[OGL LOG] update_host_mtx : 45 ms
[OGL LOG] matrix is not yet sorted, sorting host matrix
[OGL LOG] sort_host_mtx_sparsity_pattern : 66 ms
[OGL LOG] sort_host_mtx : 35 ms
[OGL LOG] init_preconditioner : 0 ms
[OGL LOG] solve : 158 ms
nonecudaGKOIR:  Solving for p, Initial residual = 0.42741, Final residual = 1.60178e-06, No Iterations 3
linear solve p 421
time step continuity errors : sum local = 9.00399e-10, global = -1.10591e-20, cumulative = 5.83293e-21
[OGL LOG] init_host_sparsity_pattern : 93 ms
[OGL LOG] matrix not stored update host matrix
[OGL LOG] update_host_mtx : 45 ms
[OGL LOG] matrix is not yet sorted, sorting host matrix
[OGL LOG] sort_host_mtx_sparsity_pattern : 66 ms
[OGL LOG] sort_host_mtx : 36 ms
[OGL LOG] init_preconditioner : 0 ms
[OGL LOG] solve : 157 ms
nonecudaGKOIR:  Solving for p, Initial residual = 0.358197, Final residual = 1.22132e-06, No Iterations 3
linear solve p 419
time step continuity errors : sum local = 6.97811e-10, global = -2.79195e-21, cumulative = 3.04098e-21
ExecutionTime = 9.89 s  ClockTime = 10 s

Time = 0.005

Courant Number mean: 0.0724651 max: 0.634643
nonePBiCGStab:  Solving for Ux, Initial residual = 0.0239754, Final residual = 0.00249235, No Iterations 5
nonePBiCGStab:  Solving for Uy, Initial residual = 0.0571888, Final residual = 0.00624956, No Iterations 5
nonePBiCGStab:  Solving for Uz, Initial residual = 0.123207, Final residual = 0.020878, No Iterations 5
linear solve U 185
[OGL LOG] init_host_sparsity_pattern : 96 ms
[OGL LOG] matrix not stored update host matrix
[OGL LOG] update_host_mtx : 50 ms
[OGL LOG] matrix is not yet sorted, sorting host matrix
[OGL LOG] sort_host_mtx_sparsity_pattern : 66 ms
[OGL LOG] sort_host_mtx : 35 ms
[OGL LOG] init_preconditioner : 0 ms
[OGL LOG] solve : 148 ms
nonecudaGKOIR:  Solving for p, Initial residual = 0.374263, Final residual = 1.25719e-06, No Iterations 3
linear solve p 418
time step continuity errors : sum local = 5.89681e-10, global = 1.68667e-21, cumulative = 4.72765e-21
[OGL LOG] init_host_sparsity_pattern : 92 ms
[OGL LOG] matrix not stored update host matrix
[OGL LOG] update_host_mtx : 45 ms
[OGL LOG] matrix is not yet sorted, sorting host matrix
[OGL LOG] sort_host_mtx_sparsity_pattern : 66 ms
[OGL LOG] sort_host_mtx : 35 ms
[OGL LOG] init_preconditioner : 0 ms
[OGL LOG] solve : 151 ms
nonecudaGKOIR:  Solving for p, Initial residual = 0.321191, Final residual = 1.00762e-06, No Iterations 3
linear solve p 412
time step continuity errors : sum local = 4.67163e-10, global = -2.08351e-21, cumulative = 2.64414e-21
ExecutionTime = 11.1 s  ClockTime = 11 s

Time = 0.006

Courant Number mean: 0.0792297 max: 0.641391
nonePBiCGStab:  Solving for Ux, Initial residual = 0.01791, Final residual = 0.00152621, No Iterations 5
nonePBiCGStab:  Solving for Uy, Initial residual = 0.0427822, Final residual = 0.003247, No Iterations 5
nonePBiCGStab:  Solving for Uz, Initial residual = 0.098522, Final residual = 0.0143581, No Iterations 5
linear solve U 184
[OGL LOG] init_host_sparsity_pattern : 92 ms
[OGL LOG] matrix not stored update host matrix
[OGL LOG] update_host_mtx : 47 ms
[OGL LOG] matrix is not yet sorted, sorting host matrix
[OGL LOG] sort_host_mtx_sparsity_pattern : 71 ms
[OGL LOG] sort_host_mtx : 36 ms
[OGL LOG] init_preconditioner : 0 ms
[OGL LOG] solve : 74 ms
nonecudaGKOIR:  Solving for p, Initial residual = 0.267569, Final residual = 7.22848e-05, No Iterations 2
linear solve p 345
time step continuity errors : sum local = 3.7165e-08, global = -2.7835e-21, cumulative = -1.39355e-22
[OGL LOG] init_host_sparsity_pattern : 92 ms
[OGL LOG] matrix not stored update host matrix
[OGL LOG] update_host_mtx : 45 ms
[OGL LOG] matrix is not yet sorted, sorting host matrix
[OGL LOG] sort_host_mtx_sparsity_pattern : 66 ms
[OGL LOG] sort_host_mtx : 35 ms
[OGL LOG] init_preconditioner : 0 ms
[OGL LOG] solve : 74 ms
nonecudaGKOIR:  Solving for p, Initial residual = 0.224409, Final residual = 6.66341e-05, No Iterations 2
linear solve p 335
time step continuity errors : sum local = 3.29809e-08, global = -8.1376e-21, cumulative = -8.27695e-21
ExecutionTime = 12.18 s  ClockTime = 12 s

Time = 0.007

Courant Number mean: 0.0849288 max: 0.645999
nonePBiCGStab:  Solving for Ux, Initial residual = 0.0141364, Final residual = 0.00098095, No Iterations 5
nonePBiCGStab:  Solving for Uy, Initial residual = 0.0335355, Final residual = 0.00228389, No Iterations 5
nonePBiCGStab:  Solving for Uz, Initial residual = 0.0716871, Final residual = 0.00762163, No Iterations 5
linear solve U 184
[OGL LOG] init_host_sparsity_pattern : 93 ms
[OGL LOG] matrix not stored update host matrix
[OGL LOG] update_host_mtx : 46 ms
[OGL LOG] matrix is not yet sorted, sorting host matrix
[OGL LOG] sort_host_mtx_sparsity_pattern : 66 ms
[OGL LOG] sort_host_mtx : 35 ms
[OGL LOG] init_preconditioner : 0 ms
[OGL LOG] solve : 75 ms
nonecudaGKOIR:  Solving for p, Initial residual = 0.22016, Final residual = 6.20147e-05, No Iterations 2
linear solve p 338
time step continuity errors : sum local = 2.813e-08, global = 9.26547e-21, cumulative = 9.88519e-22
[OGL LOG] init_host_sparsity_pattern : 92 ms
[OGL LOG] matrix not stored update host matrix
[OGL LOG] update_host_mtx : 45 ms
[OGL LOG] matrix is not yet sorted, sorting host matrix
[OGL LOG] sort_host_mtx_sparsity_pattern : 66 ms
[OGL LOG] sort_host_mtx : 35 ms
[OGL LOG] init_preconditioner : 0 ms
[OGL LOG] solve : 74 ms
nonecudaGKOIR:  Solving for p, Initial residual = 0.186298, Final residual = 4.6706e-05, No Iterations 2
linear solve p 340
time step continuity errors : sum local = 2.13005e-08, global = -1.00451e-20, cumulative = -9.05658e-21
ExecutionTime = 13.24 s  ClockTime = 13 s

Time = 0.008

Courant Number mean: 0.0897165 max: 0.649529
nonePBiCGStab:  Solving for Ux, Initial residual = 0.0115083, Final residual = 0.000682004, No Iterations 5
nonePBiCGStab:  Solving for Uy, Initial residual = 0.0268248, Final residual = 0.00131428, No Iterations 5
nonePBiCGStab:  Solving for Uz, Initial residual = 0.0594484, Final residual = 0.00684633, No Iterations 5
linear solve U 186
[OGL LOG] init_host_sparsity_pattern : 93 ms
[OGL LOG] matrix not stored update host matrix
[OGL LOG] update_host_mtx : 45 ms
[OGL LOG] matrix is not yet sorted, sorting host matrix
[OGL LOG] sort_host_mtx_sparsity_pattern : 66 ms
[OGL LOG] sort_host_mtx : 35 ms
[OGL LOG] init_preconditioner : 0 ms
[OGL LOG] solve : 119 ms
nonecudaGKOIR:  Solving for p, Initial residual = 0.161252, Final residual = 4.54127e-05, No Iterations 2
linear solve p 381
time step continuity errors : sum local = 1.9841e-08, global = -3.94559e-21, cumulative = -1.30022e-20
[OGL LOG] init_host_sparsity_pattern : 92 ms
[OGL LOG] matrix not stored update host matrix
[OGL LOG] update_host_mtx : 45 ms
[OGL LOG] matrix is not yet sorted, sorting host matrix
[OGL LOG] sort_host_mtx_sparsity_pattern : 68 ms
[OGL LOG] sort_host_mtx : 36 ms
[OGL LOG] init_preconditioner : 0 ms
[OGL LOG] solve : 121 ms
nonecudaGKOIR:  Solving for p, Initial residual = 0.135366, Final residual = 3.41927e-05, No Iterations 2
linear solve p 385
time step continuity errors : sum local = 1.49471e-08, global = -3.431e-22, cumulative = -1.33453e-20
ExecutionTime = 14.4 s  ClockTime = 15 s

Time = 0.009

Courant Number mean: 0.0938429 max: 0.652169
nonePBiCGStab:  Solving for Ux, Initial residual = 0.00954367, Final residual = 0.000528981, No Iterations 5
nonePBiCGStab:  Solving for Uy, Initial residual = 0.0225866, Final residual = 0.00091142, No Iterations 5
nonePBiCGStab:  Solving for Uz, Initial residual = 0.0491183, Final residual = 0.00383184, No Iterations 5
linear solve U 184
[OGL LOG] init_host_sparsity_pattern : 94 ms
[OGL LOG] matrix not stored update host matrix
[OGL LOG] update_host_mtx : 45 ms
[OGL LOG] matrix is not yet sorted, sorting host matrix
[OGL LOG] sort_host_mtx_sparsity_pattern : 66 ms
[OGL LOG] sort_host_mtx : 35 ms
[OGL LOG] init_preconditioner : 0 ms
[OGL LOG] solve : 75 ms
nonecudaGKOIR:  Solving for p, Initial residual = 0.128685, Final residual = 2.80105e-05, No Iterations 2
linear solve p 339
time step continuity errors : sum local = 1.23512e-08, global = 3.48367e-21, cumulative = -9.8616e-21
[OGL LOG] init_host_sparsity_pattern : 92 ms
[OGL LOG] matrix not stored update host matrix
[OGL LOG] update_host_mtx : 45 ms
[OGL LOG] matrix is not yet sorted, sorting host matrix
[OGL LOG] sort_host_mtx_sparsity_pattern : 67 ms
[OGL LOG] sort_host_mtx : 35 ms
[OGL LOG] init_preconditioner : 0 ms
[OGL LOG] solve : 75 ms
nonecudaGKOIR:  Solving for p, Initial residual = 0.108624, Final residual = 2.40553e-05, No Iterations 2
linear solve p 335
time step continuity errors : sum local = 1.03466e-08, global = 1.53693e-20, cumulative = 5.50772e-21
ExecutionTime = 15.46 s  ClockTime = 16 s

Time = 0.01

Courant Number mean: 0.0974268 max: 0.654379
nonePBiCGStab:  Solving for Ux, Initial residual = 0.00811538, Final residual = 0.000411671, No Iterations 5
nonePBiCGStab:  Solving for Uy, Initial residual = 0.0188459, Final residual = 0.000631809, No Iterations 5
nonePBiCGStab:  Solving for Uz, Initial residual = 0.041892, Final residual = 0.00365173, No Iterations 5
linear solve U 184
[OGL LOG] init_host_sparsity_pattern : 92 ms
[OGL LOG] matrix not stored update host matrix
[OGL LOG] update_host_mtx : 45 ms
[OGL LOG] matrix is not yet sorted, sorting host matrix
[OGL LOG] sort_host_mtx_sparsity_pattern : 66 ms
[OGL LOG] sort_host_mtx : 35 ms
[OGL LOG] init_preconditioner : 0 ms
[OGL LOG] solve : 79 ms
nonecudaGKOIR:  Solving for p, Initial residual = 0.0947614, Final residual = 2.14075e-05, No Iterations 2
linear solve p 341
time step continuity errors : sum local = 1.01304e-08, global = 9.54936e-21, cumulative = 1.50571e-20
[OGL LOG] init_host_sparsity_pattern : 92 ms
[OGL LOG] matrix not stored update host matrix
[OGL LOG] update_host_mtx : 46 ms
[OGL LOG] matrix is not yet sorted, sorting host matrix
[OGL LOG] sort_host_mtx_sparsity_pattern : 72 ms
[OGL LOG] sort_host_mtx : 39 ms
[OGL LOG] init_preconditioner : 0 ms
[OGL LOG] solve : 75 ms
nonecudaGKOIR:  Solving for p, Initial residual = 0.0798019, Final residual = 1.69613e-05, No Iterations 2
linear solve p 349
time step continuity errors : sum local = 7.62296e-09, global = 7.4632e-21, cumulative = 2.25203e-20
ExecutionTime = 16.54 s  ClockTime = 17 s

End

