/*---------------------------------------------------------------------------*\
  =========                 |
  \\      /  F ield         | OpenFOAM: The Open Source CFD Toolbox
   \\    /   O peration     | Website:  https://openfoam.org
    \\  /    A nd           | Version:  8
     \\/     M anipulation  |
\*---------------------------------------------------------------------------*/
Build  : 8-40a5a48f630f
Exec   : icoFoam
Date   : Jul 27 2021
Time   : 22:52:28
Host   : "uc2n481.localdomain"
PID    : 162589
I/O    : uncollated
Case   : /pfs/data5/home/kit/scc/nq7776/code/OBR/lidDrivenCavity3D/Variation_mesh/80/Variation_matrix_solver/CG_NoPrecond_CUDA/base
nProcs : 1
sigFpe : Enabling floating point exception trapping (FOAM_SIGFPE).
fileModificationChecking : Monitoring run-time modified files using timeStampMaster (fileModificationSkew 10)
allowSystemOperations : Allowing user-supplied system call operations

// * * * * * * * * * * * * * * * * * * * * * * * * * * * * * * * * * * * * * //
Create time

Create mesh for time = 0

Reading transportProperties

Reading field p

Reading field U

Reading/calculating face flux field phi


Starting time loop

Time = 0.001

Courant Number mean: 0 max: 0
nonePBiCGStab:  Solving for Ux, Initial residual = 1, Final residual = 0.0679229, No Iterations 5
nonePBiCGStab:  Solving for Uy, Initial residual = 0, Final residual = 0, No Iterations 0
nonePBiCGStab:  Solving for Uz, Initial residual = 0, Final residual = 0, No Iterations 0
linear solve U 143
[OGL LOG] init_host_sparsity_pattern : 142 ms
[OGL LOG] matrix not stored update host matrix
[OGL LOG] update_host_mtx : 77 ms
[OGL LOG] matrix is not yet sorted, compute sorting idxs
[OGL LOG] compute_sort : 4523 ms
[OGL LOG] matrix is not yet sorted, sorting host matrix
[OGL LOG] sort_host_mtx_sparsity_pattern : 105 ms
[OGL LOG] sort_host_mtx : 59 ms
[OGL LOG] init_preconditioner : 0 ms
[OGL LOG] solve : 448 ms
nonecudaGKOCG:  Solving for p, Initial residual = 1, Final residual = 9.83658e-05, No Iterations 632
linear solve p 6175
time step continuity errors : sum local = 4.27966e-08, global = 6.91924e-22, cumulative = 6.91924e-22
[OGL LOG] init_host_sparsity_pattern : 139 ms
[OGL LOG] matrix not stored update host matrix
[OGL LOG] update_host_mtx : 77 ms
[OGL LOG] matrix is not yet sorted, sorting host matrix
[OGL LOG] sort_host_mtx_sparsity_pattern : 111 ms
[OGL LOG] sort_host_mtx : 52 ms
[OGL LOG] init_preconditioner : 0 ms
[OGL LOG] solve : 444 ms
nonecudaGKOCG:  Solving for p, Initial residual = 0.693089, Final residual = 9.61798e-05, No Iterations 623
linear solve p 863
time step continuity errors : sum local = 5.85803e-08, global = 1.70945e-20, cumulative = 1.77865e-20
ExecutionTime = 9.28 s  ClockTime = 9 s

Time = 0.002

Courant Number mean: 0.0375484 max: 0.607434
nonePBiCGStab:  Solving for Ux, Initial residual = 0.144186, Final residual = 0.0301434, No Iterations 5
nonePBiCGStab:  Solving for Uy, Initial residual = 0.403764, Final residual = 0.079177, No Iterations 5
nonePBiCGStab:  Solving for Uz, Initial residual = 0.984245, Final residual = 0.230851, No Iterations 5
linear solve U 289
[OGL LOG] init_host_sparsity_pattern : 144 ms
[OGL LOG] matrix not stored update host matrix
[OGL LOG] update_host_mtx : 76 ms
[OGL LOG] matrix is not yet sorted, sorting host matrix
[OGL LOG] sort_host_mtx_sparsity_pattern : 111 ms
[OGL LOG] sort_host_mtx : 53 ms
[OGL LOG] init_preconditioner : 0 ms
[OGL LOG] solve : 442 ms
nonecudaGKOCG:  Solving for p, Initial residual = 0.730358, Final residual = 9.39818e-05, No Iterations 617
linear solve p 860
time step continuity errors : sum local = 8.35759e-08, global = 1.3797e-22, cumulative = 1.79244e-20
[OGL LOG] init_host_sparsity_pattern : 144 ms
[OGL LOG] matrix not stored update host matrix
[OGL LOG] update_host_mtx : 77 ms
[OGL LOG] matrix is not yet sorted, sorting host matrix
[OGL LOG] sort_host_mtx_sparsity_pattern : 106 ms
[OGL LOG] sort_host_mtx : 53 ms
[OGL LOG] init_preconditioner : 0 ms
[OGL LOG] solve : 442 ms
nonecudaGKOCG:  Solving for p, Initial residual = 0.65194, Final residual = 9.90054e-05, No Iterations 615
linear solve p 858
time step continuity errors : sum local = 8.97904e-08, global = -1.04668e-20, cumulative = 7.45761e-21
ExecutionTime = 11.6 s  ClockTime = 12 s

Time = 0.003

Courant Number mean: 0.0586299 max: 0.703941
nonePBiCGStab:  Solving for Ux, Initial residual = 0.0576443, Final residual = 0.0100371, No Iterations 5
nonePBiCGStab:  Solving for Uy, Initial residual = 0.15746, Final residual = 0.036251, No Iterations 5
nonePBiCGStab:  Solving for Uz, Initial residual = 0.573576, Final residual = 0.125857, No Iterations 5
linear solve U 291
[OGL LOG] init_host_sparsity_pattern : 143 ms
[OGL LOG] matrix not stored update host matrix
[OGL LOG] update_host_mtx : 76 ms
[OGL LOG] matrix is not yet sorted, sorting host matrix
[OGL LOG] sort_host_mtx_sparsity_pattern : 106 ms
[OGL LOG] sort_host_mtx : 54 ms
[OGL LOG] init_preconditioner : 0 ms
[OGL LOG] solve : 443 ms
nonecudaGKOCG:  Solving for p, Initial residual = 0.699594, Final residual = 9.5514e-05, No Iterations 613
linear solve p 858
time step continuity errors : sum local = 6.12192e-08, global = -4.13257e-21, cumulative = 3.32504e-21
[OGL LOG] init_host_sparsity_pattern : 143 ms
[OGL LOG] matrix not stored update host matrix
[OGL LOG] update_host_mtx : 78 ms
[OGL LOG] matrix is not yet sorted, sorting host matrix
[OGL LOG] sort_host_mtx_sparsity_pattern : 106 ms
[OGL LOG] sort_host_mtx : 53 ms
[OGL LOG] init_preconditioner : 0 ms
[OGL LOG] solve : 437 ms
nonecudaGKOCG:  Solving for p, Initial residual = 0.631252, Final residual = 9.35861e-05, No Iterations 612
linear solve p 852
time step continuity errors : sum local = 5.83171e-08, global = 1.30193e-21, cumulative = 4.62697e-21
ExecutionTime = 13.92 s  ClockTime = 14 s

Time = 0.004

Courant Number mean: 0.0703594 max: 0.720481
nonePBiCGStab:  Solving for Ux, Initial residual = 0.0347262, Final residual = 0.00567931, No Iterations 5
nonePBiCGStab:  Solving for Uy, Initial residual = 0.107392, Final residual = 0.0220174, No Iterations 5
nonePBiCGStab:  Solving for Uz, Initial residual = 0.335506, Final residual = 0.0632939, No Iterations 5
linear solve U 289
[OGL LOG] init_host_sparsity_pattern : 143 ms
[OGL LOG] matrix not stored update host matrix
[OGL LOG] update_host_mtx : 76 ms
[OGL LOG] matrix is not yet sorted, sorting host matrix
[OGL LOG] sort_host_mtx_sparsity_pattern : 106 ms
[OGL LOG] sort_host_mtx : 53 ms
[OGL LOG] init_preconditioner : 0 ms
[OGL LOG] solve : 214 ms
nonecudaGKOCG:  Solving for p, Initial residual = 0.556714, Final residual = 9.90908e-05, No Iterations 296
linear solve p 625
time step continuity errors : sum local = 6.24796e-08, global = -1.38405e-21, cumulative = 3.24292e-21
[OGL LOG] init_host_sparsity_pattern : 143 ms
[OGL LOG] matrix not stored update host matrix
[OGL LOG] update_host_mtx : 77 ms
[OGL LOG] matrix is not yet sorted, sorting host matrix
[OGL LOG] sort_host_mtx_sparsity_pattern : 107 ms
[OGL LOG] sort_host_mtx : 54 ms
[OGL LOG] init_preconditioner : 0 ms
[OGL LOG] solve : 216 ms
nonecudaGKOCG:  Solving for p, Initial residual = 0.474228, Final residual = 9.64604e-05, No Iterations 294
linear solve p 632
time step continuity errors : sum local = 6.14487e-08, global = -4.42824e-21, cumulative = -1.18532e-21
ExecutionTime = 15.78 s  ClockTime = 16 s

Time = 0.005

Courant Number mean: 0.0800702 max: 0.732219
nonePBiCGStab:  Solving for Ux, Initial residual = 0.0254683, Final residual = 0.0038107, No Iterations 5
nonePBiCGStab:  Solving for Uy, Initial residual = 0.0681738, Final residual = 0.0150364, No Iterations 5
nonePBiCGStab:  Solving for Uz, Initial residual = 0.175048, Final residual = 0.0408842, No Iterations 5
linear solve U 289
[OGL LOG] init_host_sparsity_pattern : 143 ms
[OGL LOG] matrix not stored update host matrix
[OGL LOG] update_host_mtx : 76 ms
[OGL LOG] matrix is not yet sorted, sorting host matrix
[OGL LOG] sort_host_mtx_sparsity_pattern : 111 ms
[OGL LOG] sort_host_mtx : 53 ms
[OGL LOG] init_preconditioner : 0 ms
[OGL LOG] solve : 212 ms
nonecudaGKOCG:  Solving for p, Initial residual = 0.5587, Final residual = 9.95859e-05, No Iterations 293
linear solve p 629
time step continuity errors : sum local = 6.17023e-08, global = 6.72733e-21, cumulative = 5.54201e-21
[OGL LOG] init_host_sparsity_pattern : 146 ms
[OGL LOG] matrix not stored update host matrix
[OGL LOG] update_host_mtx : 76 ms
[OGL LOG] matrix is not yet sorted, sorting host matrix
[OGL LOG] sort_host_mtx_sparsity_pattern : 109 ms
[OGL LOG] sort_host_mtx : 53 ms
[OGL LOG] init_preconditioner : 0 ms
[OGL LOG] solve : 209 ms
nonecudaGKOCG:  Solving for p, Initial residual = 0.487288, Final residual = 9.44897e-05, No Iterations 289
linear solve p 627
time step continuity errors : sum local = 5.19695e-08, global = 9.95581e-21, cumulative = 1.54978e-20
ExecutionTime = 17.63 s  ClockTime = 18 s

Time = 0.006

Courant Number mean: 0.0876265 max: 0.739074
nonePBiCGStab:  Solving for Ux, Initial residual = 0.0191307, Final residual = 0.00262786, No Iterations 5
nonePBiCGStab:  Solving for Uy, Initial residual = 0.0527763, Final residual = 0.00970154, No Iterations 5
nonePBiCGStab:  Solving for Uz, Initial residual = 0.139871, Final residual = 0.0308593, No Iterations 5
linear solve U 289
[OGL LOG] init_host_sparsity_pattern : 143 ms
[OGL LOG] matrix not stored update host matrix
[OGL LOG] update_host_mtx : 77 ms
[OGL LOG] matrix is not yet sorted, sorting host matrix
[OGL LOG] sort_host_mtx_sparsity_pattern : 106 ms
[OGL LOG] sort_host_mtx : 53 ms
[OGL LOG] init_preconditioner : 0 ms
[OGL LOG] solve : 210 ms
nonecudaGKOCG:  Solving for p, Initial residual = 0.46, Final residual = 9.99858e-05, No Iterations 290
linear solve p 623
time step continuity errors : sum local = 6.13562e-08, global = 8.06474e-21, cumulative = 2.35626e-20
[OGL LOG] init_host_sparsity_pattern : 147 ms
[OGL LOG] matrix not stored update host matrix
[OGL LOG] update_host_mtx : 79 ms
[OGL LOG] matrix is not yet sorted, sorting host matrix
[OGL LOG] sort_host_mtx_sparsity_pattern : 107 ms
[OGL LOG] sort_host_mtx : 53 ms
[OGL LOG] init_preconditioner : 0 ms
[OGL LOG] solve : 208 ms
nonecudaGKOCG:  Solving for p, Initial residual = 0.390991, Final residual = 9.87211e-05, No Iterations 287
linear solve p 630
time step continuity errors : sum local = 5.54675e-08, global = 2.4343e-21, cumulative = 2.59968e-20
ExecutionTime = 19.47 s  ClockTime = 20 s

Time = 0.007

Courant Number mean: 0.0940977 max: 0.744015
nonePBiCGStab:  Solving for Ux, Initial residual = 0.015459, Final residual = 0.00190869, No Iterations 5
nonePBiCGStab:  Solving for Uy, Initial residual = 0.0406337, Final residual = 0.00729466, No Iterations 5
nonePBiCGStab:  Solving for Uz, Initial residual = 0.101256, Final residual = 0.0226435, No Iterations 5
linear solve U 289
[OGL LOG] init_host_sparsity_pattern : 147 ms
[OGL LOG] matrix not stored update host matrix
[OGL LOG] update_host_mtx : 79 ms
[OGL LOG] matrix is not yet sorted, sorting host matrix
[OGL LOG] sort_host_mtx_sparsity_pattern : 109 ms
[OGL LOG] sort_host_mtx : 53 ms
[OGL LOG] init_preconditioner : 0 ms
[OGL LOG] solve : 418 ms
nonecudaGKOCG:  Solving for p, Initial residual = 0.465668, Final residual = 9.55316e-05, No Iterations 579
linear solve p 842
time step continuity errors : sum local = 4.62575e-08, global = 1.56791e-21, cumulative = 2.75648e-20
[OGL LOG] init_host_sparsity_pattern : 144 ms
[OGL LOG] matrix not stored update host matrix
[OGL LOG] update_host_mtx : 79 ms
[OGL LOG] matrix is not yet sorted, sorting host matrix
[OGL LOG] sort_host_mtx_sparsity_pattern : 106 ms
[OGL LOG] sort_host_mtx : 52 ms
[OGL LOG] init_preconditioner : 0 ms
[OGL LOG] solve : 413 ms
nonecudaGKOCG:  Solving for p, Initial residual = 0.400611, Final residual = 9.54121e-05, No Iterations 578
linear solve p 829
time step continuity errors : sum local = 4.59381e-08, global = 1.46452e-21, cumulative = 2.90293e-20
ExecutionTime = 21.74 s  ClockTime = 22 s

Time = 0.008

Courant Number mean: 0.0995637 max: 0.747796
nonePBiCGStab:  Solving for Ux, Initial residual = 0.012625, Final residual = 0.00143676, No Iterations 5
nonePBiCGStab:  Solving for Uy, Initial residual = 0.0333647, Final residual = 0.0046015, No Iterations 5
nonePBiCGStab:  Solving for Uz, Initial residual = 0.0860269, Final residual = 0.0192104, No Iterations 5
linear solve U 289
[OGL LOG] init_host_sparsity_pattern : 144 ms
[OGL LOG] matrix not stored update host matrix
[OGL LOG] update_host_mtx : 77 ms
[OGL LOG] matrix is not yet sorted, sorting host matrix
[OGL LOG] sort_host_mtx_sparsity_pattern : 106 ms
[OGL LOG] sort_host_mtx : 53 ms
[OGL LOG] init_preconditioner : 0 ms
[OGL LOG] solve : 201 ms
nonecudaGKOCG:  Solving for p, Initial residual = 0.394893, Final residual = 9.43555e-05, No Iterations 278
linear solve p 616
time step continuity errors : sum local = 5.47776e-08, global = -1.88337e-20, cumulative = 1.01956e-20
[OGL LOG] init_host_sparsity_pattern : 143 ms
[OGL LOG] matrix not stored update host matrix
[OGL LOG] update_host_mtx : 77 ms
[OGL LOG] matrix is not yet sorted, sorting host matrix
[OGL LOG] sort_host_mtx_sparsity_pattern : 106 ms
[OGL LOG] sort_host_mtx : 53 ms
[OGL LOG] init_preconditioner : 0 ms
[OGL LOG] solve : 199 ms
nonecudaGKOCG:  Solving for p, Initial residual = 0.336033, Final residual = 9.87391e-05, No Iterations 275
linear solve p 612
time step continuity errors : sum local = 5.26657e-08, global = 5.55858e-21, cumulative = 1.57542e-20
ExecutionTime = 23.56 s  ClockTime = 24 s

Time = 0.009

Courant Number mean: 0.104377 max: 0.750641
nonePBiCGStab:  Solving for Ux, Initial residual = 0.0107146, Final residual = 0.00111437, No Iterations 5
nonePBiCGStab:  Solving for Uy, Initial residual = 0.0276032, Final residual = 0.00391286, No Iterations 5
nonePBiCGStab:  Solving for Uz, Initial residual = 0.0691442, Final residual = 0.0146642, No Iterations 5
linear solve U 288
[OGL LOG] init_host_sparsity_pattern : 144 ms
[OGL LOG] matrix not stored update host matrix
[OGL LOG] update_host_mtx : 77 ms
[OGL LOG] matrix is not yet sorted, sorting host matrix
[OGL LOG] sort_host_mtx_sparsity_pattern : 111 ms
[OGL LOG] sort_host_mtx : 53 ms
[OGL LOG] init_preconditioner : 0 ms
[OGL LOG] solve : 390 ms
nonecudaGKOCG:  Solving for p, Initial residual = 0.39031, Final residual = 9.93701e-05, No Iterations 543
linear solve p 810
time step continuity errors : sum local = 4.62478e-08, global = 1.51463e-20, cumulative = 3.09005e-20
[OGL LOG] init_host_sparsity_pattern : 144 ms
[OGL LOG] matrix not stored update host matrix
[OGL LOG] update_host_mtx : 77 ms
[OGL LOG] matrix is not yet sorted, sorting host matrix
[OGL LOG] sort_host_mtx_sparsity_pattern : 107 ms
[OGL LOG] sort_host_mtx : 53 ms
[OGL LOG] init_preconditioner : 0 ms
[OGL LOG] solve : 398 ms
nonecudaGKOCG:  Solving for p, Initial residual = 0.333971, Final residual = 9.9734e-05, No Iterations 557
linear solve p 813
time step continuity errors : sum local = 4.63095e-08, global = 1.27549e-20, cumulative = 4.36554e-20
ExecutionTime = 25.79 s  ClockTime = 26 s

Time = 0.01

Courant Number mean: 0.108569 max: 0.753043
nonePBiCGStab:  Solving for Ux, Initial residual = 0.00907083, Final residual = 0.000865866, No Iterations 5
nonePBiCGStab:  Solving for Uy, Initial residual = 0.0235903, Final residual = 0.00259041, No Iterations 5
nonePBiCGStab:  Solving for Uz, Initial residual = 0.0611375, Final residual = 0.0135424, No Iterations 5
linear solve U 292
[OGL LOG] init_host_sparsity_pattern : 144 ms
[OGL LOG] matrix not stored update host matrix
[OGL LOG] update_host_mtx : 77 ms
[OGL LOG] matrix is not yet sorted, sorting host matrix
[OGL LOG] sort_host_mtx_sparsity_pattern : 105 ms
[OGL LOG] sort_host_mtx : 53 ms
[OGL LOG] init_preconditioner : 0 ms
[OGL LOG] solve : 195 ms
nonecudaGKOCG:  Solving for p, Initial residual = 0.338832, Final residual = 9.81811e-05, No Iterations 269
linear solve p 608
time step continuity errors : sum local = 5.33367e-08, global = -1.62163e-20, cumulative = 2.74391e-20
[OGL LOG] init_host_sparsity_pattern : 146 ms
[OGL LOG] matrix not stored update host matrix
[OGL LOG] update_host_mtx : 76 ms
[OGL LOG] matrix is not yet sorted, sorting host matrix
[OGL LOG] sort_host_mtx_sparsity_pattern : 107 ms
[OGL LOG] sort_host_mtx : 52 ms
[OGL LOG] init_preconditioner : 0 ms
[OGL LOG] solve : 191 ms
nonecudaGKOCG:  Solving for p, Initial residual = 0.288943, Final residual = 9.81292e-05, No Iterations 264
linear solve p 606
time step continuity errors : sum local = 4.90777e-08, global = 1.4664e-20, cumulative = 4.21031e-20
ExecutionTime = 27.61 s  ClockTime = 28 s

End

