/*---------------------------------------------------------------------------*\
  =========                 |
  \\      /  F ield         | OpenFOAM: The Open Source CFD Toolbox
   \\    /   O peration     | Website:  https://openfoam.org
    \\  /    A nd           | Version:  8
     \\/     M anipulation  |
\*---------------------------------------------------------------------------*/
Build  : 8-40a5a48f630f
Exec   : icoFoam
Date   : Jul 28 2021
Time   : 01:43:31
Host   : "uc2n559.localdomain"
PID    : 3609745
I/O    : uncollated
Case   : /pfs/data5/home/kit/scc/nq7776/code/OBR/lidDrivenCavity3D/Variation_mesh/90/Variation_matrix_solver/CG_BJ_OMP/base
nProcs : 1
sigFpe : Enabling floating point exception trapping (FOAM_SIGFPE).
fileModificationChecking : Monitoring run-time modified files using timeStampMaster (fileModificationSkew 10)
allowSystemOperations : Allowing user-supplied system call operations

// * * * * * * * * * * * * * * * * * * * * * * * * * * * * * * * * * * * * * //
Create time

Create mesh for time = 0

Reading transportProperties

Reading field p

Reading field U

Reading/calculating face flux field phi


Starting time loop

Time = 0.001

Courant Number mean: 0 max: 0
nonePBiCGStab:  Solving for Ux, Initial residual = 1, Final residual = 0.0756268, No Iterations 5
nonePBiCGStab:  Solving for Uy, Initial residual = 0, Final residual = 0, No Iterations 0
nonePBiCGStab:  Solving for Uz, Initial residual = 0, Final residual = 0, No Iterations 0
linear solve U 189
[OGL LOG] init_host_sparsity_pattern : 207 ms
[OGL LOG] matrix not stored update host matrix
[OGL LOG] update_host_mtx : 107 ms
[OGL LOG] matrix is not yet sorted, compute sorting idxs
[OGL LOG] compute_sort : 6542 ms
[OGL LOG] matrix is not yet sorted, sorting host matrix
[OGL LOG] sort_host_mtx_sparsity_pattern : 150 ms
[OGL LOG] sort_host_mtx : 90 ms
[OGL LOG] init_preconditioner : 35 ms
 CG create  precond 
[OGL LOG] solve : 6446 ms
BJompGKOCG:  Solving for p, Initial residual = 1, Final residual = 9.87342e-05, No Iterations 590
linear solve p 13769
time step continuity errors : sum local = 4.00662e-08, global = -6.67249e-21, cumulative = -6.67249e-21
[OGL LOG] init_host_sparsity_pattern : 221 ms
[OGL LOG] matrix not stored update host matrix
[OGL LOG] update_host_mtx : 117 ms
[OGL LOG] matrix is not yet sorted, sorting host matrix
[OGL LOG] sort_host_mtx_sparsity_pattern : 176 ms
[OGL LOG] sort_host_mtx : 94 ms
[OGL LOG] init_preconditioner : 0 ms
 CG create  precond 
[OGL LOG] solve : 5963 ms
BJompGKOCG:  Solving for p, Initial residual = 0.701328, Final residual = 9.98028e-05, No Iterations 574
linear solve p 6726
time step continuity errors : sum local = 5.63504e-08, global = 9.59741e-21, cumulative = 2.92492e-21
ExecutionTime = 407.14 s  ClockTime = 24 s

End

