/*---------------------------------------------------------------------------*\
  =========                 |
  \\      /  F ield         | OpenFOAM: The Open Source CFD Toolbox
   \\    /   O peration     | Website:  https://openfoam.org
    \\  /    A nd           | Version:  8
     \\/     M anipulation  |
\*---------------------------------------------------------------------------*/
Build  : 8-40a5a48f630f
Exec   : icoFoam
Date   : Jul 28 2021
Time   : 02:54:41
Host   : "uc2n476.localdomain"
PID    : 1922302
I/O    : uncollated
Case   : /pfs/data5/home/kit/scc/nq7776/code/OBR/lidDrivenCavity3D/Variation_mesh/95/Variation_matrix_solver/CG_NoPrecond_Serial/base
nProcs : 1
sigFpe : Enabling floating point exception trapping (FOAM_SIGFPE).
fileModificationChecking : Monitoring run-time modified files using timeStampMaster (fileModificationSkew 10)
allowSystemOperations : Allowing user-supplied system call operations

// * * * * * * * * * * * * * * * * * * * * * * * * * * * * * * * * * * * * * //
Create time

Create mesh for time = 0

Reading transportProperties

Reading field p

Reading field U

Reading/calculating face flux field phi


Starting time loop

Time = 0.001

Courant Number mean: 0 max: 0
nonePBiCGStab:  Solving for Ux, Initial residual = 1, Final residual = 0.078913, No Iterations 5
nonePBiCGStab:  Solving for Uy, Initial residual = 0, Final residual = 0, No Iterations 0
nonePBiCGStab:  Solving for Uz, Initial residual = 0, Final residual = 0, No Iterations 0
linear solve U 225
nonePCG:  Solving for p, Initial residual = 1, Final residual = 9.66185e-05, No Iterations 754
linear solve p 8521
time step continuity errors : sum local = 3.78707e-08, global = 6.33278e-21, cumulative = 6.33278e-21
nonePCG:  Solving for p, Initial residual = 0.704606, Final residual = 9.80555e-05, No Iterations 742
linear solve p 8369
time step continuity errors : sum local = 5.33475e-08, global = -1.02705e-21, cumulative = 5.30573e-21
ExecutionTime = 20.72 s  ClockTime = 20 s

Time = 0.002

Courant Number mean: 0.0412052 max: 0.745797
nonePBiCGStab:  Solving for Ux, Initial residual = 0.139163, Final residual = 0.0377852, No Iterations 5
nonePBiCGStab:  Solving for Uy, Initial residual = 0.440104, Final residual = 0.117163, No Iterations 5
nonePBiCGStab:  Solving for Uz, Initial residual = 0.986846, Final residual = 0.301642, No Iterations 5
linear solve U 461
nonePCG:  Solving for p, Initial residual = 0.777957, Final residual = 9.88369e-05, No Iterations 448
linear solve p 5071
time step continuity errors : sum local = 1.05135e-07, global = 1.08528e-21, cumulative = 6.39101e-21
nonePCG:  Solving for p, Initial residual = 0.701334, Final residual = 9.39816e-05, No Iterations 443
linear solve p 5048
time step continuity errors : sum local = 9.40501e-08, global = 3.85968e-21, cumulative = 1.02507e-20
ExecutionTime = 31.74 s  ClockTime = 31 s

Time = 0.003

Courant Number mean: 0.0654742 max: 0.85009
nonePBiCGStab:  Solving for Ux, Initial residual = 0.0603441, Final residual = 0.0137586, No Iterations 5
nonePBiCGStab:  Solving for Uy, Initial residual = 0.195594, Final residual = 0.0536791, No Iterations 5
nonePBiCGStab:  Solving for Uz, Initial residual = 0.690626, Final residual = 0.194522, No Iterations 5
linear solve U 499
nonePCG:  Solving for p, Initial residual = 0.778391, Final residual = 9.87349e-05, No Iterations 731
linear solve p 8823
time step continuity errors : sum local = 6.96916e-08, global = -3.64377e-21, cumulative = 6.60692e-21
nonePCG:  Solving for p, Initial residual = 0.707023, Final residual = 9.55182e-05, No Iterations 730
linear solve p 8249
time step continuity errors : sum local = 6.57022e-08, global = -3.58864e-21, cumulative = 3.01828e-21
ExecutionTime = 49.77 s  ClockTime = 50 s

Time = 0.004

Courant Number mean: 0.0789373 max: 0.864942
nonePBiCGStab:  Solving for Ux, Initial residual = 0.03764, Final residual = 0.00929836, No Iterations 5
nonePBiCGStab:  Solving for Uy, Initial residual = 0.138329, Final residual = 0.0427885, No Iterations 5
nonePBiCGStab:  Solving for Uz, Initial residual = 0.459937, Final residual = 0.116874, No Iterations 5
linear solve U 497
nonePCG:  Solving for p, Initial residual = 0.688447, Final residual = 9.87625e-05, No Iterations 351
linear solve p 3972
time step continuity errors : sum local = 7.65357e-08, global = 2.96686e-21, cumulative = 5.98514e-21
nonePCG:  Solving for p, Initial residual = 0.592653, Final residual = 9.78114e-05, No Iterations 349
linear solve p 3934
time step continuity errors : sum local = 7.37285e-08, global = -9.08668e-21, cumulative = -3.10154e-21
ExecutionTime = 58.64 s  ClockTime = 58 s

Time = 0.005

Courant Number mean: 0.0895856 max: 0.877408
nonePBiCGStab:  Solving for Ux, Initial residual = 0.0286417, Final residual = 0.0074678, No Iterations 5
nonePBiCGStab:  Solving for Uy, Initial residual = 0.0903063, Final residual = 0.0307364, No Iterations 5
nonePBiCGStab:  Solving for Uz, Initial residual = 0.271896, Final residual = 0.0689128, No Iterations 5
linear solve U 501
nonePCG:  Solving for p, Initial residual = 0.723936, Final residual = 9.52911e-05, No Iterations 346
linear solve p 3915
time step continuity errors : sum local = 6.49857e-08, global = 1.17488e-20, cumulative = 8.64726e-21
nonePCG:  Solving for p, Initial residual = 0.640192, Final residual = 9.66719e-05, No Iterations 344
linear solve p 3893
time step continuity errors : sum local = 6.29566e-08, global = 1.01889e-20, cumulative = 1.88361e-20
ExecutionTime = 67.43 s  ClockTime = 67 s

Time = 0.006

Courant Number mean: 0.0978353 max: 0.884253
nonePBiCGStab:  Solving for Ux, Initial residual = 0.022296, Final residual = 0.00592536, No Iterations 5
nonePBiCGStab:  Solving for Uy, Initial residual = 0.0723763, Final residual = 0.0240805, No Iterations 5
nonePBiCGStab:  Solving for Uz, Initial residual = 0.212579, Final residual = 0.0606794, No Iterations 5
linear solve U 495
nonePCG:  Solving for p, Initial residual = 0.651063, Final residual = 9.97581e-05, No Iterations 341
linear solve p 3878
time step continuity errors : sum local = 7.12195e-08, global = -1.42689e-20, cumulative = 4.56723e-21
nonePCG:  Solving for p, Initial residual = 0.558532, Final residual = 9.86522e-05, No Iterations 331
linear solve p 3746
time step continuity errors : sum local = 6.95265e-08, global = -3.22363e-20, cumulative = -2.7669e-20
ExecutionTime = 76.05 s  ClockTime = 76 s

Time = 0.007

Courant Number mean: 0.104798 max: 0.889602
nonePBiCGStab:  Solving for Ux, Initial residual = 0.0189468, Final residual = 0.00480462, No Iterations 5
nonePBiCGStab:  Solving for Uy, Initial residual = 0.0561813, Final residual = 0.0194372, No Iterations 5
nonePBiCGStab:  Solving for Uz, Initial residual = 0.159637, Final residual = 0.0447715, No Iterations 5
linear solve U 492
nonePCG:  Solving for p, Initial residual = 0.687881, Final residual = 9.7958e-05, No Iterations 330
linear solve p 3737
time step continuity errors : sum local = 6.43558e-08, global = 1.49416e-20, cumulative = -1.27274e-20
nonePCG:  Solving for p, Initial residual = 0.596932, Final residual = 9.99289e-05, No Iterations 328
linear solve p 3723
time step continuity errors : sum local = 6.3478e-08, global = 2.67669e-20, cumulative = 1.40395e-20
ExecutionTime = 84.48 s  ClockTime = 84 s

Time = 0.008

Courant Number mean: 0.110772 max: 0.893421
nonePBiCGStab:  Solving for Ux, Initial residual = 0.0158774, Final residual = 0.00431004, No Iterations 5
nonePBiCGStab:  Solving for Uy, Initial residual = 0.0483867, Final residual = 0.0143958, No Iterations 5
nonePBiCGStab:  Solving for Uz, Initial residual = 0.136275, Final residual = 0.0417548, No Iterations 5
linear solve U 497
nonePCG:  Solving for p, Initial residual = 0.627625, Final residual = 9.47004e-05, No Iterations 332
linear solve p 3836
time step continuity errors : sum local = 6.30682e-08, global = 1.76863e-20, cumulative = 3.17258e-20
nonePCG:  Solving for p, Initial residual = 0.536294, Final residual = 9.72131e-05, No Iterations 330
linear solve p 3739
time step continuity errors : sum local = 6.58156e-08, global = 1.05872e-20, cumulative = 4.23131e-20
ExecutionTime = 93.03 s  ClockTime = 93 s

Time = 0.009

Courant Number mean: 0.116048 max: 0.896651
nonePBiCGStab:  Solving for Ux, Initial residual = 0.0143156, Final residual = 0.00340161, No Iterations 5
nonePBiCGStab:  Solving for Uy, Initial residual = 0.0404788, Final residual = 0.0127258, No Iterations 5
nonePBiCGStab:  Solving for Uz, Initial residual = 0.11258, Final residual = 0.0338256, No Iterations 5
linear solve U 503
nonePCG:  Solving for p, Initial residual = 0.665898, Final residual = 9.98265e-05, No Iterations 341
linear solve p 3862
time step continuity errors : sum local = 6.93856e-08, global = 1.29758e-20, cumulative = 5.52889e-20
nonePCG:  Solving for p, Initial residual = 0.573321, Final residual = 9.54611e-05, No Iterations 330
linear solve p 3741
time step continuity errors : sum local = 6.2716e-08, global = 4.92796e-21, cumulative = 6.02168e-20
ExecutionTime = 101.61 s  ClockTime = 102 s

Time = 0.01

Courant Number mean: 0.12081 max: 0.899112
nonePBiCGStab:  Solving for Ux, Initial residual = 0.0124618, Final residual = 0.00287267, No Iterations 5
nonePBiCGStab:  Solving for Uy, Initial residual = 0.0364127, Final residual = 0.00974488, No Iterations 5
nonePBiCGStab:  Solving for Uz, Initial residual = 0.103736, Final residual = 0.0328503, No Iterations 5
linear solve U 504
nonePCG:  Solving for p, Initial residual = 0.612982, Final residual = 9.52798e-05, No Iterations 331
linear solve p 3743
time step continuity errors : sum local = 6.79123e-08, global = 7.60399e-21, cumulative = 6.78208e-20
nonePCG:  Solving for p, Initial residual = 0.524234, Final residual = 9.77234e-05, No Iterations 328
linear solve p 3716
time step continuity errors : sum local = 6.48004e-08, global = 3.12315e-21, cumulative = 7.09439e-20
ExecutionTime = 110.05 s  ClockTime = 110 s

End

