/*---------------------------------------------------------------------------*\
  =========                 |
  \\      /  F ield         | OpenFOAM: The Open Source CFD Toolbox
   \\    /   O peration     | Website:  https://openfoam.org
    \\  /    A nd           | Version:  8
     \\/     M anipulation  |
\*---------------------------------------------------------------------------*/
Build  : 8-40a5a48f630f
Exec   : icoFoam
Date   : Jul 28 2021
Time   : 01:59:08
Host   : "uc2n550.localdomain"
PID    : 1019785
I/O    : uncollated
Case   : /pfs/data5/home/kit/scc/nq7776/code/OBR/lidDrivenCavity3D/Variation_mesh/25/Variation_matrix_solver/BiCGStab_NoPrecond_OMP/base
nProcs : 1
sigFpe : Enabling floating point exception trapping (FOAM_SIGFPE).
fileModificationChecking : Monitoring run-time modified files using timeStampMaster (fileModificationSkew 10)
allowSystemOperations : Allowing user-supplied system call operations

// * * * * * * * * * * * * * * * * * * * * * * * * * * * * * * * * * * * * * //
Create time

Create mesh for time = 0

Reading transportProperties

Reading field p

Reading field U

Reading/calculating face flux field phi


Starting time loop

Time = 0.001

Courant Number mean: 0 max: 0
nonePBiCGStab:  Solving for Ux, Initial residual = 1, Final residual = 0.00310183, No Iterations 5
nonePBiCGStab:  Solving for Uy, Initial residual = 0, Final residual = 0, No Iterations 0
nonePBiCGStab:  Solving for Uz, Initial residual = 0, Final residual = 0, No Iterations 0
linear solve U 2
[OGL LOG] init_host_sparsity_pattern : 4 ms
[OGL LOG] matrix not stored update host matrix
[OGL LOG] update_host_mtx : 2 ms
[OGL LOG] matrix is not yet sorted, compute sorting idxs
[OGL LOG] compute_sort : 105 ms
[OGL LOG] matrix is not yet sorted, sorting host matrix
[OGL LOG] sort_host_mtx_sparsity_pattern : 3 ms
[OGL LOG] sort_host_mtx : 1 ms
[OGL LOG] init_preconditioner : 0 ms
[OGL LOG] solve : 64 ms
noneompGKOBiCGStab:  Solving for p, Initial residual = 1, Final residual = 7.67433e-05, No Iterations 160
linear solve p 186
time step continuity errors : sum local = 1.49115e-07, global = -1.89375e-20, cumulative = -1.89375e-20
[OGL LOG] init_host_sparsity_pattern : 4 ms
[OGL LOG] matrix not stored update host matrix
[OGL LOG] update_host_mtx : 2 ms
[OGL LOG] matrix is not yet sorted, sorting host matrix
[OGL LOG] sort_host_mtx_sparsity_pattern : 3 ms
[OGL LOG] sort_host_mtx : 1 ms
[OGL LOG] init_preconditioner : 0 ms
[OGL LOG] solve : 63 ms
noneompGKOBiCGStab:  Solving for p, Initial residual = 0.480772, Final residual = 9.14798e-05, No Iterations 161
linear solve p 76
time step continuity errors : sum local = 5.1677e-07, global = 2.31116e-20, cumulative = 4.17411e-21
ExecutionTime = 0.76 s  ClockTime = 0 s

Time = 0.002

Courant Number mean: 0.0119709 max: 0.106554
nonePBiCGStab:  Solving for Ux, Initial residual = 0.210816, Final residual = 0.000695342, No Iterations 5
nonePBiCGStab:  Solving for Uy, Initial residual = 0.284549, Final residual = 0.000646943, No Iterations 5
nonePBiCGStab:  Solving for Uz, Initial residual = 0.877605, Final residual = 0.00337832, No Iterations 5
linear solve U 5
[OGL LOG] init_host_sparsity_pattern : 4 ms
[OGL LOG] matrix not stored update host matrix
[OGL LOG] update_host_mtx : 2 ms
[OGL LOG] matrix is not yet sorted, sorting host matrix
[OGL LOG] sort_host_mtx_sparsity_pattern : 3 ms
[OGL LOG] sort_host_mtx : 1 ms
[OGL LOG] init_preconditioner : 0 ms
[OGL LOG] solve : 59 ms
noneompGKOBiCGStab:  Solving for p, Initial residual = 0.286199, Final residual = 7.94759e-05, No Iterations 149
linear solve p 71
time step continuity errors : sum local = 6.66619e-07, global = -6.73935e-21, cumulative = -2.56524e-21
[OGL LOG] init_host_sparsity_pattern : 4 ms
[OGL LOG] matrix not stored update host matrix
[OGL LOG] update_host_mtx : 2 ms
[OGL LOG] matrix is not yet sorted, sorting host matrix
[OGL LOG] sort_host_mtx_sparsity_pattern : 2 ms
[OGL LOG] sort_host_mtx : 1 ms
[OGL LOG] init_preconditioner : 0 ms
[OGL LOG] solve : 57 ms
noneompGKOBiCGStab:  Solving for p, Initial residual = 0.189823, Final residual = 9.31499e-05, No Iterations 146
linear solve p 70
time step continuity errors : sum local = 6.68892e-07, global = -1.80201e-21, cumulative = -4.36726e-21
ExecutionTime = 1.29 s  ClockTime = 0 s

Time = 0.003

Courant Number mean: 0.0188464 max: 0.153564
nonePBiCGStab:  Solving for Ux, Initial residual = 0.0900117, Final residual = 0.000292261, No Iterations 5
nonePBiCGStab:  Solving for Uy, Initial residual = 0.124852, Final residual = 0.000204433, No Iterations 5
nonePBiCGStab:  Solving for Uz, Initial residual = 0.27164, Final residual = 0.000992565, No Iterations 5
linear solve U 5
[OGL LOG] init_host_sparsity_pattern : 4 ms
[OGL LOG] matrix not stored update host matrix
[OGL LOG] update_host_mtx : 2 ms
[OGL LOG] matrix is not yet sorted, sorting host matrix
[OGL LOG] sort_host_mtx_sparsity_pattern : 3 ms
[OGL LOG] sort_host_mtx : 1 ms
[OGL LOG] init_preconditioner : 0 ms
[OGL LOG] solve : 54 ms
noneompGKOBiCGStab:  Solving for p, Initial residual = 0.103811, Final residual = 9.99878e-05, No Iterations 137
linear solve p 67
time step continuity errors : sum local = 2.56087e-07, global = -9.02764e-21, cumulative = -1.33949e-20
[OGL LOG] init_host_sparsity_pattern : 4 ms
[OGL LOG] matrix not stored update host matrix
[OGL LOG] update_host_mtx : 2 ms
[OGL LOG] matrix is not yet sorted, sorting host matrix
[OGL LOG] sort_host_mtx_sparsity_pattern : 3 ms
[OGL LOG] sort_host_mtx : 1 ms
[OGL LOG] init_preconditioner : 0 ms
[OGL LOG] solve : 53 ms
noneompGKOBiCGStab:  Solving for p, Initial residual = 0.0703819, Final residual = 9.96208e-05, No Iterations 133
linear solve p 66
time step continuity errors : sum local = 2.34833e-07, global = 1.98155e-20, cumulative = 6.42063e-21
ExecutionTime = 1.79 s  ClockTime = 0 s

Time = 0.004

Courant Number mean: 0.0233145 max: 0.175119
nonePBiCGStab:  Solving for Ux, Initial residual = 0.052097, Final residual = 0.000103126, No Iterations 5
nonePBiCGStab:  Solving for Uy, Initial residual = 0.0743087, Final residual = 7.10067e-05, No Iterations 5
nonePBiCGStab:  Solving for Uz, Initial residual = 0.130688, Final residual = 0.000303996, No Iterations 5
linear solve U 5
[OGL LOG] init_host_sparsity_pattern : 4 ms
[OGL LOG] matrix not stored update host matrix
[OGL LOG] update_host_mtx : 2 ms
[OGL LOG] matrix is not yet sorted, sorting host matrix
[OGL LOG] sort_host_mtx_sparsity_pattern : 3 ms
[OGL LOG] sort_host_mtx : 1 ms
[OGL LOG] init_preconditioner : 0 ms
[OGL LOG] solve : 21 ms
noneompGKOBiCGStab:  Solving for p, Initial residual = 0.0553287, Final residual = 8.41625e-05, No Iterations 54
linear solve p 34
time step continuity errors : sum local = 9.36258e-08, global = 2.74996e-20, cumulative = 3.39202e-20
[OGL LOG] init_host_sparsity_pattern : 4 ms
[OGL LOG] matrix not stored update host matrix
[OGL LOG] update_host_mtx : 2 ms
[OGL LOG] matrix is not yet sorted, sorting host matrix
[OGL LOG] sort_host_mtx_sparsity_pattern : 3 ms
[OGL LOG] sort_host_mtx : 1 ms
[OGL LOG] init_preconditioner : 0 ms
[OGL LOG] solve : 22 ms
noneompGKOBiCGStab:  Solving for p, Initial residual = 0.0371015, Final residual = 9.82171e-05, No Iterations 55
linear solve p 35
time step continuity errors : sum local = 1.23972e-07, global = 2.10592e-20, cumulative = 5.49795e-20
ExecutionTime = 2.03 s  ClockTime = 1 s

Time = 0.005

Courant Number mean: 0.0264937 max: 0.186504
nonePBiCGStab:  Solving for Ux, Initial residual = 0.0351263, Final residual = 3.76228e-05, No Iterations 5
nonePBiCGStab:  Solving for Uy, Initial residual = 0.0508452, Final residual = 2.72626e-05, No Iterations 5
nonePBiCGStab:  Solving for Uz, Initial residual = 0.0917765, Final residual = 0.00013793, No Iterations 5
linear solve U 5
[OGL LOG] init_host_sparsity_pattern : 4 ms
[OGL LOG] matrix not stored update host matrix
[OGL LOG] update_host_mtx : 2 ms
[OGL LOG] matrix is not yet sorted, sorting host matrix
[OGL LOG] sort_host_mtx_sparsity_pattern : 2 ms
[OGL LOG] sort_host_mtx : 1 ms
[OGL LOG] init_preconditioner : 0 ms
[OGL LOG] solve : 21 ms
noneompGKOBiCGStab:  Solving for p, Initial residual = 0.035136, Final residual = 8.67014e-05, No Iterations 53
linear solve p 33
time step continuity errors : sum local = 1.03537e-07, global = 3.09035e-20, cumulative = 8.5883e-20
[OGL LOG] init_host_sparsity_pattern : 4 ms
[OGL LOG] matrix not stored update host matrix
[OGL LOG] update_host_mtx : 2 ms
[OGL LOG] matrix is not yet sorted, sorting host matrix
[OGL LOG] sort_host_mtx_sparsity_pattern : 2 ms
[OGL LOG] sort_host_mtx : 1 ms
[OGL LOG] init_preconditioner : 0 ms
[OGL LOG] solve : 19 ms
noneompGKOBiCGStab:  Solving for p, Initial residual = 0.0232938, Final residual = 9.42539e-05, No Iterations 49
linear solve p 32
time step continuity errors : sum local = 1.16827e-07, global = 2.11055e-20, cumulative = 1.06988e-19
ExecutionTime = 2.25 s  ClockTime = 1 s

Time = 0.006

Courant Number mean: 0.0288952 max: 0.193336
nonePBiCGStab:  Solving for Ux, Initial residual = 0.025932, Final residual = 1.41183e-05, No Iterations 5
nonePBiCGStab:  Solving for Uy, Initial residual = 0.0380267, Final residual = 1.60613e-05, No Iterations 5
nonePBiCGStab:  Solving for Uz, Initial residual = 0.0709251, Final residual = 6.73226e-05, No Iterations 5
linear solve U 5
[OGL LOG] init_host_sparsity_pattern : 4 ms
[OGL LOG] matrix not stored update host matrix
[OGL LOG] update_host_mtx : 2 ms
[OGL LOG] matrix is not yet sorted, sorting host matrix
[OGL LOG] sort_host_mtx_sparsity_pattern : 2 ms
[OGL LOG] sort_host_mtx : 1 ms
[OGL LOG] init_preconditioner : 0 ms
[OGL LOG] solve : 21 ms
noneompGKOBiCGStab:  Solving for p, Initial residual = 0.0244953, Final residual = 5.30405e-05, No Iterations 53
linear solve p 33
time step continuity errors : sum local = 9.52944e-08, global = 1.57092e-20, cumulative = 1.22698e-19
[OGL LOG] init_host_sparsity_pattern : 4 ms
[OGL LOG] matrix not stored update host matrix
[OGL LOG] update_host_mtx : 2 ms
[OGL LOG] matrix is not yet sorted, sorting host matrix
[OGL LOG] sort_host_mtx_sparsity_pattern : 2 ms
[OGL LOG] sort_host_mtx : 1 ms
[OGL LOG] init_preconditioner : 0 ms
[OGL LOG] solve : 20 ms
noneompGKOBiCGStab:  Solving for p, Initial residual = 0.0163979, Final residual = 9.84501e-05, No Iterations 50
linear solve p 32
time step continuity errors : sum local = 1.12051e-07, global = 1.81366e-20, cumulative = 1.40834e-19
ExecutionTime = 2.49 s  ClockTime = 1 s

Time = 0.007

Courant Number mean: 0.030831 max: 0.197891
nonePBiCGStab:  Solving for Ux, Initial residual = 0.0203629, Final residual = 7.03998e-06, No Iterations 5
nonePBiCGStab:  Solving for Uy, Initial residual = 0.030031, Final residual = 9.75517e-06, No Iterations 5
nonePBiCGStab:  Solving for Uz, Initial residual = 0.0574461, Final residual = 4.42586e-05, No Iterations 5
linear solve U 5
[OGL LOG] init_host_sparsity_pattern : 4 ms
[OGL LOG] matrix not stored update host matrix
[OGL LOG] update_host_mtx : 2 ms
[OGL LOG] matrix is not yet sorted, sorting host matrix
[OGL LOG] sort_host_mtx_sparsity_pattern : 3 ms
[OGL LOG] sort_host_mtx : 1 ms
[OGL LOG] init_preconditioner : 0 ms
[OGL LOG] solve : 22 ms
noneompGKOBiCGStab:  Solving for p, Initial residual = 0.0187426, Final residual = 4.29859e-05, No Iterations 56
linear solve p 35
time step continuity errors : sum local = 3.88044e-08, global = -2.26462e-20, cumulative = 1.18188e-19
[OGL LOG] init_host_sparsity_pattern : 4 ms
[OGL LOG] matrix not stored update host matrix
[OGL LOG] update_host_mtx : 2 ms
[OGL LOG] matrix is not yet sorted, sorting host matrix
[OGL LOG] sort_host_mtx_sparsity_pattern : 3 ms
[OGL LOG] sort_host_mtx : 1 ms
[OGL LOG] init_preconditioner : 0 ms
[OGL LOG] solve : 19 ms
noneompGKOBiCGStab:  Solving for p, Initial residual = 0.0126761, Final residual = 9.47601e-05, No Iterations 47
linear solve p 31
time step continuity errors : sum local = 9.93238e-08, global = 1.9113e-22, cumulative = 1.18379e-19
ExecutionTime = 2.72 s  ClockTime = 1 s

Time = 0.008

Courant Number mean: 0.0324765 max: 0.201172
nonePBiCGStab:  Solving for Ux, Initial residual = 0.0165321, Final residual = 4.9648e-06, No Iterations 5
nonePBiCGStab:  Solving for Uy, Initial residual = 0.0246151, Final residual = 6.40596e-06, No Iterations 5
nonePBiCGStab:  Solving for Uz, Initial residual = 0.048043, Final residual = 3.22718e-05, No Iterations 5
linear solve U 5
[OGL LOG] init_host_sparsity_pattern : 4 ms
[OGL LOG] matrix not stored update host matrix
[OGL LOG] update_host_mtx : 2 ms
[OGL LOG] matrix is not yet sorted, sorting host matrix
[OGL LOG] sort_host_mtx_sparsity_pattern : 2 ms
[OGL LOG] sort_host_mtx : 1 ms
[OGL LOG] init_preconditioner : 0 ms
[OGL LOG] solve : 20 ms
noneompGKOBiCGStab:  Solving for p, Initial residual = 0.0149985, Final residual = 9.91903e-05, No Iterations 51
linear solve p 32
time step continuity errors : sum local = 9.71402e-08, global = -1.20664e-20, cumulative = 1.06313e-19
[OGL LOG] init_host_sparsity_pattern : 4 ms
[OGL LOG] matrix not stored update host matrix
[OGL LOG] update_host_mtx : 2 ms
[OGL LOG] matrix is not yet sorted, sorting host matrix
[OGL LOG] sort_host_mtx_sparsity_pattern : 2 ms
[OGL LOG] sort_host_mtx : 1 ms
[OGL LOG] init_preconditioner : 0 ms
[OGL LOG] solve : 19 ms
noneompGKOBiCGStab:  Solving for p, Initial residual = 0.0102583, Final residual = 8.46706e-05, No Iterations 47
linear solve p 31
time step continuity errors : sum local = 9.68242e-08, global = -7.08134e-21, cumulative = 9.92313e-20
ExecutionTime = 2.94 s  ClockTime = 1 s

Time = 0.009

Courant Number mean: 0.0338806 max: 0.203668
nonePBiCGStab:  Solving for Ux, Initial residual = 0.0137846, Final residual = 3.19473e-06, No Iterations 5
nonePBiCGStab:  Solving for Uy, Initial residual = 0.0207034, Final residual = 4.28052e-06, No Iterations 5
nonePBiCGStab:  Solving for Uz, Initial residual = 0.0410035, Final residual = 2.10296e-05, No Iterations 5
linear solve U 5
[OGL LOG] init_host_sparsity_pattern : 4 ms
[OGL LOG] matrix not stored update host matrix
[OGL LOG] update_host_mtx : 2 ms
[OGL LOG] matrix is not yet sorted, sorting host matrix
[OGL LOG] sort_host_mtx_sparsity_pattern : 3 ms
[OGL LOG] sort_host_mtx : 1 ms
[OGL LOG] init_preconditioner : 0 ms
[OGL LOG] solve : 20 ms
noneompGKOBiCGStab:  Solving for p, Initial residual = 0.0125065, Final residual = 9.36442e-05, No Iterations 51
linear solve p 32
time step continuity errors : sum local = 8.26131e-08, global = -1.71829e-20, cumulative = 8.20484e-20
[OGL LOG] init_host_sparsity_pattern : 4 ms
[OGL LOG] matrix not stored update host matrix
[OGL LOG] update_host_mtx : 2 ms
[OGL LOG] matrix is not yet sorted, sorting host matrix
[OGL LOG] sort_host_mtx_sparsity_pattern : 2 ms
[OGL LOG] sort_host_mtx : 1 ms
[OGL LOG] init_preconditioner : 0 ms
[OGL LOG] solve : 19 ms
noneompGKOBiCGStab:  Solving for p, Initial residual = 0.0086003, Final residual = 9.48422e-05, No Iterations 47
linear solve p 31
time step continuity errors : sum local = 1.00985e-07, global = -1.05491e-20, cumulative = 7.14993e-20
ExecutionTime = 3.17 s  ClockTime = 1 s

Time = 0.01

Courant Number mean: 0.035092 max: 0.205643
nonePBiCGStab:  Solving for Ux, Initial residual = 0.0117303, Final residual = 2.1726e-06, No Iterations 5
nonePBiCGStab:  Solving for Uy, Initial residual = 0.017709, Final residual = 3.0629e-06, No Iterations 5
nonePBiCGStab:  Solving for Uz, Initial residual = 0.0355304, Final residual = 1.56404e-05, No Iterations 5
linear solve U 5
[OGL LOG] init_host_sparsity_pattern : 4 ms
[OGL LOG] matrix not stored update host matrix
[OGL LOG] update_host_mtx : 2 ms
[OGL LOG] matrix is not yet sorted, sorting host matrix
[OGL LOG] sort_host_mtx_sparsity_pattern : 2 ms
[OGL LOG] sort_host_mtx : 1 ms
[OGL LOG] init_preconditioner : 0 ms
[OGL LOG] solve : 20 ms
noneompGKOBiCGStab:  Solving for p, Initial residual = 0.0106239, Final residual = 5.96888e-05, No Iterations 50
linear solve p 32
time step continuity errors : sum local = 5.73851e-08, global = 1.30907e-20, cumulative = 8.459e-20
[OGL LOG] init_host_sparsity_pattern : 4 ms
[OGL LOG] matrix not stored update host matrix
[OGL LOG] update_host_mtx : 2 ms
[OGL LOG] matrix is not yet sorted, sorting host matrix
[OGL LOG] sort_host_mtx_sparsity_pattern : 2 ms
[OGL LOG] sort_host_mtx : 1 ms
[OGL LOG] init_preconditioner : 0 ms
[OGL LOG] solve : 18 ms
noneompGKOBiCGStab:  Solving for p, Initial residual = 0.00732055, Final residual = 9.84078e-05, No Iterations 46
linear solve p 31
time step continuity errors : sum local = 1.24082e-07, global = -3.55809e-20, cumulative = 4.90091e-20
ExecutionTime = 3.39 s  ClockTime = 1 s

End

