/*---------------------------------------------------------------------------*\
  =========                 |
  \\      /  F ield         | OpenFOAM: The Open Source CFD Toolbox
   \\    /   O peration     | Website:  https://openfoam.org
    \\  /    A nd           | Version:  8
     \\/     M anipulation  |
\*---------------------------------------------------------------------------*/
Build  : 8-40a5a48f630f
Exec   : icoFoam
Date   : Jul 28 2021
Time   : 02:16:30
Host   : "uc2n462.localdomain"
PID    : 3689419
I/O    : uncollated
Case   : /pfs/data5/home/kit/scc/nq7776/code/OBR/lidDrivenCavity3D/Variation_mesh/65/Variation_matrix_solver/BiCGStab_BJ_OMP/base
nProcs : 1
sigFpe : Enabling floating point exception trapping (FOAM_SIGFPE).
fileModificationChecking : Monitoring run-time modified files using timeStampMaster (fileModificationSkew 10)
allowSystemOperations : Allowing user-supplied system call operations

// * * * * * * * * * * * * * * * * * * * * * * * * * * * * * * * * * * * * * //
Create time

Create mesh for time = 0

Reading transportProperties

Reading field p

Reading field U

Reading/calculating face flux field phi


Starting time loop

Time = 0.001

Courant Number mean: 0 max: 0
nonePBiCGStab:  Solving for Ux, Initial residual = 1, Final residual = 0.053017, No Iterations 5
nonePBiCGStab:  Solving for Uy, Initial residual = 0, Final residual = 0, No Iterations 0
nonePBiCGStab:  Solving for Uz, Initial residual = 0, Final residual = 0, No Iterations 0
linear solve U 72
[OGL LOG] init_host_sparsity_pattern : 78 ms
[OGL LOG] matrix not stored update host matrix
[OGL LOG] update_host_mtx : 41 ms
[OGL LOG] matrix is not yet sorted, compute sorting idxs
[OGL LOG] compute_sort : 2401 ms
[OGL LOG] matrix is not yet sorted, sorting host matrix
[OGL LOG] sort_host_mtx_sparsity_pattern : 57 ms
[OGL LOG] sort_host_mtx : 35 ms
[OGL LOG] init_preconditioner : 14 ms
[OGL LOG] solve : 3041 ms
BJompGKOBiCGStab:  Solving for p, Initial residual = 1, Final residual = 2.89219e-05, No Iterations 324
linear solve p 5746
time step continuity errors : sum local = 9.03142e-07, global = -5.74136e-21, cumulative = -5.74136e-21
[OGL LOG] init_host_sparsity_pattern : 75 ms
[OGL LOG] matrix not stored update host matrix
[OGL LOG] update_host_mtx : 41 ms
[OGL LOG] matrix is not yet sorted, sorting host matrix
[OGL LOG] sort_host_mtx_sparsity_pattern : 56 ms
[OGL LOG] sort_host_mtx : 28 ms
[OGL LOG] init_preconditioner : 0 ms
[OGL LOG] solve : 2404 ms
BJompGKOBiCGStab:  Solving for p, Initial residual = 0.674776, Final residual = 4.28054e-05, No Iterations 310
linear solve p 2644
time step continuity errors : sum local = 2.7539e-06, global = 1.24793e-20, cumulative = 6.73795e-21
ExecutionTime = 113.42 s  ClockTime = 10 s

Time = 0.002

Courant Number mean: 0.0326869 max: 0.468252
nonePBiCGStab:  Solving for Ux, Initial residual = 0.152116, Final residual = 0.021307, No Iterations 5
nonePBiCGStab:  Solving for Uy, Initial residual = 0.364764, Final residual = 0.048286, No Iterations 5
nonePBiCGStab:  Solving for Uz, Initial residual = 0.958803, Final residual = 0.1668, No Iterations 5
linear solve U 140
[OGL LOG] init_host_sparsity_pattern : 74 ms
[OGL LOG] matrix not stored update host matrix
[OGL LOG] update_host_mtx : 39 ms
[OGL LOG] matrix is not yet sorted, sorting host matrix
[OGL LOG] sort_host_mtx_sparsity_pattern : 58 ms
[OGL LOG] sort_host_mtx : 27 ms
[OGL LOG] init_preconditioner : 0 ms
[OGL LOG] solve : 1995 ms
BJompGKOBiCGStab:  Solving for p, Initial residual = 0.6555, Final residual = 6.96648e-05, No Iterations 283
linear solve p 2236
time step continuity errors : sum local = 2.85993e-06, global = 6.39742e-21, cumulative = 1.31354e-20
[OGL LOG] init_host_sparsity_pattern : 74 ms
[OGL LOG] matrix not stored update host matrix
[OGL LOG] update_host_mtx : 38 ms
[OGL LOG] matrix is not yet sorted, sorting host matrix
[OGL LOG] sort_host_mtx_sparsity_pattern : 56 ms
[OGL LOG] sort_host_mtx : 27 ms
[OGL LOG] init_preconditioner : 0 ms
[OGL LOG] solve : 2232 ms
BJompGKOBiCGStab:  Solving for p, Initial residual = 0.573187, Final residual = 9.60502e-05, No Iterations 308
linear solve p 2471
time step continuity errors : sum local = 2.10046e-07, global = 4.36574e-21, cumulative = 1.75011e-20
ExecutionTime = 198.73 s  ClockTime = 15 s

Time = 0.003

Courant Number mean: 0.0501747 max: 0.556489
nonePBiCGStab:  Solving for Ux, Initial residual = 0.0551164, Final residual = 0.00613691, No Iterations 5
nonePBiCGStab:  Solving for Uy, Initial residual = 0.127458, Final residual = 0.0183493, No Iterations 5
nonePBiCGStab:  Solving for Uz, Initial residual = 0.418173, Final residual = 0.0829303, No Iterations 5
linear solve U 140
[OGL LOG] init_host_sparsity_pattern : 75 ms
[OGL LOG] matrix not stored update host matrix
[OGL LOG] update_host_mtx : 41 ms
[OGL LOG] matrix is not yet sorted, sorting host matrix
[OGL LOG] sort_host_mtx_sparsity_pattern : 59 ms
[OGL LOG] sort_host_mtx : 28 ms
[OGL LOG] init_preconditioner : 0 ms
[OGL LOG] solve : 2125 ms
BJompGKOBiCGStab:  Solving for p, Initial residual = 0.560057, Final residual = 9.50265e-05, No Iterations 297
linear solve p 2368
time step continuity errors : sum local = 1.03787e-07, global = 2.10669e-21, cumulative = 1.96078e-20
[OGL LOG] init_host_sparsity_pattern : 75 ms
[OGL LOG] matrix not stored update host matrix
[OGL LOG] update_host_mtx : 35 ms
[OGL LOG] matrix is not yet sorted, sorting host matrix
[OGL LOG] sort_host_mtx_sparsity_pattern : 59 ms
[OGL LOG] sort_host_mtx : 27 ms
[OGL LOG] init_preconditioner : 0 ms
[OGL LOG] solve : 1844 ms
BJompGKOBiCGStab:  Solving for p, Initial residual = 0.493038, Final residual = 8.08424e-05, No Iterations 259
linear solve p 2076
time step continuity errors : sum local = 4.96077e-08, global = -4.74709e-21, cumulative = 1.48607e-20
ExecutionTime = 278.99 s  ClockTime = 19 s

Time = 0.004

Courant Number mean: 0.0601866 max: 0.574934
nonePBiCGStab:  Solving for Ux, Initial residual = 0.0333629, Final residual = 0.00328577, No Iterations 5
nonePBiCGStab:  Solving for Uy, Initial residual = 0.0814538, Final residual = 0.00782102, No Iterations 5
nonePBiCGStab:  Solving for Uz, Initial residual = 0.240013, Final residual = 0.0328687, No Iterations 5
linear solve U 140
[OGL LOG] init_host_sparsity_pattern : 74 ms
[OGL LOG] matrix not stored update host matrix
[OGL LOG] update_host_mtx : 41 ms
[OGL LOG] matrix is not yet sorted, sorting host matrix
[OGL LOG] sort_host_mtx_sparsity_pattern : 56 ms
[OGL LOG] sort_host_mtx : 28 ms
[OGL LOG] init_preconditioner : 0 ms
[OGL LOG] solve : 2248 ms
BJompGKOBiCGStab:  Solving for p, Initial residual = 0.359951, Final residual = 7.90929e-05, No Iterations 316
linear solve p 2483
time step continuity errors : sum local = 4.38443e-08, global = 2.28398e-20, cumulative = 3.77005e-20
[OGL LOG] init_host_sparsity_pattern : 72 ms
[OGL LOG] matrix not stored update host matrix
[OGL LOG] update_host_mtx : 35 ms
[OGL LOG] matrix is not yet sorted, sorting host matrix
[OGL LOG] sort_host_mtx_sparsity_pattern : 56 ms
[OGL LOG] sort_host_mtx : 27 ms
[OGL LOG] init_preconditioner : 0 ms
[OGL LOG] solve : 1927 ms
BJompGKOBiCGStab:  Solving for p, Initial residual = 0.298024, Final residual = 9.54769e-05, No Iterations 271
linear solve p 2154
time step continuity errors : sum local = 5.36619e-08, global = -1.57889e-20, cumulative = 2.19116e-20
ExecutionTime = 363.37 s  ClockTime = 24 s

Time = 0.005

Courant Number mean: 0.0681743 max: 0.585578
nonePBiCGStab:  Solving for Ux, Initial residual = 0.0237068, Final residual = 0.00181816, No Iterations 5
nonePBiCGStab:  Solving for Uy, Initial residual = 0.0535447, Final residual = 0.00374224, No Iterations 5
nonePBiCGStab:  Solving for Uz, Initial residual = 0.120514, Final residual = 0.0137909, No Iterations 5
linear solve U 139
[OGL LOG] init_host_sparsity_pattern : 74 ms
[OGL LOG] matrix not stored update host matrix
[OGL LOG] update_host_mtx : 40 ms
[OGL LOG] matrix is not yet sorted, sorting host matrix
[OGL LOG] sort_host_mtx_sparsity_pattern : 56 ms
[OGL LOG] sort_host_mtx : 28 ms
[OGL LOG] init_preconditioner : 0 ms
[OGL LOG] solve : 826 ms
BJompGKOBiCGStab:  Solving for p, Initial residual = 0.2764, Final residual = 9.81328e-05, No Iterations 116
linear solve p 1060
time step continuity errors : sum local = 7.92851e-08, global = 9.52061e-21, cumulative = 3.14322e-20
[OGL LOG] init_host_sparsity_pattern : 72 ms
[OGL LOG] matrix not stored update host matrix
[OGL LOG] update_host_mtx : 35 ms
[OGL LOG] matrix is not yet sorted, sorting host matrix
[OGL LOG] sort_host_mtx_sparsity_pattern : 56 ms
[OGL LOG] sort_host_mtx : 27 ms
[OGL LOG] init_preconditioner : 0 ms
[OGL LOG] solve : 834 ms
BJompGKOBiCGStab:  Solving for p, Initial residual = 0.234272, Final residual = 4.97307e-05, No Iterations 117
linear solve p 1061
time step continuity errors : sum local = 3.64841e-08, global = -4.86808e-21, cumulative = 2.65642e-20
ExecutionTime = 397.6 s  ClockTime = 27 s

Time = 0.006

Courant Number mean: 0.0744686 max: 0.592169
nonePBiCGStab:  Solving for Ux, Initial residual = 0.0177373, Final residual = 0.00116931, No Iterations 5
nonePBiCGStab:  Solving for Uy, Initial residual = 0.0398385, Final residual = 0.00200373, No Iterations 5
nonePBiCGStab:  Solving for Uz, Initial residual = 0.0932115, Final residual = 0.0111665, No Iterations 5
linear solve U 139
[OGL LOG] init_host_sparsity_pattern : 75 ms
[OGL LOG] matrix not stored update host matrix
[OGL LOG] update_host_mtx : 41 ms
[OGL LOG] matrix is not yet sorted, sorting host matrix
[OGL LOG] sort_host_mtx_sparsity_pattern : 56 ms
[OGL LOG] sort_host_mtx : 27 ms
[OGL LOG] init_preconditioner : 0 ms
[OGL LOG] solve : 864 ms
BJompGKOBiCGStab:  Solving for p, Initial residual = 0.181368, Final residual = 9.98461e-05, No Iterations 121
linear solve p 1098
time step continuity errors : sum local = 8.12103e-08, global = 1.31749e-22, cumulative = 2.66959e-20
[OGL LOG] init_host_sparsity_pattern : 72 ms
[OGL LOG] matrix not stored update host matrix
[OGL LOG] update_host_mtx : 35 ms
[OGL LOG] matrix is not yet sorted, sorting host matrix
[OGL LOG] sort_host_mtx_sparsity_pattern : 56 ms
[OGL LOG] sort_host_mtx : 28 ms
[OGL LOG] init_preconditioner : 0 ms
[OGL LOG] solve : 808 ms
BJompGKOBiCGStab:  Solving for p, Initial residual = 0.150467, Final residual = 9.54012e-05, No Iterations 113
linear solve p 1035
time step continuity errors : sum local = 1.17005e-07, global = 6.31796e-21, cumulative = 3.30139e-20
ExecutionTime = 432.06 s  ClockTime = 29 s

Time = 0.007

Courant Number mean: 0.0796884 max: 0.596643
nonePBiCGStab:  Solving for Ux, Initial residual = 0.0138558, Final residual = 0.000762821, No Iterations 5
nonePBiCGStab:  Solving for Uy, Initial residual = 0.0317148, Final residual = 0.00150396, No Iterations 5
nonePBiCGStab:  Solving for Uz, Initial residual = 0.0730498, Final residual = 0.00646692, No Iterations 5
linear solve U 139
[OGL LOG] init_host_sparsity_pattern : 75 ms
[OGL LOG] matrix not stored update host matrix
[OGL LOG] update_host_mtx : 41 ms
[OGL LOG] matrix is not yet sorted, sorting host matrix
[OGL LOG] sort_host_mtx_sparsity_pattern : 56 ms
[OGL LOG] sort_host_mtx : 27 ms
[OGL LOG] init_preconditioner : 0 ms
[OGL LOG] solve : 1554 ms
BJompGKOBiCGStab:  Solving for p, Initial residual = 0.133937, Final residual = 9.83647e-05, No Iterations 218
linear solve p 1790
time step continuity errors : sum local = 1.27599e-07, global = 2.71124e-21, cumulative = 3.57251e-20
[OGL LOG] init_host_sparsity_pattern : 73 ms
[OGL LOG] matrix not stored update host matrix
[OGL LOG] update_host_mtx : 35 ms
[OGL LOG] matrix is not yet sorted, sorting host matrix
[OGL LOG] sort_host_mtx_sparsity_pattern : 56 ms
[OGL LOG] sort_host_mtx : 28 ms
[OGL LOG] init_preconditioner : 0 ms
[OGL LOG] solve : 821 ms
BJompGKOBiCGStab:  Solving for p, Initial residual = 0.112556, Final residual = 9.60234e-05, No Iterations 115
linear solve p 1048
time step continuity errors : sum local = 4.96792e-08, global = -1.52149e-20, cumulative = 2.05102e-20
ExecutionTime = 480.56 s  ClockTime = 32 s

Time = 0.008

Courant Number mean: 0.0840629 max: 0.600012
nonePBiCGStab:  Solving for Ux, Initial residual = 0.0115285, Final residual = 0.00057878, No Iterations 5
nonePBiCGStab:  Solving for Uy, Initial residual = 0.0254072, Final residual = 0.000994315, No Iterations 5
nonePBiCGStab:  Solving for Uz, Initial residual = 0.0650292, Final residual = 0.0079718, No Iterations 5
linear solve U 139
[OGL LOG] init_host_sparsity_pattern : 75 ms
[OGL LOG] matrix not stored update host matrix
[OGL LOG] update_host_mtx : 41 ms
[OGL LOG] matrix is not yet sorted, sorting host matrix
[OGL LOG] sort_host_mtx_sparsity_pattern : 56 ms
[OGL LOG] sort_host_mtx : 27 ms
[OGL LOG] init_preconditioner : 0 ms
[OGL LOG] solve : 1759 ms
BJompGKOBiCGStab:  Solving for p, Initial residual = 0.0935308, Final residual = 7.74532e-05, No Iterations 247
linear solve p 1994
time step continuity errors : sum local = 1.11329e-07, global = -7.07285e-21, cumulative = 1.34373e-20
[OGL LOG] init_host_sparsity_pattern : 72 ms
[OGL LOG] matrix not stored update host matrix
[OGL LOG] update_host_mtx : 35 ms
[OGL LOG] matrix is not yet sorted, sorting host matrix
[OGL LOG] sort_host_mtx_sparsity_pattern : 56 ms
[OGL LOG] sort_host_mtx : 27 ms
[OGL LOG] init_preconditioner : 0 ms
[OGL LOG] solve : 2050 ms
BJompGKOBiCGStab:  Solving for p, Initial residual = 0.078277, Final residual = 9.13235e-05, No Iterations 288
linear solve p 2276
time step continuity errors : sum local = 6.76521e-08, global = 6.51766e-21, cumulative = 1.9955e-20
ExecutionTime = 557.66 s  ClockTime = 37 s

Time = 0.009

Courant Number mean: 0.0878206 max: 0.602616
nonePBiCGStab:  Solving for Ux, Initial residual = 0.00959609, Final residual = 0.000466861, No Iterations 5
nonePBiCGStab:  Solving for Uy, Initial residual = 0.0215599, Final residual = 0.000762406, No Iterations 5
nonePBiCGStab:  Solving for Uz, Initial residual = 0.0546417, Final residual = 0.00454344, No Iterations 5
linear solve U 140
[OGL LOG] init_host_sparsity_pattern : 75 ms
[OGL LOG] matrix not stored update host matrix
[OGL LOG] update_host_mtx : 41 ms
[OGL LOG] matrix is not yet sorted, sorting host matrix
[OGL LOG] sort_host_mtx_sparsity_pattern : 58 ms
[OGL LOG] sort_host_mtx : 28 ms
[OGL LOG] init_preconditioner : 0 ms
[OGL LOG] solve : 1501 ms
BJompGKOBiCGStab:  Solving for p, Initial residual = 0.0689533, Final residual = 9.99957e-05, No Iterations 211
linear solve p 1737
time step continuity errors : sum local = 8.62523e-08, global = 8.52601e-21, cumulative = 2.8481e-20
[OGL LOG] init_host_sparsity_pattern : 73 ms
[OGL LOG] matrix not stored update host matrix
[OGL LOG] update_host_mtx : 35 ms
[OGL LOG] matrix is not yet sorted, sorting host matrix
[OGL LOG] sort_host_mtx_sparsity_pattern : 56 ms
[OGL LOG] sort_host_mtx : 27 ms
[OGL LOG] init_preconditioner : 0 ms
[OGL LOG] solve : 763 ms
BJompGKOBiCGStab:  Solving for p, Initial residual = 0.0580219, Final residual = 7.91091e-05, No Iterations 107
linear solve p 989
time step continuity errors : sum local = 4.90315e-08, global = -7.78042e-21, cumulative = 2.07006e-20
ExecutionTime = 603.93 s  ClockTime = 40 s

Time = 0.01

Courant Number mean: 0.0910886 max: 0.604751
nonePBiCGStab:  Solving for Ux, Initial residual = 0.00816365, Final residual = 0.000393478, No Iterations 5
nonePBiCGStab:  Solving for Uy, Initial residual = 0.0181366, Final residual = 0.000583315, No Iterations 5
nonePBiCGStab:  Solving for Uz, Initial residual = 0.0468243, Final residual = 0.00472157, No Iterations 5
linear solve U 139
[OGL LOG] init_host_sparsity_pattern : 75 ms
[OGL LOG] matrix not stored update host matrix
[OGL LOG] update_host_mtx : 41 ms
[OGL LOG] matrix is not yet sorted, sorting host matrix
[OGL LOG] sort_host_mtx_sparsity_pattern : 58 ms
[OGL LOG] sort_host_mtx : 27 ms
[OGL LOG] init_preconditioner : 0 ms
[OGL LOG] solve : 1956 ms
BJompGKOBiCGStab:  Solving for p, Initial residual = 0.052641, Final residual = 9.97794e-05, No Iterations 275
linear solve p 2192
time step continuity errors : sum local = 4.39734e-08, global = 2.11708e-20, cumulative = 4.18714e-20
[OGL LOG] init_host_sparsity_pattern : 72 ms
[OGL LOG] matrix not stored update host matrix
[OGL LOG] update_host_mtx : 35 ms
[OGL LOG] matrix is not yet sorted, sorting host matrix
[OGL LOG] sort_host_mtx_sparsity_pattern : 56 ms
[OGL LOG] sort_host_mtx : 28 ms
[OGL LOG] init_preconditioner : 0 ms
[OGL LOG] solve : 1682 ms
BJompGKOBiCGStab:  Solving for p, Initial residual = 0.0445573, Final residual = 8.74332e-05, No Iterations 236
linear solve p 1908
time step continuity errors : sum local = 4.78261e-08, global = -1.66166e-20, cumulative = 2.52548e-20
ExecutionTime = 677.6 s  ClockTime = 44 s

End

