/*---------------------------------------------------------------------------*\
  =========                 |
  \\      /  F ield         | OpenFOAM: The Open Source CFD Toolbox
   \\    /   O peration     | Website:  https://openfoam.org
    \\  /    A nd           | Version:  8
     \\/     M anipulation  |
\*---------------------------------------------------------------------------*/
Build  : 8-40a5a48f630f
Exec   : icoFoam
Date   : Jul 27 2021
Time   : 21:38:45
Host   : "uc2n481.localdomain"
PID    : 95681
I/O    : uncollated
Case   : /pfs/data5/home/kit/scc/nq7776/code/OBR/lidDrivenCavity3D/Variation_mesh/90/Variation_matrix_solver/CG_BJ_CUDA/base
nProcs : 1
sigFpe : Enabling floating point exception trapping (FOAM_SIGFPE).
fileModificationChecking : Monitoring run-time modified files using timeStampMaster (fileModificationSkew 10)
allowSystemOperations : Allowing user-supplied system call operations

// * * * * * * * * * * * * * * * * * * * * * * * * * * * * * * * * * * * * * //
Create time

Create mesh for time = 0

Reading transportProperties

Reading field p

Reading field U

Reading/calculating face flux field phi


Starting time loop

Time = 0.001

Courant Number mean: 0 max: 0
nonePBiCGStab:  Solving for Ux, Initial residual = 1, Final residual = 0.0756268, No Iterations 5
nonePBiCGStab:  Solving for Uy, Initial residual = 0, Final residual = 0, No Iterations 0
nonePBiCGStab:  Solving for Uz, Initial residual = 0, Final residual = 0, No Iterations 0
linear solve U 197
[OGL LOG] init_host_sparsity_pattern : 213 ms
[OGL LOG] matrix not stored update host matrix
[OGL LOG] update_host_mtx : 112 ms
[OGL LOG] matrix is not yet sorted, compute sorting idxs
[OGL LOG] compute_sort : 6697 ms
[OGL LOG] matrix is not yet sorted, sorting host matrix
[OGL LOG] sort_host_mtx_sparsity_pattern : 149 ms
[OGL LOG] sort_host_mtx : 83 ms
[OGL LOG] init_preconditioner : 80 ms
 CG create  precond 
[OGL LOG] solve : 617 ms
BJcudaGKOCG:  Solving for p, Initial residual = 1, Final residual = 9.87342e-05, No Iterations 590
linear solve p 8787
time step continuity errors : sum local = 4.00662e-08, global = -6.39459e-21, cumulative = -6.39459e-21
[OGL LOG] init_host_sparsity_pattern : 206 ms
[OGL LOG] matrix not stored update host matrix
[OGL LOG] update_host_mtx : 109 ms
[OGL LOG] matrix is not yet sorted, sorting host matrix
[OGL LOG] sort_host_mtx_sparsity_pattern : 158 ms
[OGL LOG] sort_host_mtx : 76 ms
[OGL LOG] init_preconditioner : 0 ms
 CG create  precond 
[OGL LOG] solve : 591 ms
BJcudaGKOCG:  Solving for p, Initial residual = 0.701328, Final residual = 9.98028e-05, No Iterations 574
linear solve p 1184
time step continuity errors : sum local = 5.63504e-08, global = -1.28836e-20, cumulative = -1.92782e-20
ExecutionTime = 13.27 s  ClockTime = 14 s

Time = 0.002

Courant Number mean: 0.0400999 max: 0.699776
nonePBiCGStab:  Solving for Ux, Initial residual = 0.140592, Final residual = 0.0354111, No Iterations 5
nonePBiCGStab:  Solving for Uy, Initial residual = 0.428235, Final residual = 0.104275, No Iterations 5
nonePBiCGStab:  Solving for Uz, Initial residual = 0.98605, Final residual = 0.278909, No Iterations 5
linear solve U 421
[OGL LOG] init_host_sparsity_pattern : 205 ms
[OGL LOG] matrix not stored update host matrix
[OGL LOG] update_host_mtx : 109 ms
[OGL LOG] matrix is not yet sorted, sorting host matrix
[OGL LOG] sort_host_mtx_sparsity_pattern : 152 ms
[OGL LOG] sort_host_mtx : 76 ms
[OGL LOG] init_preconditioner : 0 ms
 CG create  precond 
[OGL LOG] solve : 584 ms
BJcudaGKOCG:  Solving for p, Initial residual = 0.764357, Final residual = 9.39153e-05, No Iterations 567
linear solve p 1174
time step continuity errors : sum local = 8.49991e-08, global = 1.61e-21, cumulative = -1.76682e-20
[OGL LOG] init_host_sparsity_pattern : 210 ms
[OGL LOG] matrix not stored update host matrix
[OGL LOG] update_host_mtx : 108 ms
[OGL LOG] matrix is not yet sorted, sorting host matrix
[OGL LOG] sort_host_mtx_sparsity_pattern : 151 ms
[OGL LOG] sort_host_mtx : 76 ms
[OGL LOG] init_preconditioner : 0 ms
 CG create  precond 
[OGL LOG] solve : 583 ms
BJcudaGKOCG:  Solving for p, Initial residual = 0.687254, Final residual = 9.62387e-05, No Iterations 565
linear solve p 1175
time step continuity errors : sum local = 8.87632e-08, global = 4.41763e-21, cumulative = -1.32506e-20
ExecutionTime = 16.48 s  ClockTime = 17 s

Time = 0.003

Courant Number mean: 0.0633455 max: 0.801263
nonePBiCGStab:  Solving for Ux, Initial residual = 0.0595864, Final residual = 0.0123949, No Iterations 5
nonePBiCGStab:  Solving for Uy, Initial residual = 0.182416, Final residual = 0.0478882, No Iterations 5
nonePBiCGStab:  Solving for Uz, Initial residual = 0.662373, Final residual = 0.173485, No Iterations 5
linear solve U 418
[OGL LOG] init_host_sparsity_pattern : 204 ms
[OGL LOG] matrix not stored update host matrix
[OGL LOG] update_host_mtx : 109 ms
[OGL LOG] matrix is not yet sorted, sorting host matrix
[OGL LOG] sort_host_mtx_sparsity_pattern : 152 ms
[OGL LOG] sort_host_mtx : 77 ms
[OGL LOG] init_preconditioner : 0 ms
 CG create  precond 
[OGL LOG] solve : 580 ms
BJcudaGKOCG:  Solving for p, Initial residual = 0.756298, Final residual = 9.28136e-05, No Iterations 565
linear solve p 1169
time step continuity errors : sum local = 6.36064e-08, global = 7.71238e-22, cumulative = -1.24793e-20
[OGL LOG] init_host_sparsity_pattern : 211 ms
[OGL LOG] matrix not stored update host matrix
[OGL LOG] update_host_mtx : 109 ms
[OGL LOG] matrix is not yet sorted, sorting host matrix
[OGL LOG] sort_host_mtx_sparsity_pattern : 156 ms
[OGL LOG] sort_host_mtx : 76 ms
[OGL LOG] init_preconditioner : 0 ms
 CG create  precond 
[OGL LOG] solve : 580 ms
BJcudaGKOCG:  Solving for p, Initial residual = 0.685744, Final residual = 9.81975e-05, No Iterations 563
linear solve p 1180
time step continuity errors : sum local = 6.55415e-08, global = 5.32273e-22, cumulative = -1.19471e-20
ExecutionTime = 19.71 s  ClockTime = 20 s

Time = 0.004

Courant Number mean: 0.0762495 max: 0.816887
nonePBiCGStab:  Solving for Ux, Initial residual = 0.0365842, Final residual = 0.0079179, No Iterations 5
nonePBiCGStab:  Solving for Uy, Initial residual = 0.127747, Final residual = 0.0355316, No Iterations 5
nonePBiCGStab:  Solving for Uz, Initial residual = 0.422478, Final residual = 0.098827, No Iterations 5
linear solve U 406
[OGL LOG] init_host_sparsity_pattern : 204 ms
[OGL LOG] matrix not stored update host matrix
[OGL LOG] update_host_mtx : 108 ms
[OGL LOG] matrix is not yet sorted, sorting host matrix
[OGL LOG] sort_host_mtx_sparsity_pattern : 151 ms
[OGL LOG] sort_host_mtx : 75 ms
[OGL LOG] init_preconditioner : 0 ms
 CG create  precond 
[OGL LOG] solve : 280 ms
BJcudaGKOCG:  Solving for p, Initial residual = 0.651434, Final residual = 9.72258e-05, No Iterations 270
linear solve p 867
time step continuity errors : sum local = 6.66172e-08, global = 1.36186e-20, cumulative = 1.67157e-21
[OGL LOG] init_host_sparsity_pattern : 210 ms
[OGL LOG] matrix not stored update host matrix
[OGL LOG] update_host_mtx : 115 ms
[OGL LOG] matrix is not yet sorted, sorting host matrix
[OGL LOG] sort_host_mtx_sparsity_pattern : 160 ms
[OGL LOG] sort_host_mtx : 75 ms
[OGL LOG] init_preconditioner : 0 ms
 CG create  precond 
[OGL LOG] solve : 280 ms
BJcudaGKOCG:  Solving for p, Initial residual = 0.559889, Final residual = 9.29786e-05, No Iterations 269
linear solve p 888
time step continuity errors : sum local = 6.5076e-08, global = -1.12379e-20, cumulative = -9.56633e-21
ExecutionTime = 22.29 s  ClockTime = 23 s

Time = 0.005

Courant Number mean: 0.0866632 max: 0.829153
nonePBiCGStab:  Solving for Ux, Initial residual = 0.0275165, Final residual = 0.00602876, No Iterations 5
nonePBiCGStab:  Solving for Uy, Initial residual = 0.0822615, Final residual = 0.025544, No Iterations 5
nonePBiCGStab:  Solving for Uz, Initial residual = 0.238887, Final residual = 0.0599221, No Iterations 5
linear solve U 407
[OGL LOG] init_host_sparsity_pattern : 204 ms
[OGL LOG] matrix not stored update host matrix
[OGL LOG] update_host_mtx : 111 ms
[OGL LOG] matrix is not yet sorted, sorting host matrix
[OGL LOG] sort_host_mtx_sparsity_pattern : 151 ms
[OGL LOG] sort_host_mtx : 76 ms
[OGL LOG] init_preconditioner : 0 ms
 CG create  precond 
[OGL LOG] solve : 284 ms
BJcudaGKOCG:  Solving for p, Initial residual = 0.681962, Final residual = 9.90041e-05, No Iterations 273
linear solve p 878
time step continuity errors : sum local = 7.23284e-08, global = -1.18149e-20, cumulative = -2.13812e-20
[OGL LOG] init_host_sparsity_pattern : 211 ms
[OGL LOG] matrix not stored update host matrix
[OGL LOG] update_host_mtx : 109 ms
[OGL LOG] matrix is not yet sorted, sorting host matrix
[OGL LOG] sort_host_mtx_sparsity_pattern : 151 ms
[OGL LOG] sort_host_mtx : 75 ms
[OGL LOG] init_preconditioner : 0 ms
 CG create  precond 
[OGL LOG] solve : 275 ms
BJcudaGKOCG:  Solving for p, Initial residual = 0.601768, Final residual = 9.80034e-05, No Iterations 265
linear solve p 869
time step continuity errors : sum local = 6.22142e-08, global = -1.03931e-20, cumulative = -3.17743e-20
ExecutionTime = 24.88 s  ClockTime = 25 s

Time = 0.006

Courant Number mean: 0.094736 max: 0.835984
nonePBiCGStab:  Solving for Ux, Initial residual = 0.0211257, Final residual = 0.00473012, No Iterations 5
nonePBiCGStab:  Solving for Uy, Initial residual = 0.0656018, Final residual = 0.0190654, No Iterations 5
nonePBiCGStab:  Solving for Uz, Initial residual = 0.191047, Final residual = 0.0517323, No Iterations 5
linear solve U 419
[OGL LOG] init_host_sparsity_pattern : 205 ms
[OGL LOG] matrix not stored update host matrix
[OGL LOG] update_host_mtx : 109 ms
[OGL LOG] matrix is not yet sorted, sorting host matrix
[OGL LOG] sort_host_mtx_sparsity_pattern : 151 ms
[OGL LOG] sort_host_mtx : 76 ms
[OGL LOG] init_preconditioner : 0 ms
 CG create  precond 
[OGL LOG] solve : 555 ms
BJcudaGKOCG:  Solving for p, Initial residual = 0.601082, Final residual = 9.46162e-05, No Iterations 538
linear solve p 1144
time step continuity errors : sum local = 6.00079e-08, global = 1.27546e-21, cumulative = -3.04988e-20
[OGL LOG] init_host_sparsity_pattern : 211 ms
[OGL LOG] matrix not stored update host matrix
[OGL LOG] update_host_mtx : 111 ms
[OGL LOG] matrix is not yet sorted, sorting host matrix
[OGL LOG] sort_host_mtx_sparsity_pattern : 156 ms
[OGL LOG] sort_host_mtx : 76 ms
[OGL LOG] init_preconditioner : 0 ms
 CG create  precond 
[OGL LOG] solve : 557 ms
BJcudaGKOCG:  Solving for p, Initial residual = 0.514689, Final residual = 9.66292e-05, No Iterations 536
linear solve p 1160
time step continuity errors : sum local = 6.19782e-08, global = -1.1042e-20, cumulative = -4.15408e-20
ExecutionTime = 28.04 s  ClockTime = 29 s

Time = 0.007

Courant Number mean: 0.101593 max: 0.841232
nonePBiCGStab:  Solving for Ux, Initial residual = 0.0177093, Final residual = 0.00377028, No Iterations 5
nonePBiCGStab:  Solving for Uy, Initial residual = 0.0504248, Final residual = 0.0154421, No Iterations 5
nonePBiCGStab:  Solving for Uz, Initial residual = 0.138873, Final residual = 0.0372881, No Iterations 5
linear solve U 405
[OGL LOG] init_host_sparsity_pattern : 205 ms
[OGL LOG] matrix not stored update host matrix
[OGL LOG] update_host_mtx : 109 ms
[OGL LOG] matrix is not yet sorted, sorting host matrix
[OGL LOG] sort_host_mtx_sparsity_pattern : 154 ms
[OGL LOG] sort_host_mtx : 76 ms
[OGL LOG] init_preconditioner : 0 ms
 CG create  precond 
[OGL LOG] solve : 557 ms
BJcudaGKOCG:  Solving for p, Initial residual = 0.63477, Final residual = 9.87349e-05, No Iterations 541
linear solve p 1148
time step continuity errors : sum local = 5.71156e-08, global = 9.12338e-21, cumulative = -3.24174e-20
[OGL LOG] init_host_sparsity_pattern : 211 ms
[OGL LOG] matrix not stored update host matrix
[OGL LOG] update_host_mtx : 109 ms
[OGL LOG] matrix is not yet sorted, sorting host matrix
[OGL LOG] sort_host_mtx_sparsity_pattern : 153 ms
[OGL LOG] sort_host_mtx : 75 ms
[OGL LOG] init_preconditioner : 0 ms
 CG create  precond 
[OGL LOG] solve : 558 ms
BJcudaGKOCG:  Solving for p, Initial residual = 0.549953, Final residual = 9.75528e-05, No Iterations 540
linear solve p 1154
time step continuity errors : sum local = 5.61027e-08, global = 1.13255e-20, cumulative = -2.10919e-20
ExecutionTime = 31.17 s  ClockTime = 32 s

Time = 0.008

Courant Number mean: 0.107405 max: 0.845016
nonePBiCGStab:  Solving for Ux, Initial residual = 0.0147258, Final residual = 0.00327597, No Iterations 5
nonePBiCGStab:  Solving for Uy, Initial residual = 0.0431385, Final residual = 0.0108732, No Iterations 5
nonePBiCGStab:  Solving for Uz, Initial residual = 0.118679, Final residual = 0.0344613, No Iterations 5
linear solve U 408
[OGL LOG] init_host_sparsity_pattern : 205 ms
[OGL LOG] matrix not stored update host matrix
[OGL LOG] update_host_mtx : 110 ms
[OGL LOG] matrix is not yet sorted, sorting host matrix
[OGL LOG] sort_host_mtx_sparsity_pattern : 153 ms
[OGL LOG] sort_host_mtx : 76 ms
[OGL LOG] init_preconditioner : 0 ms
 CG create  precond 
[OGL LOG] solve : 264 ms
BJcudaGKOCG:  Solving for p, Initial residual = 0.571261, Final residual = 9.99176e-05, No Iterations 253
linear solve p 855
time step continuity errors : sum local = 6.56796e-08, global = 9.07275e-21, cumulative = -1.20192e-20
[OGL LOG] init_host_sparsity_pattern : 219 ms
[OGL LOG] matrix not stored update host matrix
[OGL LOG] update_host_mtx : 109 ms
[OGL LOG] matrix is not yet sorted, sorting host matrix
[OGL LOG] sort_host_mtx_sparsity_pattern : 151 ms
[OGL LOG] sort_host_mtx : 76 ms
[OGL LOG] init_preconditioner : 0 ms
 CG create  precond 
[OGL LOG] solve : 260 ms
BJcudaGKOCG:  Solving for p, Initial residual = 0.487497, Final residual = 9.86386e-05, No Iterations 249
linear solve p 865
time step continuity errors : sum local = 6.24625e-08, global = 9.52214e-21, cumulative = -2.49703e-21
ExecutionTime = 33.74 s  ClockTime = 34 s

Time = 0.009

Courant Number mean: 0.112566 max: 0.848127
nonePBiCGStab:  Solving for Ux, Initial residual = 0.0130856, Final residual = 0.0025212, No Iterations 5
nonePBiCGStab:  Solving for Uy, Initial residual = 0.0357062, Final residual = 0.00957467, No Iterations 5
nonePBiCGStab:  Solving for Uz, Initial residual = 0.0971052, Final residual = 0.0278718, No Iterations 5
linear solve U 406
[OGL LOG] init_host_sparsity_pattern : 205 ms
[OGL LOG] matrix not stored update host matrix
[OGL LOG] update_host_mtx : 110 ms
[OGL LOG] matrix is not yet sorted, sorting host matrix
[OGL LOG] sort_host_mtx_sparsity_pattern : 152 ms
[OGL LOG] sort_host_mtx : 76 ms
[OGL LOG] init_preconditioner : 0 ms
 CG create  precond 
[OGL LOG] solve : 546 ms
BJcudaGKOCG:  Solving for p, Initial residual = 0.602646, Final residual = 9.98166e-05, No Iterations 529
linear solve p 1140
time step continuity errors : sum local = 5.72013e-08, global = -3.11862e-21, cumulative = -5.61565e-21
[OGL LOG] init_host_sparsity_pattern : 211 ms
[OGL LOG] matrix not stored update host matrix
[OGL LOG] update_host_mtx : 109 ms
[OGL LOG] matrix is not yet sorted, sorting host matrix
[OGL LOG] sort_host_mtx_sparsity_pattern : 151 ms
[OGL LOG] sort_host_mtx : 76 ms
[OGL LOG] init_preconditioner : 0 ms
 CG create  precond 
[OGL LOG] solve : 545 ms
BJcudaGKOCG:  Solving for p, Initial residual = 0.518454, Final residual = 9.82248e-05, No Iterations 528
linear solve p 1140
time step continuity errors : sum local = 5.61458e-08, global = -5.7946e-21, cumulative = -1.14102e-20
ExecutionTime = 36.87 s  ClockTime = 37 s

Time = 0.01

Courant Number mean: 0.117169 max: 0.850576
nonePBiCGStab:  Solving for Ux, Initial residual = 0.011258, Final residual = 0.00208087, No Iterations 5
nonePBiCGStab:  Solving for Uy, Initial residual = 0.0318584, Final residual = 0.00698251, No Iterations 5
nonePBiCGStab:  Solving for Uz, Initial residual = 0.08836, Final residual = 0.0263547, No Iterations 5
linear solve U 404
[OGL LOG] init_host_sparsity_pattern : 206 ms
[OGL LOG] matrix not stored update host matrix
[OGL LOG] update_host_mtx : 109 ms
[OGL LOG] matrix is not yet sorted, sorting host matrix
[OGL LOG] sort_host_mtx_sparsity_pattern : 158 ms
[OGL LOG] sort_host_mtx : 76 ms
[OGL LOG] init_preconditioner : 0 ms
 CG create  precond 
[OGL LOG] solve : 256 ms
BJcudaGKOCG:  Solving for p, Initial residual = 0.545867, Final residual = 9.93044e-05, No Iterations 246
linear solve p 855
time step continuity errors : sum local = 6.33536e-08, global = 8.40342e-21, cumulative = -3.00683e-21
[OGL LOG] init_host_sparsity_pattern : 212 ms
[OGL LOG] matrix not stored update host matrix
[OGL LOG] update_host_mtx : 109 ms
[OGL LOG] matrix is not yet sorted, sorting host matrix
[OGL LOG] sort_host_mtx_sparsity_pattern : 151 ms
[OGL LOG] sort_host_mtx : 76 ms
[OGL LOG] init_preconditioner : 0 ms
 CG create  precond 
[OGL LOG] solve : 252 ms
BJcudaGKOCG:  Solving for p, Initial residual = 0.466676, Final residual = 9.91349e-05, No Iterations 242
linear solve p 847
time step continuity errors : sum local = 6.08528e-08, global = 1.14629e-20, cumulative = 8.45605e-21
ExecutionTime = 39.41 s  ClockTime = 40 s

End

