/*---------------------------------------------------------------------------*\
  =========                 |
  \\      /  F ield         | OpenFOAM: The Open Source CFD Toolbox
   \\    /   O peration     | Website:  https://openfoam.org
    \\  /    A nd           | Version:  8
     \\/     M anipulation  |
\*---------------------------------------------------------------------------*/
Build  : 8-40a5a48f630f
Exec   : icoFoam
Date   : Jul 28 2021
Time   : 01:41:44
Host   : "uc2n426.localdomain"
PID    : 381286
I/O    : uncollated
Case   : /pfs/data5/home/kit/scc/nq7776/code/OBR/lidDrivenCavity3D/Variation_mesh/5/Variation_matrix_solver/CG_NoPrecond_OMP/base
nProcs : 1
sigFpe : Enabling floating point exception trapping (FOAM_SIGFPE).
fileModificationChecking : Monitoring run-time modified files using timeStampMaster (fileModificationSkew 10)
allowSystemOperations : Allowing user-supplied system call operations

// * * * * * * * * * * * * * * * * * * * * * * * * * * * * * * * * * * * * * //
Create time

Create mesh for time = 0

Reading transportProperties

Reading field p

Reading field U

Reading/calculating face flux field phi


Starting time loop

Time = 0.001

Courant Number mean: 0 max: 0
nonePBiCGStab:  Solving for Ux, Initial residual = 1, Final residual = 2.34893e-07, No Iterations 3
nonePBiCGStab:  Solving for Uy, Initial residual = 0, Final residual = 0, No Iterations 0
nonePBiCGStab:  Solving for Uz, Initial residual = 0, Final residual = 0, No Iterations 0
linear solve U 0
noneompGKOCG:  Solving for p, Initial residual = 1, Final residual = 4.84498e-05, No Iterations 31
linear solve p 210
time step continuity errors : sum local = 9.09472e-09, global = -2.36232e-21, cumulative = -2.36232e-21
ExecutionTime = 6.31 s  ClockTime = 0 s

Time = 0.002

Courant Number mean: 0.000592721 max: 0.00137552
nonePBiCGStab:  Solving for Ux, Initial residual = 0.294156, Final residual = 5.22242e-07, No Iterations 3
nonePBiCGStab:  Solving for Uy, Initial residual = 0.339884, Final residual = 8.95754e-08, No Iterations 3
nonePBiCGStab:  Solving for Uz, Initial residual = 0.327132, Final residual = 1.76948e-07, No Iterations 3
linear solve U 0
noneompGKOCG:  Solving for p, Initial residual = 0.119597, Final residual = 5.26867e-05, No Iterations 27
linear solve p 5
time step continuity errors : sum local = 2.23326e-08, global = 6.76613e-21, cumulative = 4.40381e-21
ExecutionTime = 6.55 s  ClockTime = 0 s

Time = 0.003

Courant Number mean: 0.00112954 max: 0.00263279
nonePBiCGStab:  Solving for Ux, Initial residual = 0.161236, Final residual = 2.71941e-07, No Iterations 3
nonePBiCGStab:  Solving for Uy, Initial residual = 0.187388, Final residual = 5.57523e-08, No Iterations 3
nonePBiCGStab:  Solving for Uz, Initial residual = 0.227954, Final residual = 8.88572e-08, No Iterations 3
linear solve U 0
noneompGKOCG:  Solving for p, Initial residual = 0.0509195, Final residual = 9.33687e-05, No Iterations 13
linear solve p 2
time step continuity errors : sum local = 5.05179e-08, global = -5.86636e-21, cumulative = -1.46256e-21
ExecutionTime = 6.67 s  ClockTime = 0 s

Time = 0.004

Courant Number mean: 0.001617 max: 0.0037891
nonePBiCGStab:  Solving for Ux, Initial residual = 0.108817, Final residual = 1.69183e-07, No Iterations 3
nonePBiCGStab:  Solving for Uy, Initial residual = 0.129884, Final residual = 8.14194e-07, No Iterations 2
nonePBiCGStab:  Solving for Uz, Initial residual = 0.17971, Final residual = 7.92091e-08, No Iterations 3
linear solve U 0
noneompGKOCG:  Solving for p, Initial residual = 0.033065, Final residual = 8.90237e-05, No Iterations 12
linear solve p 2
time step continuity errors : sum local = 6.19961e-08, global = 1.44815e-20, cumulative = 1.30189e-20
ExecutionTime = 6.81 s  ClockTime = 0 s

Time = 0.005

Courant Number mean: 0.0020607 max: 0.00485524
nonePBiCGStab:  Solving for Ux, Initial residual = 0.080032, Final residual = 1.13595e-07, No Iterations 3
nonePBiCGStab:  Solving for Uy, Initial residual = 0.0969865, Final residual = 5.83879e-07, No Iterations 2
nonePBiCGStab:  Solving for Uz, Initial residual = 0.148302, Final residual = 6.93897e-08, No Iterations 3
linear solve U 0
noneompGKOCG:  Solving for p, Initial residual = 0.022388, Final residual = 9.11314e-05, No Iterations 23
linear solve p 4
time step continuity errors : sum local = 4.97131e-08, global = -1.66001e-20, cumulative = -3.58118e-21
ExecutionTime = 6.98 s  ClockTime = 0 s

Time = 0.006

Courant Number mean: 0.00246503 max: 0.0058393
nonePBiCGStab:  Solving for Ux, Initial residual = 0.062019, Final residual = 7.98896e-08, No Iterations 3
nonePBiCGStab:  Solving for Uy, Initial residual = 0.0761246, Final residual = 4.34876e-07, No Iterations 2
nonePBiCGStab:  Solving for Uz, Initial residual = 0.12026, Final residual = 6.49393e-08, No Iterations 3
linear solve U 0
noneompGKOCG:  Solving for p, Initial residual = 0.0163127, Final residual = 8.50415e-05, No Iterations 12
linear solve p 2
time step continuity errors : sum local = 7.16192e-08, global = -5.32746e-21, cumulative = -8.90863e-21
ExecutionTime = 7.1 s  ClockTime = 0 s

Time = 0.007

Courant Number mean: 0.00283405 max: 0.00674803
nonePBiCGStab:  Solving for Ux, Initial residual = 0.0497655, Final residual = 9.30439e-07, No Iterations 2
nonePBiCGStab:  Solving for Uy, Initial residual = 0.0617052, Final residual = 3.32587e-07, No Iterations 2
nonePBiCGStab:  Solving for Uz, Initial residual = 0.103475, Final residual = 8.34929e-07, No Iterations 2
linear solve U 0
noneompGKOCG:  Solving for p, Initial residual = 0.0125442, Final residual = 6.76591e-05, No Iterations 23
linear solve p 4
time step continuity errors : sum local = 3.88149e-08, global = 3.07256e-20, cumulative = 2.1817e-20
ExecutionTime = 7.31 s  ClockTime = 0 s

Time = 0.008

Courant Number mean: 0.00317131 max: 0.00758822
nonePBiCGStab:  Solving for Ux, Initial residual = 0.0408851, Final residual = 7.06466e-07, No Iterations 2
nonePBiCGStab:  Solving for Uy, Initial residual = 0.0512501, Final residual = 2.59203e-07, No Iterations 2
nonePBiCGStab:  Solving for Uz, Initial residual = 0.0893153, Final residual = 7.67264e-07, No Iterations 2
linear solve U 0
noneompGKOCG:  Solving for p, Initial residual = 0.010138, Final residual = 7.16791e-05, No Iterations 12
linear solve p 2
time step continuity errors : sum local = 6.39624e-08, global = -6.90779e-21, cumulative = 1.49092e-20
ExecutionTime = 7.43 s  ClockTime = 0 s

Time = 0.009

Courant Number mean: 0.00347999 max: 0.00836577
nonePBiCGStab:  Solving for Ux, Initial residual = 0.0342294, Final residual = 5.42635e-07, No Iterations 2
nonePBiCGStab:  Solving for Uy, Initial residual = 0.0432969, Final residual = 2.05346e-07, No Iterations 2
nonePBiCGStab:  Solving for Uz, Initial residual = 0.0786016, Final residual = 6.22225e-07, No Iterations 2
linear solve U 0
noneompGKOCG:  Solving for p, Initial residual = 0.00828398, Final residual = 5.94549e-05, No Iterations 23
linear solve p 4
time step continuity errors : sum local = 3.59631e-08, global = -3.00267e-20, cumulative = -1.51174e-20
ExecutionTime = 7.63 s  ClockTime = 0 s

Time = 0.01

Courant Number mean: 0.00376287 max: 0.0090859
nonePBiCGStab:  Solving for Ux, Initial residual = 0.0290319, Final residual = 4.20227e-07, No Iterations 2
nonePBiCGStab:  Solving for Uy, Initial residual = 0.0371337, Final residual = 1.64395e-07, No Iterations 2
nonePBiCGStab:  Solving for Uz, Initial residual = 0.0697237, Final residual = 5.34954e-07, No Iterations 2
linear solve U 0
noneompGKOCG:  Solving for p, Initial residual = 0.00704816, Final residual = 9.68725e-05, No Iterations 11
linear solve p 2
time step continuity errors : sum local = 8.37203e-08, global = 4.56765e-20, cumulative = 3.05591e-20
ExecutionTime = 7.75 s  ClockTime = 0 s

End

