/*---------------------------------------------------------------------------*\
  =========                 |
  \\      /  F ield         | OpenFOAM: The Open Source CFD Toolbox
   \\    /   O peration     | Website:  https://openfoam.org
    \\  /    A nd           | Version:  8
     \\/     M anipulation  |
\*---------------------------------------------------------------------------*/
Build  : 8-40a5a48f630f
Exec   : icoFoam
Date   : Jul 28 2021
Time   : 02:38:25
Host   : "uc2n462.localdomain"
PID    : 3691338
I/O    : uncollated
Case   : /pfs/data5/home/kit/scc/nq7776/code/OBR/lidDrivenCavity3D/Variation_mesh/95/Variation_matrix_solver/BiCGStab_NoPrecond_OMP/base
nProcs : 1
sigFpe : Enabling floating point exception trapping (FOAM_SIGFPE).
fileModificationChecking : Monitoring run-time modified files using timeStampMaster (fileModificationSkew 10)
allowSystemOperations : Allowing user-supplied system call operations

// * * * * * * * * * * * * * * * * * * * * * * * * * * * * * * * * * * * * * //
Create time

Create mesh for time = 0

Reading transportProperties

Reading field p

Reading field U

Reading/calculating face flux field phi


Starting time loop

Time = 0.001

Courant Number mean: 0 max: 0
nonePBiCGStab:  Solving for Ux, Initial residual = 1, Final residual = 0.078913, No Iterations 5
nonePBiCGStab:  Solving for Uy, Initial residual = 0, Final residual = 0, No Iterations 0
nonePBiCGStab:  Solving for Uz, Initial residual = 0, Final residual = 0, No Iterations 0
linear solve U 228
[OGL LOG] init_host_sparsity_pattern : 249 ms
[OGL LOG] matrix not stored update host matrix
[OGL LOG] update_host_mtx : 137 ms
[OGL LOG] matrix is not yet sorted, compute sorting idxs
[OGL LOG] compute_sort : 7774 ms
[OGL LOG] matrix is not yet sorted, sorting host matrix
[OGL LOG] sort_host_mtx_sparsity_pattern : 179 ms
[OGL LOG] sort_host_mtx : 107 ms
[OGL LOG] init_preconditioner : 0 ms
[OGL LOG] solve : 9766 ms
noneompGKOBiCGStab:  Solving for p, Initial residual = 1, Final residual = 9.49718e-05, No Iterations 605
linear solve p 18429
time step continuity errors : sum local = 1.00316e-07, global = 6.37456e-21, cumulative = 6.37456e-21
[OGL LOG] init_host_sparsity_pattern : 239 ms
[OGL LOG] matrix not stored update host matrix
[OGL LOG] update_host_mtx : 129 ms
[OGL LOG] matrix is not yet sorted, sorting host matrix
[OGL LOG] sort_host_mtx_sparsity_pattern : 196 ms
[OGL LOG] sort_host_mtx : 105 ms
[OGL LOG] init_preconditioner : 0 ms
[OGL LOG] solve : 9458 ms
noneompGKOBiCGStab:  Solving for p, Initial residual = 0.704978, Final residual = 9.95091e-05, No Iterations 595
linear solve p 10301
time step continuity errors : sum local = 3.13971e-07, global = -1.04005e-21, cumulative = 5.33451e-21
ExecutionTime = 396.44 s  ClockTime = 33 s

Time = 0.002

Courant Number mean: 0.0412076 max: 0.745796
nonePBiCGStab:  Solving for Ux, Initial residual = 0.139503, Final residual = 0.0379731, No Iterations 5
nonePBiCGStab:  Solving for Uy, Initial residual = 0.440024, Final residual = 0.117604, No Iterations 5
nonePBiCGStab:  Solving for Uz, Initial residual = 0.97937, Final residual = 0.308465, No Iterations 5
linear solve U 470
[OGL LOG] init_host_sparsity_pattern : 230 ms
[OGL LOG] matrix not stored update host matrix
[OGL LOG] update_host_mtx : 130 ms
[OGL LOG] matrix is not yet sorted, sorting host matrix
[OGL LOG] sort_host_mtx_sparsity_pattern : 184 ms
[OGL LOG] sort_host_mtx : 105 ms
[OGL LOG] init_preconditioner : 0 ms
[OGL LOG] solve : 8288 ms
noneompGKOBiCGStab:  Solving for p, Initial residual = 0.777632, Final residual = 8.49359e-05, No Iterations 561
linear solve p 9086
time step continuity errors : sum local = 7.96573e-07, global = 3.5271e-21, cumulative = 8.86161e-21
[OGL LOG] init_host_sparsity_pattern : 231 ms
[OGL LOG] matrix not stored update host matrix
[OGL LOG] update_host_mtx : 129 ms
[OGL LOG] matrix is not yet sorted, sorting host matrix
[OGL LOG] sort_host_mtx_sparsity_pattern : 184 ms
[OGL LOG] sort_host_mtx : 106 ms
[OGL LOG] init_preconditioner : 0 ms
[OGL LOG] solve : 4126 ms
noneompGKOBiCGStab:  Solving for p, Initial residual = 0.700591, Final residual = 9.95547e-05, No Iterations 242
linear solve p 4920
time step continuity errors : sum local = 1.8212e-07, global = -2.85276e-21, cumulative = 6.00885e-21
ExecutionTime = 646.8 s  ClockTime = 48 s

Time = 0.003

Courant Number mean: 0.0654573 max: 0.850012
nonePBiCGStab:  Solving for Ux, Initial residual = 0.0599397, Final residual = 0.0135621, No Iterations 5
nonePBiCGStab:  Solving for Uy, Initial residual = 0.199277, Final residual = 0.0557819, No Iterations 5
nonePBiCGStab:  Solving for Uz, Initial residual = 0.705942, Final residual = 0.229227, No Iterations 5
linear solve U 459
[OGL LOG] init_host_sparsity_pattern : 227 ms
[OGL LOG] matrix not stored update host matrix
[OGL LOG] update_host_mtx : 129 ms
[OGL LOG] matrix is not yet sorted, sorting host matrix
[OGL LOG] sort_host_mtx_sparsity_pattern : 184 ms
[OGL LOG] sort_host_mtx : 106 ms
[OGL LOG] init_preconditioner : 0 ms
[OGL LOG] solve : 9415 ms
noneompGKOBiCGStab:  Solving for p, Initial residual = 0.778301, Final residual = 8.66262e-05, No Iterations 559
linear solve p 10208
time step continuity errors : sum local = 5.2334e-07, global = 7.7477e-21, cumulative = 1.37565e-20
[OGL LOG] init_host_sparsity_pattern : 231 ms
[OGL LOG] matrix not stored update host matrix
[OGL LOG] update_host_mtx : 130 ms
[OGL LOG] matrix is not yet sorted, sorting host matrix
[OGL LOG] sort_host_mtx_sparsity_pattern : 178 ms
[OGL LOG] sort_host_mtx : 106 ms
[OGL LOG] init_preconditioner : 0 ms
[OGL LOG] solve : 8814 ms
noneompGKOBiCGStab:  Solving for p, Initial residual = 0.705126, Final residual = 8.49628e-05, No Iterations 520
linear solve p 9592
time step continuity errors : sum local = 1.60225e-05, global = 5.28986e-21, cumulative = 1.90464e-20
ExecutionTime = 1013.01 s  ClockTime = 69 s

Time = 0.004

Courant Number mean: 0.0789166 max: 0.864848
nonePBiCGStab:  Solving for Ux, Initial residual = 0.0388662, Final residual = 0.0113005, No Iterations 5
nonePBiCGStab:  Solving for Uy, Initial residual = 0.140029, Final residual = 0.0468309, No Iterations 5
nonePBiCGStab:  Solving for Uz, Initial residual = 0.533361, Final residual = 0.192099, No Iterations 5
linear solve U 460
[OGL LOG] init_host_sparsity_pattern : 226 ms
[OGL LOG] matrix not stored update host matrix
[OGL LOG] update_host_mtx : 130 ms
[OGL LOG] matrix is not yet sorted, sorting host matrix
[OGL LOG] sort_host_mtx_sparsity_pattern : 178 ms
[OGL LOG] sort_host_mtx : 106 ms
[OGL LOG] init_preconditioner : 0 ms
[OGL LOG] solve : 10602 ms
noneompGKOBiCGStab:  Solving for p, Initial residual = 0.701072, Final residual = 9.35969e-05, No Iterations 625
linear solve p 11373
time step continuity errors : sum local = 2.8959e-06, global = 1.83199e-20, cumulative = 3.73664e-20
[OGL LOG] init_host_sparsity_pattern : 235 ms
[OGL LOG] matrix not stored update host matrix
[OGL LOG] update_host_mtx : 129 ms
[OGL LOG] matrix is not yet sorted, sorting host matrix
[OGL LOG] sort_host_mtx_sparsity_pattern : 184 ms
[OGL LOG] sort_host_mtx : 105 ms
[OGL LOG] init_preconditioner : 0 ms
[OGL LOG] solve : 10037 ms
noneompGKOBiCGStab:  Solving for p, Initial residual = 0.602462, Final residual = 9.39264e-05, No Iterations 570
linear solve p 10836
time step continuity errors : sum local = 9.06408e-08, global = 1.08206e-20, cumulative = 4.81869e-20
ExecutionTime = 1427.51 s  ClockTime = 92 s

Time = 0.005

Courant Number mean: 0.0891845 max: 0.877197
nonePBiCGStab:  Solving for Ux, Initial residual = 0.0297982, Final residual = 0.00811699, No Iterations 5
nonePBiCGStab:  Solving for Uy, Initial residual = 0.0953112, Final residual = 0.0346897, No Iterations 5
nonePBiCGStab:  Solving for Uz, Initial residual = 0.410689, Final residual = 0.130559, No Iterations 5
linear solve U 475
[OGL LOG] init_host_sparsity_pattern : 230 ms
[OGL LOG] matrix not stored update host matrix
[OGL LOG] update_host_mtx : 129 ms
[OGL LOG] matrix is not yet sorted, sorting host matrix
[OGL LOG] sort_host_mtx_sparsity_pattern : 178 ms
[OGL LOG] sort_host_mtx : 105 ms
[OGL LOG] init_preconditioner : 0 ms
[OGL LOG] solve : 9337 ms
noneompGKOBiCGStab:  Solving for p, Initial residual = 0.733123, Final residual = 9.47845e-05, No Iterations 526
linear solve p 10117
time step continuity errors : sum local = 1.32078e-06, global = -8.37634e-21, cumulative = 3.98106e-20
[OGL LOG] init_host_sparsity_pattern : 235 ms
[OGL LOG] matrix not stored update host matrix
[OGL LOG] update_host_mtx : 129 ms
[OGL LOG] matrix is not yet sorted, sorting host matrix
[OGL LOG] sort_host_mtx_sparsity_pattern : 184 ms
[OGL LOG] sort_host_mtx : 105 ms
[OGL LOG] init_preconditioner : 0 ms
[OGL LOG] solve : 9334 ms
noneompGKOBiCGStab:  Solving for p, Initial residual = 0.646035, Final residual = 9.2735e-05, No Iterations 522
linear solve p 10130
time step continuity errors : sum local = 2.00758e-06, global = -8.29973e-21, cumulative = 3.15108e-20
ExecutionTime = 1802.79 s  ClockTime = 113 s

Time = 0.006

Courant Number mean: 0.0972706 max: 0.88387
nonePBiCGStab:  Solving for Ux, Initial residual = 0.0235658, Final residual = 0.00708845, No Iterations 5
nonePBiCGStab:  Solving for Uy, Initial residual = 0.074715, Final residual = 0.0259283, No Iterations 5
nonePBiCGStab:  Solving for Uz, Initial residual = 0.300203, Final residual = 0.0905206, No Iterations 5
linear solve U 460
[OGL LOG] init_host_sparsity_pattern : 232 ms
[OGL LOG] matrix not stored update host matrix
[OGL LOG] update_host_mtx : 129 ms
[OGL LOG] matrix is not yet sorted, sorting host matrix
[OGL LOG] sort_host_mtx_sparsity_pattern : 178 ms
[OGL LOG] sort_host_mtx : 105 ms
[OGL LOG] init_preconditioner : 0 ms
[OGL LOG] solve : 8937 ms
noneompGKOBiCGStab:  Solving for p, Initial residual = 0.667312, Final residual = 9.92101e-05, No Iterations 524
linear solve p 9711
time step continuity errors : sum local = 5.35814e-07, global = -9.72215e-22, cumulative = 3.05386e-20
[OGL LOG] init_host_sparsity_pattern : 235 ms
[OGL LOG] matrix not stored update host matrix
[OGL LOG] update_host_mtx : 130 ms
[OGL LOG] matrix is not yet sorted, sorting host matrix
[OGL LOG] sort_host_mtx_sparsity_pattern : 178 ms
[OGL LOG] sort_host_mtx : 105 ms
[OGL LOG] init_preconditioner : 0 ms
[OGL LOG] solve : 10068 ms
noneompGKOBiCGStab:  Solving for p, Initial residual = 0.569208, Final residual = 9.37468e-05, No Iterations 542
linear solve p 10852
time step continuity errors : sum local = 1.20652e-07, global = -2.34097e-21, cumulative = 2.81977e-20
ExecutionTime = 2184.67 s  ClockTime = 135 s

Time = 0.007

Courant Number mean: 0.104138 max: 0.889325
nonePBiCGStab:  Solving for Ux, Initial residual = 0.0197733, Final residual = 0.00517703, No Iterations 5
nonePBiCGStab:  Solving for Uy, Initial residual = 0.0585587, Final residual = 0.0201894, No Iterations 5
nonePBiCGStab:  Solving for Uz, Initial residual = 0.254141, Final residual = 0.0837446, No Iterations 5
linear solve U 480
[OGL LOG] init_host_sparsity_pattern : 230 ms
[OGL LOG] matrix not stored update host matrix
[OGL LOG] update_host_mtx : 130 ms
[OGL LOG] matrix is not yet sorted, sorting host matrix
[OGL LOG] sort_host_mtx_sparsity_pattern : 184 ms
[OGL LOG] sort_host_mtx : 106 ms
[OGL LOG] init_preconditioner : 0 ms
[OGL LOG] solve : 8265 ms
noneompGKOBiCGStab:  Solving for p, Initial residual = 0.695188, Final residual = 8.55645e-05, No Iterations 482
linear solve p 9062
time step continuity errors : sum local = 7.12256e-08, global = -1.29861e-20, cumulative = 1.52115e-20
[OGL LOG] init_host_sparsity_pattern : 235 ms
[OGL LOG] matrix not stored update host matrix
[OGL LOG] update_host_mtx : 130 ms
[OGL LOG] matrix is not yet sorted, sorting host matrix
[OGL LOG] sort_host_mtx_sparsity_pattern : 185 ms
[OGL LOG] sort_host_mtx : 106 ms
[OGL LOG] init_preconditioner : 0 ms
[OGL LOG] solve : 9082 ms
noneompGKOBiCGStab:  Solving for p, Initial residual = 0.599242, Final residual = 7.19934e-05, No Iterations 511
linear solve p 9885
time step continuity errors : sum local = 5.7e-08, global = -5.09777e-21, cumulative = 1.01138e-20
ExecutionTime = 2533.53 s  ClockTime = 155 s

Time = 0.008

Courant Number mean: 0.110161 max: 0.89315
nonePBiCGStab:  Solving for Ux, Initial residual = 0.0165871, Final residual = 0.0045847, No Iterations 5
nonePBiCGStab:  Solving for Uy, Initial residual = 0.0494061, Final residual = 0.016203, No Iterations 5
nonePBiCGStab:  Solving for Uz, Initial residual = 0.197001, Final residual = 0.0554697, No Iterations 5
linear solve U 478
[OGL LOG] init_host_sparsity_pattern : 230 ms
[OGL LOG] matrix not stored update host matrix
[OGL LOG] update_host_mtx : 130 ms
[OGL LOG] matrix is not yet sorted, sorting host matrix
[OGL LOG] sort_host_mtx_sparsity_pattern : 179 ms
[OGL LOG] sort_host_mtx : 105 ms
[OGL LOG] init_preconditioner : 0 ms
[OGL LOG] solve : 7992 ms
noneompGKOBiCGStab:  Solving for p, Initial residual = 0.644971, Final residual = 9.75322e-05, No Iterations 466
linear solve p 8771
time step continuity errors : sum local = 4.7838e-07, global = -6.85221e-21, cumulative = 3.26156e-21
[OGL LOG] init_host_sparsity_pattern : 235 ms
[OGL LOG] matrix not stored update host matrix
[OGL LOG] update_host_mtx : 136 ms
[OGL LOG] matrix is not yet sorted, sorting host matrix
[OGL LOG] sort_host_mtx_sparsity_pattern : 189 ms
[OGL LOG] sort_host_mtx : 112 ms
[OGL LOG] init_preconditioner : 0 ms
[OGL LOG] solve : 10705 ms
noneompGKOBiCGStab:  Solving for p, Initial residual = 0.548614, Final residual = 9.60726e-05, No Iterations 589
linear solve p 11530
time step continuity errors : sum local = 1.96429e-07, global = 1.05231e-20, cumulative = 1.37847e-20
ExecutionTime = 2909.46 s  ClockTime = 176 s

Time = 0.009

Courant Number mean: 0.115484 max: 0.896329
nonePBiCGStab:  Solving for Ux, Initial residual = 0.0147862, Final residual = 0.00397616, No Iterations 5
nonePBiCGStab:  Solving for Uy, Initial residual = 0.043109, Final residual = 0.0146776, No Iterations 5
nonePBiCGStab:  Solving for Uz, Initial residual = 0.209815, Final residual = 0.0795794, No Iterations 5
linear solve U 478
[OGL LOG] init_host_sparsity_pattern : 230 ms
[OGL LOG] matrix not stored update host matrix
[OGL LOG] update_host_mtx : 130 ms
[OGL LOG] matrix is not yet sorted, sorting host matrix
[OGL LOG] sort_host_mtx_sparsity_pattern : 184 ms
[OGL LOG] sort_host_mtx : 105 ms
[OGL LOG] init_preconditioner : 0 ms
[OGL LOG] solve : 10601 ms
noneompGKOBiCGStab:  Solving for p, Initial residual = 0.682715, Final residual = 9.0022e-05, No Iterations 608
linear solve p 11399
time step continuity errors : sum local = 1.20625e-07, global = -3.79085e-21, cumulative = 9.99382e-21
[OGL LOG] init_host_sparsity_pattern : 235 ms
[OGL LOG] matrix not stored update host matrix
[OGL LOG] update_host_mtx : 130 ms
[OGL LOG] matrix is not yet sorted, sorting host matrix
[OGL LOG] sort_host_mtx_sparsity_pattern : 179 ms
[OGL LOG] sort_host_mtx : 106 ms
[OGL LOG] init_preconditioner : 0 ms
[OGL LOG] solve : 9234 ms
noneompGKOBiCGStab:  Solving for p, Initial residual = 0.583055, Final residual = 9.76567e-05, No Iterations 525
linear solve p 10024
time step continuity errors : sum local = 7.0333e-08, global = 7.2308e-21, cumulative = 1.72246e-20
ExecutionTime = 3307.55 s  ClockTime = 199 s

Time = 0.01

Courant Number mean: 0.120136 max: 0.898878
nonePBiCGStab:  Solving for Ux, Initial residual = 0.0133214, Final residual = 0.00347972, No Iterations 5
nonePBiCGStab:  Solving for Uy, Initial residual = 0.0379114, Final residual = 0.0117912, No Iterations 5
nonePBiCGStab:  Solving for Uz, Initial residual = 0.160212, Final residual = 0.0434478, No Iterations 5
linear solve U 477
[OGL LOG] init_host_sparsity_pattern : 230 ms
[OGL LOG] matrix not stored update host matrix
[OGL LOG] update_host_mtx : 134 ms
[OGL LOG] matrix is not yet sorted, sorting host matrix
[OGL LOG] sort_host_mtx_sparsity_pattern : 204 ms
[OGL LOG] sort_host_mtx : 117 ms
[OGL LOG] init_preconditioner : 0 ms
[OGL LOG] solve : 8506 ms
noneompGKOBiCGStab:  Solving for p, Initial residual = 0.639668, Final residual = 9.60946e-05, No Iterations 480
linear solve p 9344
time step continuity errors : sum local = 7.40436e-08, global = -9.32267e-21, cumulative = 7.90195e-21
[OGL LOG] init_host_sparsity_pattern : 235 ms
[OGL LOG] matrix not stored update host matrix
[OGL LOG] update_host_mtx : 130 ms
[OGL LOG] matrix is not yet sorted, sorting host matrix
[OGL LOG] sort_host_mtx_sparsity_pattern : 179 ms
[OGL LOG] sort_host_mtx : 105 ms
[OGL LOG] init_preconditioner : 0 ms
[OGL LOG] solve : 9352 ms
noneompGKOBiCGStab:  Solving for p, Initial residual = 0.543598, Final residual = 7.3913e-05, No Iterations 523
linear solve p 10141
time step continuity errors : sum local = 5.90584e-08, global = -1.18453e-20, cumulative = -3.94331e-21
ExecutionTime = 3666.61 s  ClockTime = 219 s

End

