/*---------------------------------------------------------------------------*\
  =========                 |
  \\      /  F ield         | OpenFOAM: The Open Source CFD Toolbox
   \\    /   O peration     | Website:  https://openfoam.org
    \\  /    A nd           | Version:  8
     \\/     M anipulation  |
\*---------------------------------------------------------------------------*/
Build  : 8-40a5a48f630f
Exec   : icoFoam
Date   : Jul 28 2021
Time   : 02:35:00
Host   : "uc2n476.localdomain"
PID    : 1921167
I/O    : uncollated
Case   : /pfs/data5/home/kit/scc/nq7776/code/OBR/lidDrivenCavity3D/Variation_mesh/95/Variation_matrix_solver/BiCGStab_DIC_Serial/base
nProcs : 1
sigFpe : Enabling floating point exception trapping (FOAM_SIGFPE).
fileModificationChecking : Monitoring run-time modified files using timeStampMaster (fileModificationSkew 10)
allowSystemOperations : Allowing user-supplied system call operations

// * * * * * * * * * * * * * * * * * * * * * * * * * * * * * * * * * * * * * //
Create time

Create mesh for time = 0

Reading transportProperties

Reading field p

Reading field U

Reading/calculating face flux field phi


Starting time loop

Time = 0.001

Courant Number mean: 0 max: 0
nonePBiCGStab:  Solving for Ux, Initial residual = 1, Final residual = 0.078913, No Iterations 5
nonePBiCGStab:  Solving for Uy, Initial residual = 0, Final residual = 0, No Iterations 0
nonePBiCGStab:  Solving for Uz, Initial residual = 0, Final residual = 0, No Iterations 0
linear solve U 223
DICPBiCGStab:  Solving for p, Initial residual = 1, Final residual = 9.54256e-05, No Iterations 178
linear solve p 7412
time step continuity errors : sum local = 3.94693e-08, global = 5.15127e-21, cumulative = 5.15127e-21
DICPBiCGStab:  Solving for p, Initial residual = 0.704635, Final residual = 9.72067e-05, No Iterations 175
linear solve p 7244
time step continuity errors : sum local = 5.82778e-08, global = 8.17704e-22, cumulative = 5.96897e-21
ExecutionTime = 18.46 s  ClockTime = 19 s

Time = 0.002

Courant Number mean: 0.0412054 max: 0.745797
nonePBiCGStab:  Solving for Ux, Initial residual = 0.139154, Final residual = 0.0377791, No Iterations 5
nonePBiCGStab:  Solving for Uy, Initial residual = 0.440107, Final residual = 0.117167, No Iterations 5
nonePBiCGStab:  Solving for Uz, Initial residual = 0.985908, Final residual = 0.301194, No Iterations 5
linear solve U 456
DICPBiCGStab:  Solving for p, Initial residual = 0.777992, Final residual = 9.72685e-05, No Iterations 75
linear solve p 3118
time step continuity errors : sum local = 9.10129e-08, global = 2.11018e-22, cumulative = 6.17999e-21
DICPBiCGStab:  Solving for p, Initial residual = 0.701426, Final residual = 9.97148e-05, No Iterations 78
linear solve p 3262
time step continuity errors : sum local = 9.40957e-08, global = 1.17983e-21, cumulative = 7.35982e-21
ExecutionTime = 25.77 s  ClockTime = 26 s

Time = 0.003

Courant Number mean: 0.0654747 max: 0.850093
nonePBiCGStab:  Solving for Ux, Initial residual = 0.0601789, Final residual = 0.0136929, No Iterations 5
nonePBiCGStab:  Solving for Uy, Initial residual = 0.195716, Final residual = 0.05376, No Iterations 5
nonePBiCGStab:  Solving for Uz, Initial residual = 0.690562, Final residual = 0.19636, No Iterations 5
linear solve U 498
DICPBiCGStab:  Solving for p, Initial residual = 0.777449, Final residual = 8.39186e-05, No Iterations 82
linear solve p 3434
time step continuity errors : sum local = 8.07162e-08, global = 6.10112e-22, cumulative = 7.96994e-21
DICPBiCGStab:  Solving for p, Initial residual = 0.705994, Final residual = 8.6685e-05, No Iterations 77
linear solve p 3194
time step continuity errors : sum local = 6.43105e-08, global = -1.20956e-20, cumulative = -4.12571e-21
ExecutionTime = 33.38 s  ClockTime = 34 s

Time = 0.004

Courant Number mean: 0.0789313 max: 0.864895
nonePBiCGStab:  Solving for Ux, Initial residual = 0.0374909, Final residual = 0.00924332, No Iterations 5
nonePBiCGStab:  Solving for Uy, Initial residual = 0.138005, Final residual = 0.0427015, No Iterations 5
nonePBiCGStab:  Solving for Uz, Initial residual = 0.466413, Final residual = 0.120636, No Iterations 5
linear solve U 501
DICPBiCGStab:  Solving for p, Initial residual = 0.688611, Final residual = 7.53556e-05, No Iterations 76
linear solve p 3165
time step continuity errors : sum local = 8.38787e-08, global = -5.32948e-21, cumulative = -9.45519e-21
DICPBiCGStab:  Solving for p, Initial residual = 0.592792, Final residual = 7.41425e-05, No Iterations 76
linear solve p 3161
time step continuity errors : sum local = 6.40343e-08, global = -8.49085e-22, cumulative = -1.03043e-20
ExecutionTime = 40.69 s  ClockTime = 41 s

Time = 0.005

Courant Number mean: 0.0895753 max: 0.877328
nonePBiCGStab:  Solving for Ux, Initial residual = 0.0289379, Final residual = 0.00755118, No Iterations 5
nonePBiCGStab:  Solving for Uy, Initial residual = 0.0896719, Final residual = 0.0304574, No Iterations 5
nonePBiCGStab:  Solving for Uz, Initial residual = 0.290188, Final residual = 0.0778659, No Iterations 5
linear solve U 502
DICPBiCGStab:  Solving for p, Initial residual = 0.724609, Final residual = 9.66473e-05, No Iterations 73
linear solve p 3021
time step continuity errors : sum local = 1.23422e-07, global = 3.17943e-21, cumulative = -7.12485e-21
DICPBiCGStab:  Solving for p, Initial residual = 0.641052, Final residual = 7.65359e-05, No Iterations 73
linear solve p 3052
time step continuity errors : sum local = 6.67361e-08, global = 5.9002e-21, cumulative = -1.22465e-21
ExecutionTime = 47.78 s  ClockTime = 48 s

Time = 0.006

Courant Number mean: 0.0978403 max: 0.884261
nonePBiCGStab:  Solving for Ux, Initial residual = 0.0222088, Final residual = 0.00586749, No Iterations 5
nonePBiCGStab:  Solving for Uy, Initial residual = 0.073577, Final residual = 0.0244411, No Iterations 5
nonePBiCGStab:  Solving for Uz, Initial residual = 0.243887, Final residual = 0.0734054, No Iterations 5
linear solve U 500
DICPBiCGStab:  Solving for p, Initial residual = 0.651552, Final residual = 7.89008e-05, No Iterations 145
linear solve p 6046
time step continuity errors : sum local = 1.06902e-07, global = -9.99284e-21, cumulative = -1.12175e-20
DICPBiCGStab:  Solving for p, Initial residual = 0.558703, Final residual = 8.35675e-05, No Iterations 70
linear solve p 2928
time step continuity errors : sum local = 8.77134e-08, global = 1.29168e-20, cumulative = 1.69934e-21
ExecutionTime = 57.73 s  ClockTime = 58 s

Time = 0.007

Courant Number mean: 0.104802 max: 0.889613
nonePBiCGStab:  Solving for Ux, Initial residual = 0.0194929, Final residual = 0.00498521, No Iterations 5
nonePBiCGStab:  Solving for Uy, Initial residual = 0.0562585, Final residual = 0.0193342, No Iterations 5
nonePBiCGStab:  Solving for Uz, Initial residual = 0.211369, Final residual = 0.0664976, No Iterations 5
linear solve U 491
DICPBiCGStab:  Solving for p, Initial residual = 0.689732, Final residual = 9.71215e-05, No Iterations 154
linear solve p 6403
time step continuity errors : sum local = 1.19915e-07, global = 4.92941e-21, cumulative = 6.62874e-21
DICPBiCGStab:  Solving for p, Initial residual = 0.598226, Final residual = 9.80925e-05, No Iterations 158
linear solve p 6592
time step continuity errors : sum local = 8.15174e-08, global = -6.40247e-21, cumulative = 2.26275e-22
ExecutionTime = 71.71 s  ClockTime = 72 s

Time = 0.008

Courant Number mean: 0.110775 max: 0.893422
nonePBiCGStab:  Solving for Ux, Initial residual = 0.0160315, Final residual = 0.00438099, No Iterations 5
nonePBiCGStab:  Solving for Uy, Initial residual = 0.0505799, Final residual = 0.015269, No Iterations 5
nonePBiCGStab:  Solving for Uz, Initial residual = 0.223032, Final residual = 0.0733363, No Iterations 5
linear solve U 502
DICPBiCGStab:  Solving for p, Initial residual = 0.630507, Final residual = 5.91598e-06, No Iterations 190
linear solve p 7907
time step continuity errors : sum local = 7.06936e-09, global = 4.76411e-21, cumulative = 4.99038e-21
DICPBiCGStab:  Solving for p, Initial residual = 0.537753, Final residual = 6.70465e-05, No Iterations 182
linear solve p 7562
time step continuity errors : sum local = 4.77054e-08, global = 1.89787e-20, cumulative = 2.3969e-20
ExecutionTime = 88.15 s  ClockTime = 89 s

Time = 0.009

Courant Number mean: 0.115997 max: 0.896634
nonePBiCGStab:  Solving for Ux, Initial residual = 0.0146541, Final residual = 0.00378098, No Iterations 5
nonePBiCGStab:  Solving for Uy, Initial residual = 0.0416825, Final residual = 0.0134138, No Iterations 5
nonePBiCGStab:  Solving for Uz, Initial residual = 0.162078, Final residual = 0.0462245, No Iterations 5
linear solve U 495
DICPBiCGStab:  Solving for p, Initial residual = 0.670898, Final residual = 8.97965e-05, No Iterations 155
linear solve p 6447
time step continuity errors : sum local = 6.73361e-08, global = 1.29324e-20, cumulative = 3.69014e-20
DICPBiCGStab:  Solving for p, Initial residual = 0.576305, Final residual = 9.92774e-05, No Iterations 145
linear solve p 6022
time step continuity errors : sum local = 1.21034e-07, global = 1.98224e-20, cumulative = 5.67239e-20
ExecutionTime = 101.59 s  ClockTime = 102 s

Time = 0.01

Courant Number mean: 0.120634 max: 0.899026
nonePBiCGStab:  Solving for Ux, Initial residual = 0.0126727, Final residual = 0.00313872, No Iterations 5
nonePBiCGStab:  Solving for Uy, Initial residual = 0.0377768, Final residual = 0.0107546, No Iterations 5
nonePBiCGStab:  Solving for Uz, Initial residual = 0.14356, Final residual = 0.0477436, No Iterations 5
linear solve U 504
DICPBiCGStab:  Solving for p, Initial residual = 0.621713, Final residual = 8.49593e-05, No Iterations 143
linear solve p 5928
time step continuity errors : sum local = 8.62541e-08, global = -1.23432e-20, cumulative = 4.43807e-20
DICPBiCGStab:  Solving for p, Initial residual = 0.530548, Final residual = 6.73194e-05, No Iterations 158
linear solve p 6527
time step continuity errors : sum local = 9.04774e-08, global = -8.92813e-21, cumulative = 3.54525e-20
ExecutionTime = 115.03 s  ClockTime = 116 s

End

