/*---------------------------------------------------------------------------*\
  =========                 |
  \\      /  F ield         | OpenFOAM: The Open Source CFD Toolbox
   \\    /   O peration     | Website:  https://openfoam.org
    \\  /    A nd           | Version:  8
     \\/     M anipulation  |
\*---------------------------------------------------------------------------*/
Build  : 8-40a5a48f630f
Exec   : icoFoam
Date   : Jul 28 2021
Time   : 02:21:41
Host   : "uc2n476.localdomain"
PID    : 1920188
I/O    : uncollated
Case   : /pfs/data5/home/kit/scc/nq7776/code/OBR/lidDrivenCavity3D/Variation_mesh/40/Variation_matrix_solver/BiCGStab_DIC_Serial/base
nProcs : 1
sigFpe : Enabling floating point exception trapping (FOAM_SIGFPE).
fileModificationChecking : Monitoring run-time modified files using timeStampMaster (fileModificationSkew 10)
allowSystemOperations : Allowing user-supplied system call operations

// * * * * * * * * * * * * * * * * * * * * * * * * * * * * * * * * * * * * * //
Create time

Create mesh for time = 0

Reading transportProperties

Reading field p

Reading field U

Reading/calculating face flux field phi


Starting time loop

Time = 0.001

Courant Number mean: 0 max: 0
nonePBiCGStab:  Solving for Ux, Initial residual = 1, Final residual = 0.0197517, No Iterations 5
nonePBiCGStab:  Solving for Uy, Initial residual = 0, Final residual = 0, No Iterations 0
nonePBiCGStab:  Solving for Uz, Initial residual = 0, Final residual = 0, No Iterations 0
linear solve U 14
DICPBiCGStab:  Solving for p, Initial residual = 1, Final residual = 8.23003e-05, No Iterations 75
linear solve p 181
time step continuity errors : sum local = 6.66121e-08, global = -2.00248e-20, cumulative = -2.00248e-20
DICPBiCGStab:  Solving for p, Initial residual = 0.598153, Final residual = 5.74861e-05, No Iterations 74
linear solve p 180
time step continuity errors : sum local = 9.16616e-08, global = -4.6258e-21, cumulative = -2.46506e-20
ExecutionTime = 0.65 s  ClockTime = 1 s

Time = 0.002

Courant Number mean: 0.0210247 max: 0.237018
nonePBiCGStab:  Solving for Ux, Initial residual = 0.177591, Final residual = 0.00670374, No Iterations 5
nonePBiCGStab:  Solving for Uy, Initial residual = 0.294278, Final residual = 0.00768326, No Iterations 5
nonePBiCGStab:  Solving for Uz, Initial residual = 0.951365, Final residual = 0.0370597, No Iterations 5
linear solve U 29
DICPBiCGStab:  Solving for p, Initial residual = 0.458059, Final residual = 3.38906e-05, No Iterations 72
linear solve p 175
time step continuity errors : sum local = 5.23066e-08, global = 1.7154e-20, cumulative = -7.49661e-21
DICPBiCGStab:  Solving for p, Initial residual = 0.361286, Final residual = 6.57025e-05, No Iterations 70
linear solve p 165
time step continuity errors : sum local = 9.52983e-08, global = 1.1272e-20, cumulative = 3.77535e-21
ExecutionTime = 1.05 s  ClockTime = 1 s

Time = 0.003

Courant Number mean: 0.0321034 max: 0.3059
nonePBiCGStab:  Solving for Ux, Initial residual = 0.0658928, Final residual = 0.00124526, No Iterations 5
nonePBiCGStab:  Solving for Uy, Initial residual = 0.107294, Final residual = 0.00173142, No Iterations 5
nonePBiCGStab:  Solving for Uz, Initial residual = 0.171641, Final residual = 0.0065243, No Iterations 5
linear solve U 27
DICPBiCGStab:  Solving for p, Initial residual = 0.163229, Final residual = 8.67973e-05, No Iterations 67
linear solve p 162
time step continuity errors : sum local = 1.07817e-07, global = 3.16205e-21, cumulative = 6.9374e-21
DICPBiCGStab:  Solving for p, Initial residual = 0.12784, Final residual = 9.67527e-05, No Iterations 29
linear solve p 68
time step continuity errors : sum local = 1.17964e-07, global = 4.80485e-21, cumulative = 1.17422e-20
ExecutionTime = 1.35 s  ClockTime = 2 s

Time = 0.004

Courant Number mean: 0.0386764 max: 0.327556
nonePBiCGStab:  Solving for Ux, Initial residual = 0.0386388, Final residual = 0.000574177, No Iterations 5
nonePBiCGStab:  Solving for Uy, Initial residual = 0.0674493, Final residual = 0.000708022, No Iterations 5
nonePBiCGStab:  Solving for Uz, Initial residual = 0.128778, Final residual = 0.0043048, No Iterations 5
linear solve U 29
DICPBiCGStab:  Solving for p, Initial residual = 0.0858755, Final residual = 8.9641e-05, No Iterations 76
linear solve p 183
time step continuity errors : sum local = 1.11385e-07, global = -2.85803e-21, cumulative = 8.88422e-21
DICPBiCGStab:  Solving for p, Initial residual = 0.0661803, Final residual = 9.42123e-05, No Iterations 30
linear solve p 71
time step continuity errors : sum local = 6.13012e-08, global = 9.37467e-21, cumulative = 1.82589e-20
ExecutionTime = 1.66 s  ClockTime = 2 s

Time = 0.005

Courant Number mean: 0.0434815 max: 0.337865
nonePBiCGStab:  Solving for Ux, Initial residual = 0.0270693, Final residual = 0.000334467, No Iterations 5
nonePBiCGStab:  Solving for Uy, Initial residual = 0.0464894, Final residual = 0.000449387, No Iterations 5
nonePBiCGStab:  Solving for Uz, Initial residual = 0.0898275, Final residual = 0.00241727, No Iterations 5
linear solve U 27
DICPBiCGStab:  Solving for p, Initial residual = 0.0444789, Final residual = 8.18705e-05, No Iterations 60
linear solve p 145
time step continuity errors : sum local = 9.51871e-08, global = 1.25072e-20, cumulative = 3.07661e-20
DICPBiCGStab:  Solving for p, Initial residual = 0.0356429, Final residual = 8.64155e-05, No Iterations 30
linear solve p 70
time step continuity errors : sum local = 7.23892e-08, global = -6.56368e-21, cumulative = 2.42024e-20
ExecutionTime = 1.93 s  ClockTime = 2 s

Time = 0.006

Courant Number mean: 0.047201 max: 0.344029
nonePBiCGStab:  Solving for Ux, Initial residual = 0.0204109, Final residual = 0.000216933, No Iterations 5
nonePBiCGStab:  Solving for Uy, Initial residual = 0.0357689, Final residual = 0.000263097, No Iterations 5
nonePBiCGStab:  Solving for Uz, Initial residual = 0.0693085, Final residual = 0.00172501, No Iterations 5
linear solve U 31
DICPBiCGStab:  Solving for p, Initial residual = 0.0304189, Final residual = 9.19522e-05, No Iterations 75
linear solve p 185
time step continuity errors : sum local = 1.1446e-07, global = -2.23278e-20, cumulative = 1.87458e-21
DICPBiCGStab:  Solving for p, Initial residual = 0.0248775, Final residual = 9.7813e-05, No Iterations 69
linear solve p 164
time step continuity errors : sum local = 1.22448e-07, global = 9.68936e-21, cumulative = 1.15639e-20
ExecutionTime = 2.35 s  ClockTime = 3 s

Time = 0.007

Courant Number mean: 0.0502351 max: 0.348257
nonePBiCGStab:  Solving for Ux, Initial residual = 0.016284, Final residual = 0.000143424, No Iterations 5
nonePBiCGStab:  Solving for Uy, Initial residual = 0.028451, Final residual = 0.000210451, No Iterations 5
nonePBiCGStab:  Solving for Uz, Initial residual = 0.0540922, Final residual = 0.00104418, No Iterations 5
linear solve U 27
DICPBiCGStab:  Solving for p, Initial residual = 0.0228374, Final residual = 8.38902e-05, No Iterations 59
linear solve p 147
time step continuity errors : sum local = 8.07139e-08, global = -2.33303e-20, cumulative = -1.17664e-20
DICPBiCGStab:  Solving for p, Initial residual = 0.019035, Final residual = 9.79126e-05, No Iterations 27
linear solve p 67
time step continuity errors : sum local = 6.83166e-08, global = -1.04101e-20, cumulative = -2.21765e-20
ExecutionTime = 2.62 s  ClockTime = 3 s

Time = 0.008

Courant Number mean: 0.0528035 max: 0.351371
nonePBiCGStab:  Solving for Ux, Initial residual = 0.0133315, Final residual = 0.000106532, No Iterations 5
nonePBiCGStab:  Solving for Uy, Initial residual = 0.023639, Final residual = 0.000143286, No Iterations 5
nonePBiCGStab:  Solving for Uz, Initial residual = 0.0470034, Final residual = 0.00105909, No Iterations 5
linear solve U 28
DICPBiCGStab:  Solving for p, Initial residual = 0.0186601, Final residual = 9.8205e-05, No Iterations 27
linear solve p 68
time step continuity errors : sum local = 1.08274e-07, global = -1.33345e-20, cumulative = -3.5511e-20
DICPBiCGStab:  Solving for p, Initial residual = 0.0156308, Final residual = 9.93599e-05, No Iterations 25
linear solve p 60
time step continuity errors : sum local = 9.28545e-08, global = 6.23773e-21, cumulative = -2.92732e-20
ExecutionTime = 2.82 s  ClockTime = 3 s

Time = 0.009

Courant Number mean: 0.05499 max: 0.353784
nonePBiCGStab:  Solving for Ux, Initial residual = 0.0112, Final residual = 6.3207e-05, No Iterations 5
nonePBiCGStab:  Solving for Uy, Initial residual = 0.0199111, Final residual = 8.44875e-05, No Iterations 5
nonePBiCGStab:  Solving for Uz, Initial residual = 0.0394447, Final residual = 0.000425419, No Iterations 5
linear solve U 27
DICPBiCGStab:  Solving for p, Initial residual = 0.0157477, Final residual = 9.04123e-05, No Iterations 27
linear solve p 67
time step continuity errors : sum local = 6.46825e-08, global = 2.59127e-21, cumulative = -2.6682e-20
DICPBiCGStab:  Solving for p, Initial residual = 0.0133338, Final residual = 9.22995e-05, No Iterations 26
linear solve p 63
time step continuity errors : sum local = 7.78156e-08, global = -7.67774e-21, cumulative = -3.43597e-20
ExecutionTime = 3.01 s  ClockTime = 3 s

Time = 0.01

Courant Number mean: 0.0568724 max: 0.355711
nonePBiCGStab:  Solving for Ux, Initial residual = 0.00954894, Final residual = 4.97396e-05, No Iterations 5
nonePBiCGStab:  Solving for Uy, Initial residual = 0.0171206, Final residual = 6.94752e-05, No Iterations 5
nonePBiCGStab:  Solving for Uz, Initial residual = 0.033142, Final residual = 0.000330548, No Iterations 5
linear solve U 28
DICPBiCGStab:  Solving for p, Initial residual = 0.0134521, Final residual = 9.86847e-05, No Iterations 26
linear solve p 65
time step continuity errors : sum local = 8.82153e-08, global = -4.34846e-20, cumulative = -7.78443e-20
DICPBiCGStab:  Solving for p, Initial residual = 0.0114223, Final residual = 8.61092e-05, No Iterations 26
linear solve p 62
time step continuity errors : sum local = 7.77136e-08, global = 2.06477e-20, cumulative = -5.71966e-20
ExecutionTime = 3.2 s  ClockTime = 3 s

End

