/*---------------------------------------------------------------------------*\
  =========                 |
  \\      /  F ield         | OpenFOAM: The Open Source CFD Toolbox
   \\    /   O peration     | Website:  https://openfoam.org
    \\  /    A nd           | Version:  8
     \\/     M anipulation  |
\*---------------------------------------------------------------------------*/
Build  : 8-40a5a48f630f
Exec   : icoFoam
Date   : Jul 27 2021
Time   : 22:02:09
Host   : "uc2n481.localdomain"
PID    : 116983
I/O    : uncollated
Case   : /pfs/data5/home/kit/scc/nq7776/code/OBR/lidDrivenCavity3D/Variation_mesh/25/Variation_matrix_solver/CG_NoPrecond_CUDA/base
nProcs : 1
sigFpe : Enabling floating point exception trapping (FOAM_SIGFPE).
fileModificationChecking : Monitoring run-time modified files using timeStampMaster (fileModificationSkew 10)
allowSystemOperations : Allowing user-supplied system call operations

// * * * * * * * * * * * * * * * * * * * * * * * * * * * * * * * * * * * * * //
Create time

Create mesh for time = 0

Reading transportProperties

Reading field p

Reading field U

Reading/calculating face flux field phi


Starting time loop

Time = 0.001

Courant Number mean: 0 max: 0
nonePBiCGStab:  Solving for Ux, Initial residual = 1, Final residual = 0.00310183, No Iterations 5
nonePBiCGStab:  Solving for Uy, Initial residual = 0, Final residual = 0, No Iterations 0
nonePBiCGStab:  Solving for Uz, Initial residual = 0, Final residual = 0, No Iterations 0
linear solve U 2
[OGL LOG] init_host_sparsity_pattern : 4 ms
[OGL LOG] matrix not stored update host matrix
[OGL LOG] update_host_mtx : 2 ms
[OGL LOG] matrix is not yet sorted, compute sorting idxs
[OGL LOG] compute_sort : 107 ms
[OGL LOG] matrix is not yet sorted, sorting host matrix
[OGL LOG] sort_host_mtx_sparsity_pattern : 3 ms
[OGL LOG] sort_host_mtx : 1 ms
[OGL LOG] init_preconditioner : 0 ms
[OGL LOG] solve : 29 ms
nonecudaGKOCG:  Solving for p, Initial residual = 1, Final residual = 9.37899e-05, No Iterations 191
linear solve p 919
time step continuity errors : sum local = 4.79627e-08, global = -2.29485e-20, cumulative = -2.29485e-20
[OGL LOG] init_host_sparsity_pattern : 4 ms
[OGL LOG] matrix not stored update host matrix
[OGL LOG] update_host_mtx : 2 ms
[OGL LOG] matrix is not yet sorted, sorting host matrix
[OGL LOG] sort_host_mtx_sparsity_pattern : 2 ms
[OGL LOG] sort_host_mtx : 1 ms
[OGL LOG] init_preconditioner : 0 ms
[OGL LOG] solve : 28 ms
nonecudaGKOCG:  Solving for p, Initial residual = 0.480526, Final residual = 8.54608e-05, No Iterations 187
linear solve p 40
time step continuity errors : sum local = 7.06718e-08, global = -3.27243e-21, cumulative = -2.62209e-20
ExecutionTime = 1.04 s  ClockTime = 1 s

Time = 0.002

Courant Number mean: 0.01197 max: 0.106554
nonePBiCGStab:  Solving for Ux, Initial residual = 0.210695, Final residual = 0.000695049, No Iterations 5
nonePBiCGStab:  Solving for Uy, Initial residual = 0.284647, Final residual = 0.000644148, No Iterations 5
nonePBiCGStab:  Solving for Uz, Initial residual = 0.89022, Final residual = 0.00332684, No Iterations 5
linear solve U 5
[OGL LOG] init_host_sparsity_pattern : 4 ms
[OGL LOG] matrix not stored update host matrix
[OGL LOG] update_host_mtx : 2 ms
[OGL LOG] matrix is not yet sorted, sorting host matrix
[OGL LOG] sort_host_mtx_sparsity_pattern : 2 ms
[OGL LOG] sort_host_mtx : 1 ms
[OGL LOG] init_preconditioner : 0 ms
[OGL LOG] solve : 28 ms
nonecudaGKOCG:  Solving for p, Initial residual = 0.285782, Final residual = 9.62092e-05, No Iterations 183
linear solve p 40
time step continuity errors : sum local = 7.45798e-08, global = 2.35665e-20, cumulative = -2.65445e-21
[OGL LOG] init_host_sparsity_pattern : 4 ms
[OGL LOG] matrix not stored update host matrix
[OGL LOG] update_host_mtx : 2 ms
[OGL LOG] matrix is not yet sorted, sorting host matrix
[OGL LOG] sort_host_mtx_sparsity_pattern : 2 ms
[OGL LOG] sort_host_mtx : 1 ms
[OGL LOG] init_preconditioner : 0 ms
[OGL LOG] solve : 27 ms
nonecudaGKOCG:  Solving for p, Initial residual = 0.189101, Final residual = 9.79963e-05, No Iterations 179
linear solve p 39
time step continuity errors : sum local = 8.0603e-08, global = -2.98447e-21, cumulative = -5.63892e-21
ExecutionTime = 1.13 s  ClockTime = 1 s

Time = 0.003

Courant Number mean: 0.0188463 max: 0.153562
nonePBiCGStab:  Solving for Ux, Initial residual = 0.0901229, Final residual = 0.000292361, No Iterations 5
nonePBiCGStab:  Solving for Uy, Initial residual = 0.124564, Final residual = 0.000198161, No Iterations 5
nonePBiCGStab:  Solving for Uz, Initial residual = 0.251702, Final residual = 0.000636706, No Iterations 5
linear solve U 5
[OGL LOG] init_host_sparsity_pattern : 4 ms
[OGL LOG] matrix not stored update host matrix
[OGL LOG] update_host_mtx : 2 ms
[OGL LOG] matrix is not yet sorted, sorting host matrix
[OGL LOG] sort_host_mtx_sparsity_pattern : 2 ms
[OGL LOG] sort_host_mtx : 1 ms
[OGL LOG] init_preconditioner : 0 ms
[OGL LOG] solve : 27 ms
nonecudaGKOCG:  Solving for p, Initial residual = 0.101977, Final residual = 9.42035e-05, No Iterations 175
linear solve p 39
time step continuity errors : sum local = 7.28544e-08, global = 1.8397e-21, cumulative = -3.79921e-21
[OGL LOG] init_host_sparsity_pattern : 4 ms
[OGL LOG] matrix not stored update host matrix
[OGL LOG] update_host_mtx : 2 ms
[OGL LOG] matrix is not yet sorted, sorting host matrix
[OGL LOG] sort_host_mtx_sparsity_pattern : 2 ms
[OGL LOG] sort_host_mtx : 1 ms
[OGL LOG] init_preconditioner : 0 ms
[OGL LOG] solve : 28 ms
nonecudaGKOCG:  Solving for p, Initial residual = 0.069482, Final residual = 9.40227e-05, No Iterations 170
linear solve p 41
time step continuity errors : sum local = 7.48186e-08, global = -1.062e-20, cumulative = -1.44192e-20
ExecutionTime = 1.23 s  ClockTime = 1 s

Time = 0.004

Courant Number mean: 0.0233146 max: 0.175119
nonePBiCGStab:  Solving for Ux, Initial residual = 0.0520909, Final residual = 0.000102882, No Iterations 5
nonePBiCGStab:  Solving for Uy, Initial residual = 0.0743229, Final residual = 6.93e-05, No Iterations 5
nonePBiCGStab:  Solving for Uz, Initial residual = 0.129589, Final residual = 0.000219502, No Iterations 5
linear solve U 5
[OGL LOG] init_host_sparsity_pattern : 4 ms
[OGL LOG] matrix not stored update host matrix
[OGL LOG] update_host_mtx : 2 ms
[OGL LOG] matrix is not yet sorted, sorting host matrix
[OGL LOG] sort_host_mtx_sparsity_pattern : 3 ms
[OGL LOG] sort_host_mtx : 1 ms
[OGL LOG] init_preconditioner : 0 ms
[OGL LOG] solve : 26 ms
nonecudaGKOCG:  Solving for p, Initial residual = 0.0551884, Final residual = 9.21467e-05, No Iterations 170
linear solve p 38
time step continuity errors : sum local = 7.32385e-08, global = -6.50634e-21, cumulative = -2.09255e-20
[OGL LOG] init_host_sparsity_pattern : 4 ms
[OGL LOG] matrix not stored update host matrix
[OGL LOG] update_host_mtx : 2 ms
[OGL LOG] matrix is not yet sorted, sorting host matrix
[OGL LOG] sort_host_mtx_sparsity_pattern : 2 ms
[OGL LOG] sort_host_mtx : 1 ms
[OGL LOG] init_preconditioner : 0 ms
[OGL LOG] solve : 24 ms
nonecudaGKOCG:  Solving for p, Initial residual = 0.0370386, Final residual = 9.0843e-05, No Iterations 166
linear solve p 36
time step continuity errors : sum local = 7.36864e-08, global = 3.61499e-21, cumulative = -1.73105e-20
ExecutionTime = 1.31 s  ClockTime = 1 s

Time = 0.005

Courant Number mean: 0.026494 max: 0.186504
nonePBiCGStab:  Solving for Ux, Initial residual = 0.0351737, Final residual = 3.75571e-05, No Iterations 5
nonePBiCGStab:  Solving for Uy, Initial residual = 0.050774, Final residual = 2.20224e-05, No Iterations 5
nonePBiCGStab:  Solving for Uz, Initial residual = 0.0911227, Final residual = 0.000119549, No Iterations 5
linear solve U 5
[OGL LOG] init_host_sparsity_pattern : 4 ms
[OGL LOG] matrix not stored update host matrix
[OGL LOG] update_host_mtx : 2 ms
[OGL LOG] matrix is not yet sorted, sorting host matrix
[OGL LOG] sort_host_mtx_sparsity_pattern : 2 ms
[OGL LOG] sort_host_mtx : 1 ms
[OGL LOG] init_preconditioner : 0 ms
[OGL LOG] solve : 25 ms
nonecudaGKOCG:  Solving for p, Initial residual = 0.0348579, Final residual = 9.28918e-05, No Iterations 167
linear solve p 37
time step continuity errors : sum local = 7.57902e-08, global = -1.28085e-20, cumulative = -3.01191e-20
[OGL LOG] init_host_sparsity_pattern : 4 ms
[OGL LOG] matrix not stored update host matrix
[OGL LOG] update_host_mtx : 2 ms
[OGL LOG] matrix is not yet sorted, sorting host matrix
[OGL LOG] sort_host_mtx_sparsity_pattern : 2 ms
[OGL LOG] sort_host_mtx : 1 ms
[OGL LOG] init_preconditioner : 0 ms
[OGL LOG] solve : 25 ms
nonecudaGKOCG:  Solving for p, Initial residual = 0.0230736, Final residual = 9.01307e-05, No Iterations 164
linear solve p 37
time step continuity errors : sum local = 7.44466e-08, global = -7.33088e-21, cumulative = -3.74499e-20
ExecutionTime = 1.4 s  ClockTime = 2 s

Time = 0.006

Courant Number mean: 0.0288956 max: 0.193336
nonePBiCGStab:  Solving for Ux, Initial residual = 0.0259745, Final residual = 1.33446e-05, No Iterations 5
nonePBiCGStab:  Solving for Uy, Initial residual = 0.0379623, Final residual = 1.54528e-05, No Iterations 5
nonePBiCGStab:  Solving for Uz, Initial residual = 0.0705706, Final residual = 7.04365e-05, No Iterations 5
linear solve U 5
[OGL LOG] init_host_sparsity_pattern : 4 ms
[OGL LOG] matrix not stored update host matrix
[OGL LOG] update_host_mtx : 2 ms
[OGL LOG] matrix is not yet sorted, sorting host matrix
[OGL LOG] sort_host_mtx_sparsity_pattern : 2 ms
[OGL LOG] sort_host_mtx : 1 ms
[OGL LOG] init_preconditioner : 0 ms
[OGL LOG] solve : 25 ms
nonecudaGKOCG:  Solving for p, Initial residual = 0.0243393, Final residual = 8.69596e-05, No Iterations 166
linear solve p 37
time step continuity errors : sum local = 7.22096e-08, global = -7.53982e-22, cumulative = -3.82039e-20
[OGL LOG] init_host_sparsity_pattern : 4 ms
[OGL LOG] matrix not stored update host matrix
[OGL LOG] update_host_mtx : 2 ms
[OGL LOG] matrix is not yet sorted, sorting host matrix
[OGL LOG] sort_host_mtx_sparsity_pattern : 2 ms
[OGL LOG] sort_host_mtx : 1 ms
[OGL LOG] init_preconditioner : 0 ms
[OGL LOG] solve : 24 ms
nonecudaGKOCG:  Solving for p, Initial residual = 0.0162727, Final residual = 8.61952e-05, No Iterations 162
linear solve p 36
time step continuity errors : sum local = 7.21453e-08, global = 2.83413e-21, cumulative = -3.53698e-20
ExecutionTime = 1.49 s  ClockTime = 2 s

Time = 0.007

Courant Number mean: 0.0308312 max: 0.197891
nonePBiCGStab:  Solving for Ux, Initial residual = 0.0203866, Final residual = 6.63096e-06, No Iterations 5
nonePBiCGStab:  Solving for Uy, Initial residual = 0.0299963, Final residual = 9.38949e-06, No Iterations 5
nonePBiCGStab:  Solving for Uz, Initial residual = 0.0572779, Final residual = 4.11178e-05, No Iterations 5
linear solve U 5
[OGL LOG] init_host_sparsity_pattern : 4 ms
[OGL LOG] matrix not stored update host matrix
[OGL LOG] update_host_mtx : 2 ms
[OGL LOG] matrix is not yet sorted, sorting host matrix
[OGL LOG] sort_host_mtx_sparsity_pattern : 2 ms
[OGL LOG] sort_host_mtx : 1 ms
[OGL LOG] init_preconditioner : 0 ms
[OGL LOG] solve : 12 ms
nonecudaGKOCG:  Solving for p, Initial residual = 0.0185583, Final residual = 9.92146e-05, No Iterations 78
linear solve p 24
time step continuity errors : sum local = 1.05544e-07, global = 1.80358e-20, cumulative = -1.7334e-20
[OGL LOG] init_host_sparsity_pattern : 4 ms
[OGL LOG] matrix not stored update host matrix
[OGL LOG] update_host_mtx : 4 ms
[OGL LOG] matrix is not yet sorted, sorting host matrix
[OGL LOG] sort_host_mtx_sparsity_pattern : 2 ms
[OGL LOG] sort_host_mtx : 1 ms
[OGL LOG] init_preconditioner : 0 ms
[OGL LOG] solve : 11 ms
nonecudaGKOCG:  Solving for p, Initial residual = 0.0125558, Final residual = 8.83305e-05, No Iterations 71
linear solve p 26
time step continuity errors : sum local = 8.40656e-08, global = -6.90592e-21, cumulative = -2.42399e-20
ExecutionTime = 1.55 s  ClockTime = 2 s

Time = 0.008

Courant Number mean: 0.0324768 max: 0.201172
nonePBiCGStab:  Solving for Ux, Initial residual = 0.0165464, Final residual = 5.02199e-06, No Iterations 5
nonePBiCGStab:  Solving for Uy, Initial residual = 0.024589, Final residual = 6.33903e-06, No Iterations 5
nonePBiCGStab:  Solving for Uz, Initial residual = 0.0478318, Final residual = 3.28451e-05, No Iterations 5
linear solve U 5
[OGL LOG] init_host_sparsity_pattern : 4 ms
[OGL LOG] matrix not stored update host matrix
[OGL LOG] update_host_mtx : 2 ms
[OGL LOG] matrix is not yet sorted, sorting host matrix
[OGL LOG] sort_host_mtx_sparsity_pattern : 2 ms
[OGL LOG] sort_host_mtx : 1 ms
[OGL LOG] init_preconditioner : 0 ms
[OGL LOG] solve : 11 ms
nonecudaGKOCG:  Solving for p, Initial residual = 0.0149058, Final residual = 9.7588e-05, No Iterations 74
linear solve p 23
time step continuity errors : sum local = 1.05943e-07, global = 3.17472e-20, cumulative = 7.50726e-21
[OGL LOG] init_host_sparsity_pattern : 4 ms
[OGL LOG] matrix not stored update host matrix
[OGL LOG] update_host_mtx : 2 ms
[OGL LOG] matrix is not yet sorted, sorting host matrix
[OGL LOG] sort_host_mtx_sparsity_pattern : 2 ms
[OGL LOG] sort_host_mtx : 1 ms
[OGL LOG] init_preconditioner : 0 ms
[OGL LOG] solve : 10 ms
nonecudaGKOCG:  Solving for p, Initial residual = 0.0101493, Final residual = 9.4431e-05, No Iterations 69
linear solve p 22
time step continuity errors : sum local = 9.49232e-08, global = 2.62371e-20, cumulative = 3.37444e-20
ExecutionTime = 1.61 s  ClockTime = 2 s

Time = 0.009

Courant Number mean: 0.033881 max: 0.203668
nonePBiCGStab:  Solving for Ux, Initial residual = 0.0138064, Final residual = 3.22671e-06, No Iterations 5
nonePBiCGStab:  Solving for Uy, Initial residual = 0.0206663, Final residual = 4.1684e-06, No Iterations 5
nonePBiCGStab:  Solving for Uz, Initial residual = 0.0407253, Final residual = 2.11706e-05, No Iterations 5
linear solve U 5
[OGL LOG] init_host_sparsity_pattern : 4 ms
[OGL LOG] matrix not stored update host matrix
[OGL LOG] update_host_mtx : 2 ms
[OGL LOG] matrix is not yet sorted, sorting host matrix
[OGL LOG] sort_host_mtx_sparsity_pattern : 2 ms
[OGL LOG] sort_host_mtx : 1 ms
[OGL LOG] init_preconditioner : 0 ms
[OGL LOG] solve : 11 ms
nonecudaGKOCG:  Solving for p, Initial residual = 0.0123407, Final residual = 9.94908e-05, No Iterations 73
linear solve p 23
time step continuity errors : sum local = 1.10809e-07, global = 4.73644e-21, cumulative = 3.84808e-20
[OGL LOG] init_host_sparsity_pattern : 4 ms
[OGL LOG] matrix not stored update host matrix
[OGL LOG] update_host_mtx : 2 ms
[OGL LOG] matrix is not yet sorted, sorting host matrix
[OGL LOG] sort_host_mtx_sparsity_pattern : 2 ms
[OGL LOG] sort_host_mtx : 1 ms
[OGL LOG] init_preconditioner : 0 ms
[OGL LOG] solve : 10 ms
nonecudaGKOCG:  Solving for p, Initial residual = 0.00845519, Final residual = 9.53463e-05, No Iterations 68
linear solve p 22
time step continuity errors : sum local = 1.00321e-07, global = 1.80992e-20, cumulative = 5.65801e-20
ExecutionTime = 1.66 s  ClockTime = 2 s

Time = 0.01

Courant Number mean: 0.0350922 max: 0.205643
nonePBiCGStab:  Solving for Ux, Initial residual = 0.011739, Final residual = 2.26057e-06, No Iterations 5
nonePBiCGStab:  Solving for Uy, Initial residual = 0.0176903, Final residual = 3.07974e-06, No Iterations 5
nonePBiCGStab:  Solving for Uz, Initial residual = 0.0352163, Final residual = 1.63276e-05, No Iterations 5
linear solve U 5
[OGL LOG] init_host_sparsity_pattern : 4 ms
[OGL LOG] matrix not stored update host matrix
[OGL LOG] update_host_mtx : 2 ms
[OGL LOG] matrix is not yet sorted, sorting host matrix
[OGL LOG] sort_host_mtx_sparsity_pattern : 2 ms
[OGL LOG] sort_host_mtx : 1 ms
[OGL LOG] init_preconditioner : 0 ms
[OGL LOG] solve : 11 ms
nonecudaGKOCG:  Solving for p, Initial residual = 0.0104186, Final residual = 9.99581e-05, No Iterations 72
linear solve p 23
time step continuity errors : sum local = 1.13746e-07, global = 2.14694e-20, cumulative = 7.80494e-20
[OGL LOG] init_host_sparsity_pattern : 4 ms
[OGL LOG] matrix not stored update host matrix
[OGL LOG] update_host_mtx : 2 ms
[OGL LOG] matrix is not yet sorted, sorting host matrix
[OGL LOG] sort_host_mtx_sparsity_pattern : 2 ms
[OGL LOG] sort_host_mtx : 1 ms
[OGL LOG] init_preconditioner : 0 ms
[OGL LOG] solve : 10 ms
nonecudaGKOCG:  Solving for p, Initial residual = 0.00717633, Final residual = 9.95593e-05, No Iterations 67
linear solve p 22
time step continuity errors : sum local = 1.07654e-07, global = 2.96504e-20, cumulative = 1.077e-19
ExecutionTime = 1.72 s  ClockTime = 2 s

End

