/*---------------------------------------------------------------------------*\
  =========                 |
  \\      /  F ield         | OpenFOAM: The Open Source CFD Toolbox
   \\    /   O peration     | Website:  https://openfoam.org
    \\  /    A nd           | Version:  8
     \\/     M anipulation  |
\*---------------------------------------------------------------------------*/
Build  : 8-40a5a48f630f
Exec   : icoFoam
Date   : Jul 28 2021
Time   : 02:13:49
Host   : "uc2n462.localdomain"
PID    : 3689143
I/O    : uncollated
Case   : /pfs/data5/home/kit/scc/nq7776/code/OBR/lidDrivenCavity3D/Variation_mesh/65/Variation_matrix_solver/BiCGStab_NoPrecond_OMP/base
nProcs : 1
sigFpe : Enabling floating point exception trapping (FOAM_SIGFPE).
fileModificationChecking : Monitoring run-time modified files using timeStampMaster (fileModificationSkew 10)
allowSystemOperations : Allowing user-supplied system call operations

// * * * * * * * * * * * * * * * * * * * * * * * * * * * * * * * * * * * * * //
Create time

Create mesh for time = 0

Reading transportProperties

Reading field p

Reading field U

Reading/calculating face flux field phi


Starting time loop

Time = 0.001

Courant Number mean: 0 max: 0
nonePBiCGStab:  Solving for Ux, Initial residual = 1, Final residual = 0.053017, No Iterations 5
nonePBiCGStab:  Solving for Uy, Initial residual = 0, Final residual = 0, No Iterations 0
nonePBiCGStab:  Solving for Uz, Initial residual = 0, Final residual = 0, No Iterations 0
linear solve U 71
[OGL LOG] init_host_sparsity_pattern : 79 ms
[OGL LOG] matrix not stored update host matrix
[OGL LOG] update_host_mtx : 41 ms
[OGL LOG] matrix is not yet sorted, compute sorting idxs
[OGL LOG] compute_sort : 2410 ms
[OGL LOG] matrix is not yet sorted, sorting host matrix
[OGL LOG] sort_host_mtx_sparsity_pattern : 57 ms
[OGL LOG] sort_host_mtx : 46 ms
[OGL LOG] init_preconditioner : 0 ms
[OGL LOG] solve : 2136 ms
noneompGKOBiCGStab:  Solving for p, Initial residual = 1, Final residual = 9.23015e-05, No Iterations 415
linear solve p 4868
time step continuity errors : sum local = 1.54945e-07, global = -1.26331e-21, cumulative = -1.26331e-21
[OGL LOG] init_host_sparsity_pattern : 75 ms
[OGL LOG] matrix not stored update host matrix
[OGL LOG] update_host_mtx : 40 ms
[OGL LOG] matrix is not yet sorted, sorting host matrix
[OGL LOG] sort_host_mtx_sparsity_pattern : 56 ms
[OGL LOG] sort_host_mtx : 27 ms
[OGL LOG] init_preconditioner : 0 ms
[OGL LOG] solve : 2129 ms
noneompGKOBiCGStab:  Solving for p, Initial residual = 0.674596, Final residual = 9.84261e-05, No Iterations 404
linear solve p 2373
time step continuity errors : sum local = 2.7713e-05, global = -8.41696e-21, cumulative = -9.68027e-21
ExecutionTime = 89.78 s  ClockTime = 9 s

Time = 0.002

Courant Number mean: 0.0326993 max: 0.468251
nonePBiCGStab:  Solving for Ux, Initial residual = 0.152246, Final residual = 0.0218327, No Iterations 5
nonePBiCGStab:  Solving for Uy, Initial residual = 0.364513, Final residual = 0.0502566, No Iterations 5
nonePBiCGStab:  Solving for Uz, Initial residual = 0.873615, Final residual = 0.165, No Iterations 5
linear solve U 144
[OGL LOG] init_host_sparsity_pattern : 73 ms
[OGL LOG] matrix not stored update host matrix
[OGL LOG] update_host_mtx : 38 ms
[OGL LOG] matrix is not yet sorted, sorting host matrix
[OGL LOG] sort_host_mtx_sparsity_pattern : 58 ms
[OGL LOG] sort_host_mtx : 27 ms
[OGL LOG] init_preconditioner : 0 ms
[OGL LOG] solve : 2039 ms
noneompGKOBiCGStab:  Solving for p, Initial residual = 0.659429, Final residual = 9.81737e-05, No Iterations 391
linear solve p 2286
time step continuity errors : sum local = 1.05046e-06, global = -7.1398e-21, cumulative = -1.68201e-20
[OGL LOG] init_host_sparsity_pattern : 80 ms
[OGL LOG] matrix not stored update host matrix
[OGL LOG] update_host_mtx : 47 ms
[OGL LOG] matrix is not yet sorted, sorting host matrix
[OGL LOG] sort_host_mtx_sparsity_pattern : 63 ms
[OGL LOG] sort_host_mtx : 27 ms
[OGL LOG] init_preconditioner : 0 ms
[OGL LOG] solve : 1920 ms
noneompGKOBiCGStab:  Solving for p, Initial residual = 0.573711, Final residual = 9.90832e-05, No Iterations 392
linear solve p 2186
time step continuity errors : sum local = 2.01021e-06, global = -2.47341e-20, cumulative = -4.15542e-20
ExecutionTime = 169.84 s  ClockTime = 14 s

Time = 0.003

Courant Number mean: 0.0501162 max: 0.556377
nonePBiCGStab:  Solving for Ux, Initial residual = 0.0552693, Final residual = 0.00626495, No Iterations 5
nonePBiCGStab:  Solving for Uy, Initial residual = 0.13003, Final residual = 0.0194752, No Iterations 5
nonePBiCGStab:  Solving for Uz, Initial residual = 0.438658, Final residual = 0.0883759, No Iterations 5
linear solve U 138
[OGL LOG] init_host_sparsity_pattern : 73 ms
[OGL LOG] matrix not stored update host matrix
[OGL LOG] update_host_mtx : 38 ms
[OGL LOG] matrix is not yet sorted, sorting host matrix
[OGL LOG] sort_host_mtx_sparsity_pattern : 56 ms
[OGL LOG] sort_host_mtx : 28 ms
[OGL LOG] init_preconditioner : 0 ms
[OGL LOG] solve : 1705 ms
noneompGKOBiCGStab:  Solving for p, Initial residual = 0.561729, Final residual = 8.74338e-05, No Iterations 340
linear solve p 1939
time step continuity errors : sum local = 2.62281e-06, global = 1.02021e-20, cumulative = -3.13521e-20
[OGL LOG] init_host_sparsity_pattern : 74 ms
[OGL LOG] matrix not stored update host matrix
[OGL LOG] update_host_mtx : 41 ms
[OGL LOG] matrix is not yet sorted, sorting host matrix
[OGL LOG] sort_host_mtx_sparsity_pattern : 56 ms
[OGL LOG] sort_host_mtx : 28 ms
[OGL LOG] init_preconditioner : 0 ms
[OGL LOG] solve : 1694 ms
noneompGKOBiCGStab:  Solving for p, Initial residual = 0.496171, Final residual = 9.91453e-05, No Iterations 326
linear solve p 1932
time step continuity errors : sum local = 5.55989e-06, global = 1.00525e-20, cumulative = -2.12996e-20
ExecutionTime = 238.75 s  ClockTime = 18 s

Time = 0.004

Courant Number mean: 0.0601702 max: 0.574888
nonePBiCGStab:  Solving for Ux, Initial residual = 0.033849, Final residual = 0.00409299, No Iterations 5
nonePBiCGStab:  Solving for Uy, Initial residual = 0.0822648, Final residual = 0.00947378, No Iterations 5
nonePBiCGStab:  Solving for Uz, Initial residual = 0.285008, Final residual = 0.050298, No Iterations 5
linear solve U 136
[OGL LOG] init_host_sparsity_pattern : 73 ms
[OGL LOG] matrix not stored update host matrix
[OGL LOG] update_host_mtx : 41 ms
[OGL LOG] matrix is not yet sorted, sorting host matrix
[OGL LOG] sort_host_mtx_sparsity_pattern : 59 ms
[OGL LOG] sort_host_mtx : 30 ms
[OGL LOG] init_preconditioner : 0 ms
[OGL LOG] solve : 1768 ms
noneompGKOBiCGStab:  Solving for p, Initial residual = 0.383826, Final residual = 9.43759e-05, No Iterations 378
linear solve p 2014
time step continuity errors : sum local = 1.45234e-07, global = -3.31411e-21, cumulative = -2.46137e-20
[OGL LOG] init_host_sparsity_pattern : 75 ms
[OGL LOG] matrix not stored update host matrix
[OGL LOG] update_host_mtx : 39 ms
[OGL LOG] matrix is not yet sorted, sorting host matrix
[OGL LOG] sort_host_mtx_sparsity_pattern : 58 ms
[OGL LOG] sort_host_mtx : 27 ms
[OGL LOG] init_preconditioner : 0 ms
[OGL LOG] solve : 1702 ms
noneompGKOBiCGStab:  Solving for p, Initial residual = 0.316004, Final residual = 9.33204e-05, No Iterations 347
linear solve p 1947
time step continuity errors : sum local = 2.42854e-07, global = -8.20671e-21, cumulative = -3.28204e-20
ExecutionTime = 309.12 s  ClockTime = 22 s

Time = 0.005

Courant Number mean: 0.0681115 max: 0.585573
nonePBiCGStab:  Solving for Ux, Initial residual = 0.0237521, Final residual = 0.00207633, No Iterations 5
nonePBiCGStab:  Solving for Uy, Initial residual = 0.0547184, Final residual = 0.00502721, No Iterations 5
nonePBiCGStab:  Solving for Uz, Initial residual = 0.171966, Final residual = 0.0340778, No Iterations 5
linear solve U 141
[OGL LOG] init_host_sparsity_pattern : 74 ms
[OGL LOG] matrix not stored update host matrix
[OGL LOG] update_host_mtx : 41 ms
[OGL LOG] matrix is not yet sorted, sorting host matrix
[OGL LOG] sort_host_mtx_sparsity_pattern : 59 ms
[OGL LOG] sort_host_mtx : 28 ms
[OGL LOG] init_preconditioner : 0 ms
[OGL LOG] solve : 1540 ms
noneompGKOBiCGStab:  Solving for p, Initial residual = 0.305688, Final residual = 9.11924e-05, No Iterations 308
linear solve p 1779
time step continuity errors : sum local = 1.54321e-06, global = 6.42458e-22, cumulative = -3.21779e-20
[OGL LOG] init_host_sparsity_pattern : 76 ms
[OGL LOG] matrix not stored update host matrix
[OGL LOG] update_host_mtx : 40 ms
[OGL LOG] matrix is not yet sorted, sorting host matrix
[OGL LOG] sort_host_mtx_sparsity_pattern : 57 ms
[OGL LOG] sort_host_mtx : 27 ms
[OGL LOG] init_preconditioner : 0 ms
[OGL LOG] solve : 1619 ms
noneompGKOBiCGStab:  Solving for p, Initial residual = 0.258582, Final residual = 9.97268e-05, No Iterations 320
linear solve p 1861
time step continuity errors : sum local = 3.92298e-07, global = 3.47074e-21, cumulative = -2.87072e-20
ExecutionTime = 373.28 s  ClockTime = 26 s

Time = 0.006

Courant Number mean: 0.0743755 max: 0.592107
nonePBiCGStab:  Solving for Ux, Initial residual = 0.0182333, Final residual = 0.00161632, No Iterations 5
nonePBiCGStab:  Solving for Uy, Initial residual = 0.0404606, Final residual = 0.00306627, No Iterations 5
nonePBiCGStab:  Solving for Uz, Initial residual = 0.141028, Final residual = 0.027932, No Iterations 5
linear solve U 138
[OGL LOG] init_host_sparsity_pattern : 73 ms
[OGL LOG] matrix not stored update host matrix
[OGL LOG] update_host_mtx : 41 ms
[OGL LOG] matrix is not yet sorted, sorting host matrix
[OGL LOG] sort_host_mtx_sparsity_pattern : 59 ms
[OGL LOG] sort_host_mtx : 27 ms
[OGL LOG] init_preconditioner : 0 ms
[OGL LOG] solve : 1798 ms
noneompGKOBiCGStab:  Solving for p, Initial residual = 0.225663, Final residual = 7.0544e-05, No Iterations 369
linear solve p 2036
time step continuity errors : sum local = 2.11615e-07, global = -6.23295e-21, cumulative = -3.49401e-20
[OGL LOG] init_host_sparsity_pattern : 76 ms
[OGL LOG] matrix not stored update host matrix
[OGL LOG] update_host_mtx : 39 ms
[OGL LOG] matrix is not yet sorted, sorting host matrix
[OGL LOG] sort_host_mtx_sparsity_pattern : 56 ms
[OGL LOG] sort_host_mtx : 27 ms
[OGL LOG] init_preconditioner : 0 ms
[OGL LOG] solve : 1792 ms
noneompGKOBiCGStab:  Solving for p, Initial residual = 0.186942, Final residual = 9.95692e-05, No Iterations 354
linear solve p 2031
time step continuity errors : sum local = 6.44184e-08, global = 1.10874e-21, cumulative = -3.38314e-20
ExecutionTime = 445.98 s  ClockTime = 31 s

Time = 0.007

Courant Number mean: 0.0795697 max: 0.596591
nonePBiCGStab:  Solving for Ux, Initial residual = 0.0142571, Final residual = 0.000861148, No Iterations 5
nonePBiCGStab:  Solving for Uy, Initial residual = 0.0325013, Final residual = 0.00167235, No Iterations 5
nonePBiCGStab:  Solving for Uz, Initial residual = 0.104897, Final residual = 0.0154313, No Iterations 5
linear solve U 140
[OGL LOG] init_host_sparsity_pattern : 73 ms
[OGL LOG] matrix not stored update host matrix
[OGL LOG] update_host_mtx : 41 ms
[OGL LOG] matrix is not yet sorted, sorting host matrix
[OGL LOG] sort_host_mtx_sparsity_pattern : 56 ms
[OGL LOG] sort_host_mtx : 27 ms
[OGL LOG] init_preconditioner : 0 ms
[OGL LOG] solve : 1536 ms
noneompGKOBiCGStab:  Solving for p, Initial residual = 0.171524, Final residual = 9.22078e-05, No Iterations 297
linear solve p 1771
time step continuity errors : sum local = 9.18515e-07, global = 1.00656e-20, cumulative = -2.37658e-20
[OGL LOG] init_host_sparsity_pattern : 75 ms
[OGL LOG] matrix not stored update host matrix
[OGL LOG] update_host_mtx : 40 ms
[OGL LOG] matrix is not yet sorted, sorting host matrix
[OGL LOG] sort_host_mtx_sparsity_pattern : 58 ms
[OGL LOG] sort_host_mtx : 27 ms
[OGL LOG] init_preconditioner : 0 ms
[OGL LOG] solve : 766 ms
noneompGKOBiCGStab:  Solving for p, Initial residual = 0.142998, Final residual = 9.66052e-05, No Iterations 151
linear solve p 1008
time step continuity errors : sum local = 8.51422e-08, global = -4.85484e-21, cumulative = -2.86206e-20
ExecutionTime = 493.05 s  ClockTime = 34 s

Time = 0.008

Courant Number mean: 0.0839405 max: 0.600024
nonePBiCGStab:  Solving for Ux, Initial residual = 0.0117783, Final residual = 0.000902334, No Iterations 5
nonePBiCGStab:  Solving for Uy, Initial residual = 0.0258305, Final residual = 0.00162689, No Iterations 5
nonePBiCGStab:  Solving for Uz, Initial residual = 0.0885794, Final residual = 0.0180026, No Iterations 5
linear solve U 136
[OGL LOG] init_host_sparsity_pattern : 73 ms
[OGL LOG] matrix not stored update host matrix
[OGL LOG] update_host_mtx : 40 ms
[OGL LOG] matrix is not yet sorted, sorting host matrix
[OGL LOG] sort_host_mtx_sparsity_pattern : 58 ms
[OGL LOG] sort_host_mtx : 29 ms
[OGL LOG] init_preconditioner : 0 ms
[OGL LOG] solve : 1508 ms
noneompGKOBiCGStab:  Solving for p, Initial residual = 0.138554, Final residual = 9.53628e-05, No Iterations 300
linear solve p 1742
time step continuity errors : sum local = 4.91661e-06, global = -7.42623e-21, cumulative = -3.60468e-20
[OGL LOG] init_host_sparsity_pattern : 72 ms
[OGL LOG] matrix not stored update host matrix
[OGL LOG] update_host_mtx : 38 ms
[OGL LOG] matrix is not yet sorted, sorting host matrix
[OGL LOG] sort_host_mtx_sparsity_pattern : 56 ms
[OGL LOG] sort_host_mtx : 27 ms
[OGL LOG] init_preconditioner : 0 ms
[OGL LOG] solve : 1530 ms
noneompGKOBiCGStab:  Solving for p, Initial residual = 0.123834, Final residual = 9.95753e-05, No Iterations 304
linear solve p 1759
time step continuity errors : sum local = 6.09085e-07, global = 7.03542e-21, cumulative = -2.90114e-20
ExecutionTime = 554.76 s  ClockTime = 38 s

Time = 0.009

Courant Number mean: 0.0876896 max: 0.602575
nonePBiCGStab:  Solving for Ux, Initial residual = 0.00976039, Final residual = 0.000746124, No Iterations 5
nonePBiCGStab:  Solving for Uy, Initial residual = 0.0230836, Final residual = 0.00172357, No Iterations 5
nonePBiCGStab:  Solving for Uz, Initial residual = 0.0980109, Final residual = 0.0236256, No Iterations 5
linear solve U 138
[OGL LOG] init_host_sparsity_pattern : 74 ms
[OGL LOG] matrix not stored update host matrix
[OGL LOG] update_host_mtx : 41 ms
[OGL LOG] matrix is not yet sorted, sorting host matrix
[OGL LOG] sort_host_mtx_sparsity_pattern : 56 ms
[OGL LOG] sort_host_mtx : 28 ms
[OGL LOG] init_preconditioner : 0 ms
[OGL LOG] solve : 1573 ms
noneompGKOBiCGStab:  Solving for p, Initial residual = 0.132852, Final residual = 8.84905e-05, No Iterations 312
linear solve p 1806
time step continuity errors : sum local = 1.63994e-06, global = -1.21795e-20, cumulative = -4.11909e-20
[OGL LOG] init_host_sparsity_pattern : 72 ms
[OGL LOG] matrix not stored update host matrix
[OGL LOG] update_host_mtx : 40 ms
[OGL LOG] matrix is not yet sorted, sorting host matrix
[OGL LOG] sort_host_mtx_sparsity_pattern : 56 ms
[OGL LOG] sort_host_mtx : 27 ms
[OGL LOG] init_preconditioner : 0 ms
[OGL LOG] solve : 1778 ms
noneompGKOBiCGStab:  Solving for p, Initial residual = 0.113416, Final residual = 6.14742e-05, No Iterations 353
linear solve p 2010
time step continuity errors : sum local = 3.13241e-08, global = 2.51669e-21, cumulative = -3.86742e-20
ExecutionTime = 622.72 s  ClockTime = 42 s

Time = 0.01

Courant Number mean: 0.0909201 max: 0.604659
nonePBiCGStab:  Solving for Ux, Initial residual = 0.00860105, Final residual = 0.000568018, No Iterations 5
nonePBiCGStab:  Solving for Uy, Initial residual = 0.0190067, Final residual = 0.00115301, No Iterations 5
nonePBiCGStab:  Solving for Uz, Initial residual = 0.0719054, Final residual = 0.0141954, No Iterations 5
linear solve U 135
[OGL LOG] init_host_sparsity_pattern : 73 ms
[OGL LOG] matrix not stored update host matrix
[OGL LOG] update_host_mtx : 40 ms
[OGL LOG] matrix is not yet sorted, sorting host matrix
[OGL LOG] sort_host_mtx_sparsity_pattern : 56 ms
[OGL LOG] sort_host_mtx : 27 ms
[OGL LOG] init_preconditioner : 0 ms
[OGL LOG] solve : 1498 ms
noneompGKOBiCGStab:  Solving for p, Initial residual = 0.115257, Final residual = 9.77519e-05, No Iterations 314
linear solve p 1732
time step continuity errors : sum local = 1.77596e-07, global = 2.86699e-20, cumulative = -1.00044e-20
[OGL LOG] init_host_sparsity_pattern : 76 ms
[OGL LOG] matrix not stored update host matrix
[OGL LOG] update_host_mtx : 39 ms
[OGL LOG] matrix is not yet sorted, sorting host matrix
[OGL LOG] sort_host_mtx_sparsity_pattern : 56 ms
[OGL LOG] sort_host_mtx : 28 ms
[OGL LOG] init_preconditioner : 0 ms
[OGL LOG] solve : 1420 ms
noneompGKOBiCGStab:  Solving for p, Initial residual = 0.0955225, Final residual = 7.99113e-05, No Iterations 281
linear solve p 1659
time step continuity errors : sum local = 4.79949e-06, global = 7.51069e-21, cumulative = -2.49367e-21
ExecutionTime = 682.05 s  ClockTime = 46 s

End

