/*---------------------------------------------------------------------------*\
  =========                 |
  \\      /  F ield         | OpenFOAM: The Open Source CFD Toolbox
   \\    /   O peration     | Website:  https://openfoam.org
    \\  /    A nd           | Version:  8
     \\/     M anipulation  |
\*---------------------------------------------------------------------------*/
Build  : 8-40a5a48f630f
Exec   : icoFoam
Date   : Jul 28 2021
Time   : 02:13:53
Host   : "uc2n476.localdomain"
PID    : 1916955
I/O    : uncollated
Case   : /pfs/data5/home/kit/scc/nq7776/code/OBR/lidDrivenCavity3D/Variation_mesh/75/Variation_matrix_solver/BiCGStab_NoPrecond_Serial/base
nProcs : 1
sigFpe : Enabling floating point exception trapping (FOAM_SIGFPE).
fileModificationChecking : Monitoring run-time modified files using timeStampMaster (fileModificationSkew 10)
allowSystemOperations : Allowing user-supplied system call operations

// * * * * * * * * * * * * * * * * * * * * * * * * * * * * * * * * * * * * * //
Create time

Create mesh for time = 0

Reading transportProperties

Reading field p

Reading field U

Reading/calculating face flux field phi


Starting time loop

Time = 0.001

Courant Number mean: 0 max: 0
nonePBiCGStab:  Solving for Ux, Initial residual = 1, Final residual = 0.0634334, No Iterations 5
nonePBiCGStab:  Solving for Uy, Initial residual = 0, Final residual = 0, No Iterations 0
nonePBiCGStab:  Solving for Uz, Initial residual = 0, Final residual = 0, No Iterations 0
linear solve U 107
nonePBiCGStab:  Solving for p, Initial residual = 1, Final residual = 7.88166e-05, No Iterations 490
linear solve p 5461
time step continuity errors : sum local = 6.89691e-08, global = -9.08617e-21, cumulative = -9.08617e-21
nonePBiCGStab:  Solving for p, Initial residual = 0.687677, Final residual = 8.56469e-05, No Iterations 462
linear solve p 5137
time step continuity errors : sum local = 1.08269e-07, global = -6.97251e-21, cumulative = -1.60587e-20
ExecutionTime = 12.43 s  ClockTime = 12 s

Time = 0.002

Courant Number mean: 0.0360768 max: 0.561117
nonePBiCGStab:  Solving for Ux, Initial residual = 0.146416, Final residual = 0.0273032, No Iterations 5
nonePBiCGStab:  Solving for Uy, Initial residual = 0.391148, Final residual = 0.0672256, No Iterations 5
nonePBiCGStab:  Solving for Uz, Initial residual = 0.977127, Final residual = 0.204938, No Iterations 5
linear solve U 224
nonePBiCGStab:  Solving for p, Initial residual = 0.709181, Final residual = 9.34161e-05, No Iterations 447
linear solve p 4968
time step continuity errors : sum local = 1.64144e-07, global = 9.37666e-21, cumulative = -6.68202e-21
nonePBiCGStab:  Solving for p, Initial residual = 0.630054, Final residual = 9.84716e-05, No Iterations 197
linear solve p 2180
time step continuity errors : sum local = 9.92517e-08, global = -8.20831e-21, cumulative = -1.48903e-20
ExecutionTime = 20.01 s  ClockTime = 20 s

Time = 0.003

Courant Number mean: 0.0560426 max: 0.65504
nonePBiCGStab:  Solving for Ux, Initial residual = 0.0564787, Final residual = 0.0088389, No Iterations 5
nonePBiCGStab:  Solving for Uy, Initial residual = 0.146751, Final residual = 0.0302299, No Iterations 5
nonePBiCGStab:  Solving for Uz, Initial residual = 0.517713, Final residual = 0.104551, No Iterations 5
linear solve U 239
nonePBiCGStab:  Solving for p, Initial residual = 0.66102, Final residual = 9.90807e-05, No Iterations 383
linear solve p 4262
time step continuity errors : sum local = 1.21871e-07, global = -3.06442e-21, cumulative = -1.79547e-20
nonePBiCGStab:  Solving for p, Initial residual = 0.593219, Final residual = 9.57509e-05, No Iterations 192
linear solve p 2140
time step continuity errors : sum local = 5.94022e-08, global = -1.50871e-20, cumulative = -3.30418e-20
ExecutionTime = 26.87 s  ClockTime = 27 s

Time = 0.004

Courant Number mean: 0.067163 max: 0.672129
nonePBiCGStab:  Solving for Ux, Initial residual = 0.0342238, Final residual = 0.00483414, No Iterations 5
nonePBiCGStab:  Solving for Uy, Initial residual = 0.0978379, Final residual = 0.0161484, No Iterations 5
nonePBiCGStab:  Solving for Uz, Initial residual = 0.32432, Final residual = 0.0577262, No Iterations 5
linear solve U 222
nonePBiCGStab:  Solving for p, Initial residual = 0.498346, Final residual = 9.22056e-05, No Iterations 425
linear solve p 4735
time step continuity errors : sum local = 9.03348e-08, global = 5.8295e-21, cumulative = -2.72123e-20
nonePBiCGStab:  Solving for p, Initial residual = 0.421377, Final residual = 9.95076e-05, No Iterations 392
linear solve p 4354
time step continuity errors : sum local = 6.71273e-08, global = -2.43676e-21, cumulative = -2.96491e-20
ExecutionTime = 36.39 s  ClockTime = 37 s

Time = 0.005

Courant Number mean: 0.0763786 max: 0.683533
nonePBiCGStab:  Solving for Ux, Initial residual = 0.024666, Final residual = 0.00310281, No Iterations 5
nonePBiCGStab:  Solving for Uy, Initial residual = 0.0630617, Final residual = 0.0102381, No Iterations 5
nonePBiCGStab:  Solving for Uz, Initial residual = 0.195446, Final residual = 0.0429224, No Iterations 5
linear solve U 234
nonePBiCGStab:  Solving for p, Initial residual = 0.475409, Final residual = 8.81677e-05, No Iterations 388
linear solve p 4430
time step continuity errors : sum local = 5.49906e-08, global = -6.03487e-21, cumulative = -3.56839e-20
nonePBiCGStab:  Solving for p, Initial residual = 0.411176, Final residual = 9.97769e-05, No Iterations 360
linear solve p 4036
time step continuity errors : sum local = 9.68081e-08, global = 1.6519e-20, cumulative = -1.91649e-20
ExecutionTime = 45.31 s  ClockTime = 45 s

Time = 0.006

Courant Number mean: 0.0835971 max: 0.690373
nonePBiCGStab:  Solving for Ux, Initial residual = 0.0187155, Final residual = 0.00209282, No Iterations 5
nonePBiCGStab:  Solving for Uy, Initial residual = 0.0474673, Final residual = 0.00606693, No Iterations 5
nonePBiCGStab:  Solving for Uz, Initial residual = 0.158065, Final residual = 0.0332937, No Iterations 5
linear solve U 235
nonePBiCGStab:  Solving for p, Initial residual = 0.37215, Final residual = 9.77789e-05, No Iterations 444
linear solve p 4963
time step continuity errors : sum local = 5.54331e-08, global = 5.92832e-21, cumulative = -1.32366e-20
nonePBiCGStab:  Solving for p, Initial residual = 0.314463, Final residual = 9.11432e-05, No Iterations 409
linear solve p 4578
time step continuity errors : sum local = 4.87338e-08, global = -1.37563e-20, cumulative = -2.69929e-20
ExecutionTime = 55.3 s  ClockTime = 56 s

Time = 0.007

Courant Number mean: 0.0897168 max: 0.695144
nonePBiCGStab:  Solving for Ux, Initial residual = 0.0147793, Final residual = 0.00141789, No Iterations 5
nonePBiCGStab:  Solving for Uy, Initial residual = 0.0373895, Final residual = 0.0042632, No Iterations 5
nonePBiCGStab:  Solving for Uz, Initial residual = 0.114924, Final residual = 0.0222231, No Iterations 5
linear solve U 235
nonePBiCGStab:  Solving for p, Initial residual = 0.349826, Final residual = 9.62389e-05, No Iterations 364
linear solve p 4077
time step continuity errors : sum local = 7.09863e-08, global = 1.24117e-20, cumulative = -1.45812e-20
nonePBiCGStab:  Solving for p, Initial residual = 0.298729, Final residual = 8.67727e-05, No Iterations 346
linear solve p 3862
time step continuity errors : sum local = 7.62318e-08, global = 1.107e-20, cumulative = -3.51122e-21
ExecutionTime = 63.69 s  ClockTime = 64 s

Time = 0.008

Courant Number mean: 0.0948678 max: 0.698842
nonePBiCGStab:  Solving for Ux, Initial residual = 0.0122253, Final residual = 0.00103097, No Iterations 5
nonePBiCGStab:  Solving for Uy, Initial residual = 0.0297415, Final residual = 0.00297141, No Iterations 5
nonePBiCGStab:  Solving for Uz, Initial residual = 0.104044, Final residual = 0.0235677, No Iterations 5
linear solve U 236
nonePBiCGStab:  Solving for p, Initial residual = 0.283721, Final residual = 9.47942e-05, No Iterations 421
linear solve p 4697
time step continuity errors : sum local = 4.6176e-08, global = 9.12109e-22, cumulative = -2.59911e-21
nonePBiCGStab:  Solving for p, Initial residual = 0.240214, Final residual = 7.3999e-05, No Iterations 421
linear solve p 4706
time step continuity errors : sum local = 3.71743e-08, global = -1.47924e-20, cumulative = -1.73915e-20
ExecutionTime = 73.53 s  ClockTime = 74 s

Time = 0.009

Courant Number mean: 0.0993571 max: 0.70154
nonePBiCGStab:  Solving for Ux, Initial residual = 0.0100718, Final residual = 0.000781887, No Iterations 5
nonePBiCGStab:  Solving for Uy, Initial residual = 0.0254274, Final residual = 0.00228731, No Iterations 5
nonePBiCGStab:  Solving for Uz, Initial residual = 0.0812581, Final residual = 0.0154274, No Iterations 5
linear solve U 234
nonePBiCGStab:  Solving for p, Initial residual = 0.262527, Final residual = 8.89295e-05, No Iterations 335
linear solve p 3737
time step continuity errors : sum local = 7.57889e-08, global = 1.4123e-20, cumulative = -3.26842e-21
nonePBiCGStab:  Solving for p, Initial residual = 0.223257, Final residual = 9.99958e-05, No Iterations 321
linear solve p 3584
time step continuity errors : sum local = 8.76994e-08, global = 1.76434e-20, cumulative = 1.4375e-20
ExecutionTime = 81.29 s  ClockTime = 82 s

Time = 0.01

Courant Number mean: 0.103235 max: 0.70387
nonePBiCGStab:  Solving for Ux, Initial residual = 0.0087328, Final residual = 0.000689949, No Iterations 5
nonePBiCGStab:  Solving for Uy, Initial residual = 0.0210569, Final residual = 0.00192079, No Iterations 5
nonePBiCGStab:  Solving for Uz, Initial residual = 0.07894, Final residual = 0.0197383, No Iterations 5
linear solve U 234
nonePBiCGStab:  Solving for p, Initial residual = 0.22856, Final residual = 9.99821e-05, No Iterations 401
linear solve p 4464
time step continuity errors : sum local = 4.63283e-08, global = -8.03864e-21, cumulative = 6.33636e-21
nonePBiCGStab:  Solving for p, Initial residual = 0.194331, Final residual = 9.90217e-05, No Iterations 392
linear solve p 4372
time step continuity errors : sum local = 4.68495e-08, global = -1.70273e-21, cumulative = 4.63363e-21
ExecutionTime = 90.59 s  ClockTime = 91 s

End

