/*---------------------------------------------------------------------------*\
  =========                 |
  \\      /  F ield         | OpenFOAM: The Open Source CFD Toolbox
   \\    /   O peration     | Website:  https://openfoam.org
    \\  /    A nd           | Version:  8
     \\/     M anipulation  |
\*---------------------------------------------------------------------------*/
Build  : 8-40a5a48f630f
Exec   : icoFoam
Date   : Jul 27 2021
Time   : 23:15:11
Host   : "uc2n481.localdomain"
PID    : 183382
I/O    : uncollated
Case   : /pfs/data5/home/kit/scc/nq7776/code/OBR/lidDrivenCavity3D/Variation_mesh/55/Variation_matrix_solver/BiCGStab_BJ_CUDA/base
nProcs : 1
sigFpe : Enabling floating point exception trapping (FOAM_SIGFPE).
fileModificationChecking : Monitoring run-time modified files using timeStampMaster (fileModificationSkew 10)
allowSystemOperations : Allowing user-supplied system call operations

// * * * * * * * * * * * * * * * * * * * * * * * * * * * * * * * * * * * * * //
Create time

Create mesh for time = 0

Reading transportProperties

Reading field p

Reading field U

Reading/calculating face flux field phi


Starting time loop

Time = 0.001

Courant Number mean: 0 max: 0
nonePBiCGStab:  Solving for Ux, Initial residual = 1, Final residual = 0.0406479, No Iterations 5
nonePBiCGStab:  Solving for Uy, Initial residual = 0, Final residual = 0, No Iterations 0
nonePBiCGStab:  Solving for Uz, Initial residual = 0, Final residual = 0, No Iterations 0
linear solve U 43
[OGL LOG] init_host_sparsity_pattern : 46 ms
[OGL LOG] matrix not stored update host matrix
[OGL LOG] update_host_mtx : 24 ms
[OGL LOG] matrix is not yet sorted, compute sorting idxs
[OGL LOG] compute_sort : 1392 ms
[OGL LOG] matrix is not yet sorted, sorting host matrix
[OGL LOG] sort_host_mtx_sparsity_pattern : 33 ms
[OGL LOG] sort_host_mtx : 17 ms
[OGL LOG] init_preconditioner : 18 ms
[OGL LOG] solve : 208 ms
BJcudaGKOBiCGStab:  Solving for p, Initial residual = 1, Final residual = 6.15553e-05, No Iterations 295
linear solve p 2528
time step continuity errors : sum local = 0.000786457, global = 9.99499e-19, cumulative = 9.99499e-19
[OGL LOG] init_host_sparsity_pattern : 46 ms
[OGL LOG] matrix not stored update host matrix
[OGL LOG] update_host_mtx : 25 ms
[OGL LOG] matrix is not yet sorted, sorting host matrix
[OGL LOG] sort_host_mtx_sparsity_pattern : 35 ms
[OGL LOG] sort_host_mtx : 17 ms
[OGL LOG] init_preconditioner : 0 ms
[OGL LOG] solve : 170 ms
BJcudaGKOBiCGStab:  Solving for p, Initial residual = 0.857651, Final residual = 9.25989e-05, No Iterations 244
linear solve p 304
time step continuity errors : sum local = 6.57681e-06, global = -8.48356e-21, cumulative = 9.91015e-19
ExecutionTime = 3.59 s  ClockTime = 4 s

Time = 0.002

Courant Number mean: 0.0286284 max: 0.375286
nonePBiCGStab:  Solving for Ux, Initial residual = 0.159542, Final residual = 0.0148153, No Iterations 5
nonePBiCGStab:  Solving for Uy, Initial residual = 0.338878, Final residual = 0.0276351, No Iterations 5
nonePBiCGStab:  Solving for Uz, Initial residual = 0.90391, Final residual = 0.0544321, No Iterations 5
linear solve U 84
[OGL LOG] init_host_sparsity_pattern : 45 ms
[OGL LOG] matrix not stored update host matrix
[OGL LOG] update_host_mtx : 21 ms
[OGL LOG] matrix is not yet sorted, sorting host matrix
[OGL LOG] sort_host_mtx_sparsity_pattern : 33 ms
[OGL LOG] sort_host_mtx : 16 ms
[OGL LOG] init_preconditioner : 0 ms
[OGL LOG] solve : 77 ms
BJcudaGKOBiCGStab:  Solving for p, Initial residual = 0.806507, Final residual = 9.51427e-05, No Iterations 109
linear solve p 206
time step continuity errors : sum local = 4.09251e-07, global = -1.69116e-20, cumulative = 9.74104e-19
[OGL LOG] init_host_sparsity_pattern : 44 ms
[OGL LOG] matrix not stored update host matrix
[OGL LOG] update_host_mtx : 21 ms
[OGL LOG] matrix is not yet sorted, sorting host matrix
[OGL LOG] sort_host_mtx_sparsity_pattern : 31 ms
[OGL LOG] sort_host_mtx : 17 ms
[OGL LOG] init_preconditioner : 0 ms
[OGL LOG] solve : 72 ms
BJcudaGKOBiCGStab:  Solving for p, Initial residual = 0.684962, Final residual = 9.61381e-05, No Iterations 102
linear solve p 197
time step continuity errors : sum local = 6.88817e-07, global = 5.63724e-22, cumulative = 9.74667e-19
ExecutionTime = 4.18 s  ClockTime = 4 s

Time = 0.003

Courant Number mean: 0.0437655 max: 0.458776
nonePBiCGStab:  Solving for Ux, Initial residual = 0.0564019, Final residual = 0.00388455, No Iterations 5
nonePBiCGStab:  Solving for Uy, Initial residual = 0.113224, Final residual = 0.00643656, No Iterations 5
nonePBiCGStab:  Solving for Uz, Initial residual = 0.798719, Final residual = 0.0294359, No Iterations 5
linear solve U 85
[OGL LOG] init_host_sparsity_pattern : 44 ms
[OGL LOG] matrix not stored update host matrix
[OGL LOG] update_host_mtx : 22 ms
[OGL LOG] matrix is not yet sorted, sorting host matrix
[OGL LOG] sort_host_mtx_sparsity_pattern : 31 ms
[OGL LOG] sort_host_mtx : 16 ms
[OGL LOG] init_preconditioner : 0 ms
[OGL LOG] solve : 91 ms
BJcudaGKOBiCGStab:  Solving for p, Initial residual = 0.734853, Final residual = 8.68138e-05, No Iterations 127
linear solve p 216
time step continuity errors : sum local = 1.62106e-07, global = -2.43733e-20, cumulative = 9.50294e-19
[OGL LOG] init_host_sparsity_pattern : 45 ms
[OGL LOG] matrix not stored update host matrix
[OGL LOG] update_host_mtx : 21 ms
[OGL LOG] matrix is not yet sorted, sorting host matrix
[OGL LOG] sort_host_mtx_sparsity_pattern : 31 ms
[OGL LOG] sort_host_mtx : 16 ms
[OGL LOG] init_preconditioner : 0 ms
[OGL LOG] solve : 78 ms
BJcudaGKOBiCGStab:  Solving for p, Initial residual = 0.60671, Final residual = 8.81464e-05, No Iterations 111
linear solve p 204
time step continuity errors : sum local = 3.78034e-07, global = -1.31236e-20, cumulative = 9.3717e-19
ExecutionTime = 4.78 s  ClockTime = 5 s

Time = 0.004

Courant Number mean: 0.0524045 max: 0.476941
nonePBiCGStab:  Solving for Ux, Initial residual = 0.033756, Final residual = 0.00167421, No Iterations 5
nonePBiCGStab:  Solving for Uy, Initial residual = 0.070997, Final residual = 0.0027008, No Iterations 5
nonePBiCGStab:  Solving for Uz, Initial residual = 0.682076, Final residual = 0.023152, No Iterations 5
linear solve U 84
[OGL LOG] init_host_sparsity_pattern : 44 ms
[OGL LOG] matrix not stored update host matrix
[OGL LOG] update_host_mtx : 22 ms
[OGL LOG] matrix is not yet sorted, sorting host matrix
[OGL LOG] sort_host_mtx_sparsity_pattern : 31 ms
[OGL LOG] sort_host_mtx : 16 ms
[OGL LOG] init_preconditioner : 0 ms
[OGL LOG] solve : 165 ms
BJcudaGKOBiCGStab:  Solving for p, Initial residual = 0.572017, Final residual = 9.47839e-05, No Iterations 237
linear solve p 290
time step continuity errors : sum local = 9.6391e-08, global = 1.11372e-20, cumulative = 9.48308e-19
[OGL LOG] init_host_sparsity_pattern : 46 ms
[OGL LOG] matrix not stored update host matrix
[OGL LOG] update_host_mtx : 23 ms
[OGL LOG] matrix is not yet sorted, sorting host matrix
[OGL LOG] sort_host_mtx_sparsity_pattern : 34 ms
[OGL LOG] sort_host_mtx : 16 ms
[OGL LOG] init_preconditioner : 0 ms
[OGL LOG] solve : 164 ms
BJcudaGKOBiCGStab:  Solving for p, Initial residual = 0.448656, Final residual = 8.08247e-05, No Iterations 237
linear solve p 295
time step continuity errors : sum local = 7.96081e-08, global = 7.44504e-21, cumulative = 9.55753e-19
ExecutionTime = 5.55 s  ClockTime = 5 s

Time = 0.005

Courant Number mean: 0.0590253 max: 0.487009
nonePBiCGStab:  Solving for Ux, Initial residual = 0.0240015, Final residual = 0.000947054, No Iterations 5
nonePBiCGStab:  Solving for Uy, Initial residual = 0.0484842, Final residual = 0.00164893, No Iterations 5
nonePBiCGStab:  Solving for Uz, Initial residual = 0.509822, Final residual = 0.0141442, No Iterations 5
linear solve U 84
[OGL LOG] init_host_sparsity_pattern : 44 ms
[OGL LOG] matrix not stored update host matrix
[OGL LOG] update_host_mtx : 21 ms
[OGL LOG] matrix is not yet sorted, sorting host matrix
[OGL LOG] sort_host_mtx_sparsity_pattern : 30 ms
[OGL LOG] sort_host_mtx : 17 ms
[OGL LOG] init_preconditioner : 0 ms
[OGL LOG] solve : 67 ms
BJcudaGKOBiCGStab:  Solving for p, Initial residual = 0.431455, Final residual = 9.16834e-05, No Iterations 94
linear solve p 192
time step continuity errors : sum local = 2.37097e-07, global = 7.83443e-21, cumulative = 9.63587e-19
[OGL LOG] init_host_sparsity_pattern : 44 ms
[OGL LOG] matrix not stored update host matrix
[OGL LOG] update_host_mtx : 21 ms
[OGL LOG] matrix is not yet sorted, sorting host matrix
[OGL LOG] sort_host_mtx_sparsity_pattern : 31 ms
[OGL LOG] sort_host_mtx : 19 ms
[OGL LOG] init_preconditioner : 0 ms
[OGL LOG] solve : 68 ms
BJcudaGKOBiCGStab:  Solving for p, Initial residual = 0.336743, Final residual = 8.77901e-05, No Iterations 95
linear solve p 197
time step continuity errors : sum local = 2.64244e-07, global = -1.24477e-20, cumulative = 9.51139e-19
ExecutionTime = 6.13 s  ClockTime = 6 s

Time = 0.006

Courant Number mean: 0.0642376 max: 0.49326
nonePBiCGStab:  Solving for Ux, Initial residual = 0.0179862, Final residual = 0.000609713, No Iterations 5
nonePBiCGStab:  Solving for Uy, Initial residual = 0.0368906, Final residual = 0.000904556, No Iterations 5
nonePBiCGStab:  Solving for Uz, Initial residual = 0.351795, Final residual = 0.00980736, No Iterations 5
linear solve U 84
[OGL LOG] init_host_sparsity_pattern : 44 ms
[OGL LOG] matrix not stored update host matrix
[OGL LOG] update_host_mtx : 21 ms
[OGL LOG] matrix is not yet sorted, sorting host matrix
[OGL LOG] sort_host_mtx_sparsity_pattern : 31 ms
[OGL LOG] sort_host_mtx : 17 ms
[OGL LOG] init_preconditioner : 0 ms
[OGL LOG] solve : 70 ms
BJcudaGKOBiCGStab:  Solving for p, Initial residual = 0.304521, Final residual = 8.93909e-05, No Iterations 98
linear solve p 194
time step continuity errors : sum local = 1.51241e-07, global = -1.34191e-20, cumulative = 9.3772e-19
[OGL LOG] init_host_sparsity_pattern : 45 ms
[OGL LOG] matrix not stored update host matrix
[OGL LOG] update_host_mtx : 21 ms
[OGL LOG] matrix is not yet sorted, sorting host matrix
[OGL LOG] sort_host_mtx_sparsity_pattern : 31 ms
[OGL LOG] sort_host_mtx : 16 ms
[OGL LOG] init_preconditioner : 0 ms
[OGL LOG] solve : 66 ms
BJcudaGKOBiCGStab:  Solving for p, Initial residual = 0.234911, Final residual = 9.056e-05, No Iterations 93
linear solve p 190
time step continuity errors : sum local = 5.92724e-08, global = -2.6884e-21, cumulative = 9.35032e-19
ExecutionTime = 6.7 s  ClockTime = 7 s

Time = 0.007

Courant Number mean: 0.068501 max: 0.497562
nonePBiCGStab:  Solving for Ux, Initial residual = 0.0143017, Final residual = 0.000362686, No Iterations 5
nonePBiCGStab:  Solving for Uy, Initial residual = 0.0291824, Final residual = 0.000645438, No Iterations 5
nonePBiCGStab:  Solving for Uz, Initial residual = 0.227151, Final residual = 0.00813793, No Iterations 5
linear solve U 85
[OGL LOG] init_host_sparsity_pattern : 46 ms
[OGL LOG] matrix not stored update host matrix
[OGL LOG] update_host_mtx : 21 ms
[OGL LOG] matrix is not yet sorted, sorting host matrix
[OGL LOG] sort_host_mtx_sparsity_pattern : 31 ms
[OGL LOG] sort_host_mtx : 17 ms
[OGL LOG] init_preconditioner : 0 ms
[OGL LOG] solve : 67 ms
BJcudaGKOBiCGStab:  Solving for p, Initial residual = 0.203105, Final residual = 9.94708e-05, No Iterations 95
linear solve p 195
time step continuity errors : sum local = 6.41228e-08, global = -1.35401e-20, cumulative = 9.21492e-19
[OGL LOG] init_host_sparsity_pattern : 44 ms
[OGL LOG] matrix not stored update host matrix
[OGL LOG] update_host_mtx : 21 ms
[OGL LOG] matrix is not yet sorted, sorting host matrix
[OGL LOG] sort_host_mtx_sparsity_pattern : 31 ms
[OGL LOG] sort_host_mtx : 17 ms
[OGL LOG] init_preconditioner : 0 ms
[OGL LOG] solve : 65 ms
BJcudaGKOBiCGStab:  Solving for p, Initial residual = 0.15612, Final residual = 9.02621e-05, No Iterations 91
linear solve p 190
time step continuity errors : sum local = 1.34027e-07, global = 8.99306e-21, cumulative = 9.30485e-19
ExecutionTime = 7.26 s  ClockTime = 7 s

Time = 0.008

Courant Number mean: 0.0721015 max: 0.500766
nonePBiCGStab:  Solving for Ux, Initial residual = 0.0117242, Final residual = 0.00025693, No Iterations 5
nonePBiCGStab:  Solving for Uy, Initial residual = 0.0240411, Final residual = 0.000399633, No Iterations 5
nonePBiCGStab:  Solving for Uz, Initial residual = 0.146091, Final residual = 0.00609867, No Iterations 5
linear solve U 84
[OGL LOG] init_host_sparsity_pattern : 46 ms
[OGL LOG] matrix not stored update host matrix
[OGL LOG] update_host_mtx : 22 ms
[OGL LOG] matrix is not yet sorted, sorting host matrix
[OGL LOG] sort_host_mtx_sparsity_pattern : 31 ms
[OGL LOG] sort_host_mtx : 17 ms
[OGL LOG] init_preconditioner : 0 ms
[OGL LOG] solve : 67 ms
BJcudaGKOBiCGStab:  Solving for p, Initial residual = 0.13596, Final residual = 7.96449e-05, No Iterations 94
linear solve p 194
time step continuity errors : sum local = 4.80107e-08, global = 1.66428e-20, cumulative = 9.47128e-19
[OGL LOG] init_host_sparsity_pattern : 44 ms
[OGL LOG] matrix not stored update host matrix
[OGL LOG] update_host_mtx : 23 ms
[OGL LOG] matrix is not yet sorted, sorting host matrix
[OGL LOG] sort_host_mtx_sparsity_pattern : 36 ms
[OGL LOG] sort_host_mtx : 18 ms
[OGL LOG] init_preconditioner : 0 ms
[OGL LOG] solve : 63 ms
BJcudaGKOBiCGStab:  Solving for p, Initial residual = 0.104414, Final residual = 8.50508e-05, No Iterations 89
linear solve p 199
time step continuity errors : sum local = 1.66466e-07, global = -1.15131e-20, cumulative = 9.35614e-19
ExecutionTime = 7.83 s  ClockTime = 8 s

Time = 0.009

Courant Number mean: 0.0751719 max: 0.503266
nonePBiCGStab:  Solving for Ux, Initial residual = 0.00983545, Final residual = 0.000152437, No Iterations 5
nonePBiCGStab:  Solving for Uy, Initial residual = 0.0202753, Final residual = 0.000332108, No Iterations 5
nonePBiCGStab:  Solving for Uz, Initial residual = 0.0951323, Final residual = 0.00485488, No Iterations 5
linear solve U 85
[OGL LOG] init_host_sparsity_pattern : 44 ms
[OGL LOG] matrix not stored update host matrix
[OGL LOG] update_host_mtx : 21 ms
[OGL LOG] matrix is not yet sorted, sorting host matrix
[OGL LOG] sort_host_mtx_sparsity_pattern : 31 ms
[OGL LOG] sort_host_mtx : 17 ms
[OGL LOG] init_preconditioner : 0 ms
[OGL LOG] solve : 66 ms
BJcudaGKOBiCGStab:  Solving for p, Initial residual = 0.0889507, Final residual = 9.93714e-05, No Iterations 93
linear solve p 191
time step continuity errors : sum local = 6.2776e-08, global = -1.53265e-20, cumulative = 9.20288e-19
[OGL LOG] init_host_sparsity_pattern : 44 ms
[OGL LOG] matrix not stored update host matrix
[OGL LOG] update_host_mtx : 21 ms
[OGL LOG] matrix is not yet sorted, sorting host matrix
[OGL LOG] sort_host_mtx_sparsity_pattern : 31 ms
[OGL LOG] sort_host_mtx : 17 ms
[OGL LOG] init_preconditioner : 0 ms
[OGL LOG] solve : 61 ms
BJcudaGKOBiCGStab:  Solving for p, Initial residual = 0.0690656, Final residual = 4.95265e-05, No Iterations 86
linear solve p 185
time step continuity errors : sum local = 2.68206e-08, global = 5.57083e-21, cumulative = 9.25859e-19
ExecutionTime = 8.39 s  ClockTime = 8 s

Time = 0.01

Courant Number mean: 0.0778403 max: 0.505257
nonePBiCGStab:  Solving for Ux, Initial residual = 0.00840851, Final residual = 0.00014468, No Iterations 5
nonePBiCGStab:  Solving for Uy, Initial residual = 0.0173696, Final residual = 0.000238404, No Iterations 5
nonePBiCGStab:  Solving for Uz, Initial residual = 0.0655486, Final residual = 0.00301427, No Iterations 5
linear solve U 84
[OGL LOG] init_host_sparsity_pattern : 44 ms
[OGL LOG] matrix not stored update host matrix
[OGL LOG] update_host_mtx : 21 ms
[OGL LOG] matrix is not yet sorted, sorting host matrix
[OGL LOG] sort_host_mtx_sparsity_pattern : 31 ms
[OGL LOG] sort_host_mtx : 16 ms
[OGL LOG] init_preconditioner : 0 ms
[OGL LOG] solve : 61 ms
BJcudaGKOBiCGStab:  Solving for p, Initial residual = 0.0598832, Final residual = 6.90307e-05, No Iterations 86
linear solve p 186
time step continuity errors : sum local = 3.94486e-08, global = 2.96683e-20, cumulative = 9.55527e-19
[OGL LOG] init_host_sparsity_pattern : 44 ms
[OGL LOG] matrix not stored update host matrix
[OGL LOG] update_host_mtx : 22 ms
[OGL LOG] matrix is not yet sorted, sorting host matrix
[OGL LOG] sort_host_mtx_sparsity_pattern : 31 ms
[OGL LOG] sort_host_mtx : 17 ms
[OGL LOG] init_preconditioner : 0 ms
[OGL LOG] solve : 60 ms
BJcudaGKOBiCGStab:  Solving for p, Initial residual = 0.0469481, Final residual = 6.80827e-05, No Iterations 84
linear solve p 186
time step continuity errors : sum local = 8.5992e-07, global = 1.66239e-20, cumulative = 9.72151e-19
ExecutionTime = 8.95 s  ClockTime = 9 s

End

