/*---------------------------------------------------------------------------*\
  =========                 |
  \\      /  F ield         | OpenFOAM: The Open Source CFD Toolbox
   \\    /   O peration     | Website:  https://openfoam.org
    \\  /    A nd           | Version:  8
     \\/     M anipulation  |
\*---------------------------------------------------------------------------*/
Build  : 8-40a5a48f630f
Exec   : icoFoam
Date   : Jul 27 2021
Time   : 21:55:11
Host   : "uc2n481.localdomain"
PID    : 110238
I/O    : uncollated
Case   : /pfs/data5/home/kit/scc/nq7776/code/OBR/lidDrivenCavity3D/Variation_mesh/75/Variation_matrix_solver/CG_NoPrecond_CUDA/base
nProcs : 1
sigFpe : Enabling floating point exception trapping (FOAM_SIGFPE).
fileModificationChecking : Monitoring run-time modified files using timeStampMaster (fileModificationSkew 10)
allowSystemOperations : Allowing user-supplied system call operations

// * * * * * * * * * * * * * * * * * * * * * * * * * * * * * * * * * * * * * //
Create time

Create mesh for time = 0

Reading transportProperties

Reading field p

Reading field U

Reading/calculating face flux field phi


Starting time loop

Time = 0.001

Courant Number mean: 0 max: 0
nonePBiCGStab:  Solving for Ux, Initial residual = 1, Final residual = 0.0634334, No Iterations 5
nonePBiCGStab:  Solving for Uy, Initial residual = 0, Final residual = 0, No Iterations 0
nonePBiCGStab:  Solving for Uz, Initial residual = 0, Final residual = 0, No Iterations 0
linear solve U 115
[OGL LOG] init_host_sparsity_pattern : 121 ms
[OGL LOG] matrix not stored update host matrix
[OGL LOG] update_host_mtx : 64 ms
[OGL LOG] matrix is not yet sorted, compute sorting idxs
[OGL LOG] compute_sort : 3681 ms
[OGL LOG] matrix is not yet sorted, sorting host matrix
[OGL LOG] sort_host_mtx_sparsity_pattern : 84 ms
[OGL LOG] sort_host_mtx : 48 ms
[OGL LOG] init_preconditioner : 0 ms
[OGL LOG] solve : 362 ms
nonecudaGKOCG:  Solving for p, Initial residual = 1, Final residual = 9.58523e-05, No Iterations 591
linear solve p 5155
time step continuity errors : sum local = 4.31664e-08, global = -1.02902e-20, cumulative = -1.02902e-20
[OGL LOG] init_host_sparsity_pattern : 116 ms
[OGL LOG] matrix not stored update host matrix
[OGL LOG] update_host_mtx : 62 ms
[OGL LOG] matrix is not yet sorted, sorting host matrix
[OGL LOG] sort_host_mtx_sparsity_pattern : 87 ms
[OGL LOG] sort_host_mtx : 43 ms
[OGL LOG] init_preconditioner : 0 ms
[OGL LOG] solve : 368 ms
nonecudaGKOCG:  Solving for p, Initial residual = 0.687859, Final residual = 9.71179e-05, No Iterations 583
linear solve p 704
time step continuity errors : sum local = 6.14653e-08, global = -3.64479e-21, cumulative = -1.3935e-20
ExecutionTime = 7.75 s  ClockTime = 7 s

Time = 0.002

Courant Number mean: 0.0360752 max: 0.561117
nonePBiCGStab:  Solving for Ux, Initial residual = 0.146367, Final residual = 0.0272829, No Iterations 5
nonePBiCGStab:  Solving for Uy, Initial residual = 0.39118, Final residual = 0.0672303, No Iterations 5
nonePBiCGStab:  Solving for Uz, Initial residual = 0.983083, Final residual = 0.205707, No Iterations 5
linear solve U 225
[OGL LOG] init_host_sparsity_pattern : 112 ms
[OGL LOG] matrix not stored update host matrix
[OGL LOG] update_host_mtx : 55 ms
[OGL LOG] matrix is not yet sorted, sorting host matrix
[OGL LOG] sort_host_mtx_sparsity_pattern : 81 ms
[OGL LOG] sort_host_mtx : 44 ms
[OGL LOG] init_preconditioner : 0 ms
[OGL LOG] solve : 362 ms
nonecudaGKOCG:  Solving for p, Initial residual = 0.709354, Final residual = 9.57626e-05, No Iterations 578
linear solve p 680
time step continuity errors : sum local = 8.40875e-08, global = -5.96585e-21, cumulative = -1.99008e-20
[OGL LOG] init_host_sparsity_pattern : 112 ms
[OGL LOG] matrix not stored update host matrix
[OGL LOG] update_host_mtx : 54 ms
[OGL LOG] matrix is not yet sorted, sorting host matrix
[OGL LOG] sort_host_mtx_sparsity_pattern : 79 ms
[OGL LOG] sort_host_mtx : 43 ms
[OGL LOG] init_preconditioner : 0 ms
[OGL LOG] solve : 359 ms
nonecudaGKOCG:  Solving for p, Initial residual = 0.629988, Final residual = 9.51006e-05, No Iterations 576
linear solve p 674
time step continuity errors : sum local = 8.52472e-08, global = 1.57306e-20, cumulative = -4.17025e-21
ExecutionTime = 9.59 s  ClockTime = 9 s

Time = 0.003

Courant Number mean: 0.0560428 max: 0.655039
nonePBiCGStab:  Solving for Ux, Initial residual = 0.0566166, Final residual = 0.00888593, No Iterations 5
nonePBiCGStab:  Solving for Uy, Initial residual = 0.145913, Final residual = 0.0300262, No Iterations 5
nonePBiCGStab:  Solving for Uz, Initial residual = 0.506918, Final residual = 0.0998511, No Iterations 5
linear solve U 225
[OGL LOG] init_host_sparsity_pattern : 113 ms
[OGL LOG] matrix not stored update host matrix
[OGL LOG] update_host_mtx : 55 ms
[OGL LOG] matrix is not yet sorted, sorting host matrix
[OGL LOG] sort_host_mtx_sparsity_pattern : 83 ms
[OGL LOG] sort_host_mtx : 43 ms
[OGL LOG] init_preconditioner : 0 ms
[OGL LOG] solve : 361 ms
nonecudaGKOCG:  Solving for p, Initial residual = 0.660314, Final residual = 9.92575e-05, No Iterations 573
linear solve p 685
time step continuity errors : sum local = 6.14577e-08, global = 1.19842e-21, cumulative = -2.97183e-21
[OGL LOG] init_host_sparsity_pattern : 112 ms
[OGL LOG] matrix not stored update host matrix
[OGL LOG] update_host_mtx : 54 ms
[OGL LOG] matrix is not yet sorted, sorting host matrix
[OGL LOG] sort_host_mtx_sparsity_pattern : 79 ms
[OGL LOG] sort_host_mtx : 43 ms
[OGL LOG] init_preconditioner : 0 ms
[OGL LOG] solve : 365 ms
nonecudaGKOCG:  Solving for p, Initial residual = 0.592807, Final residual = 9.84439e-05, No Iterations 572
linear solve p 679
time step continuity errors : sum local = 5.92127e-08, global = 1.9213e-21, cumulative = -1.05053e-21
ExecutionTime = 11.42 s  ClockTime = 11 s

Time = 0.004

Courant Number mean: 0.0671622 max: 0.672134
nonePBiCGStab:  Solving for Ux, Initial residual = 0.0340002, Final residual = 0.00478483, No Iterations 5
nonePBiCGStab:  Solving for Uy, Initial residual = 0.0977377, Final residual = 0.0161173, No Iterations 5
nonePBiCGStab:  Solving for Uz, Initial residual = 0.288121, Final residual = 0.0474926, No Iterations 5
linear solve U 228
[OGL LOG] init_host_sparsity_pattern : 115 ms
[OGL LOG] matrix not stored update host matrix
[OGL LOG] update_host_mtx : 59 ms
[OGL LOG] matrix is not yet sorted, sorting host matrix
[OGL LOG] sort_host_mtx_sparsity_pattern : 83 ms
[OGL LOG] sort_host_mtx : 44 ms
[OGL LOG] init_preconditioner : 0 ms
[OGL LOG] solve : 180 ms
nonecudaGKOCG:  Solving for p, Initial residual = 0.49699, Final residual = 9.9706e-05, No Iterations 278
linear solve p 507
time step continuity errors : sum local = 6.11433e-08, global = -2.9377e-21, cumulative = -3.98822e-21
[OGL LOG] init_host_sparsity_pattern : 112 ms
[OGL LOG] matrix not stored update host matrix
[OGL LOG] update_host_mtx : 56 ms
[OGL LOG] matrix is not yet sorted, sorting host matrix
[OGL LOG] sort_host_mtx_sparsity_pattern : 79 ms
[OGL LOG] sort_host_mtx : 43 ms
[OGL LOG] init_preconditioner : 0 ms
[OGL LOG] solve : 179 ms
nonecudaGKOCG:  Solving for p, Initial residual = 0.42051, Final residual = 9.67726e-05, No Iterations 275
linear solve p 496
time step continuity errors : sum local = 5.90248e-08, global = 1.01771e-20, cumulative = 6.18887e-21
ExecutionTime = 12.9 s  ClockTime = 13 s

Time = 0.005

Courant Number mean: 0.076376 max: 0.683511
nonePBiCGStab:  Solving for Ux, Initial residual = 0.0246289, Final residual = 0.00309729, No Iterations 5
nonePBiCGStab:  Solving for Uy, Initial residual = 0.0622942, Final residual = 0.010128, No Iterations 5
nonePBiCGStab:  Solving for Uz, Initial residual = 0.147185, Final residual = 0.0313123, No Iterations 5
linear solve U 236
[OGL LOG] init_host_sparsity_pattern : 112 ms
[OGL LOG] matrix not stored update host matrix
[OGL LOG] update_host_mtx : 54 ms
[OGL LOG] matrix is not yet sorted, sorting host matrix
[OGL LOG] sort_host_mtx_sparsity_pattern : 82 ms
[OGL LOG] sort_host_mtx : 43 ms
[OGL LOG] init_preconditioner : 0 ms
[OGL LOG] solve : 178 ms
nonecudaGKOCG:  Solving for p, Initial residual = 0.472683, Final residual = 9.35079e-05, No Iterations 272
linear solve p 496
time step continuity errors : sum local = 5.21901e-08, global = 4.33799e-21, cumulative = 1.05269e-20
[OGL LOG] init_host_sparsity_pattern : 112 ms
[OGL LOG] matrix not stored update host matrix
[OGL LOG] update_host_mtx : 54 ms
[OGL LOG] matrix is not yet sorted, sorting host matrix
[OGL LOG] sort_host_mtx_sparsity_pattern : 79 ms
[OGL LOG] sort_host_mtx : 43 ms
[OGL LOG] init_preconditioner : 0 ms
[OGL LOG] solve : 175 ms
nonecudaGKOCG:  Solving for p, Initial residual = 0.409098, Final residual = 9.13618e-05, No Iterations 270
linear solve p 489
time step continuity errors : sum local = 4.66261e-08, global = 1.29605e-20, cumulative = 2.34873e-20
ExecutionTime = 14.38 s  ClockTime = 14 s

Time = 0.006

Courant Number mean: 0.0835973 max: 0.690352
nonePBiCGStab:  Solving for Ux, Initial residual = 0.0184031, Final residual = 0.00201507, No Iterations 5
nonePBiCGStab:  Solving for Uy, Initial residual = 0.0472387, Final residual = 0.00588667, No Iterations 5
nonePBiCGStab:  Solving for Uz, Initial residual = 0.117395, Final residual = 0.0218268, No Iterations 5
linear solve U 226
[OGL LOG] init_host_sparsity_pattern : 114 ms
[OGL LOG] matrix not stored update host matrix
[OGL LOG] update_host_mtx : 54 ms
[OGL LOG] matrix is not yet sorted, sorting host matrix
[OGL LOG] sort_host_mtx_sparsity_pattern : 79 ms
[OGL LOG] sort_host_mtx : 43 ms
[OGL LOG] init_preconditioner : 0 ms
[OGL LOG] solve : 171 ms
nonecudaGKOCG:  Solving for p, Initial residual = 0.367829, Final residual = 9.84798e-05, No Iterations 261
linear solve p 487
time step continuity errors : sum local = 5.13958e-08, global = 3.05007e-21, cumulative = 2.65374e-20
[OGL LOG] init_host_sparsity_pattern : 112 ms
[OGL LOG] matrix not stored update host matrix
[OGL LOG] update_host_mtx : 54 ms
[OGL LOG] matrix is not yet sorted, sorting host matrix
[OGL LOG] sort_host_mtx_sparsity_pattern : 79 ms
[OGL LOG] sort_host_mtx : 43 ms
[OGL LOG] init_preconditioner : 0 ms
[OGL LOG] solve : 170 ms
nonecudaGKOCG:  Solving for p, Initial residual = 0.310864, Final residual = 9.39235e-05, No Iterations 260
linear solve p 485
time step continuity errors : sum local = 4.83027e-08, global = 1.4455e-20, cumulative = 4.09924e-20
ExecutionTime = 15.82 s  ClockTime = 15 s

Time = 0.007

Courant Number mean: 0.0897245 max: 0.695112
nonePBiCGStab:  Solving for Ux, Initial residual = 0.0146411, Final residual = 0.00137011, No Iterations 5
nonePBiCGStab:  Solving for Uy, Initial residual = 0.0367312, Final residual = 0.00412752, No Iterations 5
nonePBiCGStab:  Solving for Uz, Initial residual = 0.0843062, Final residual = 0.014007, No Iterations 5
linear solve U 224
[OGL LOG] init_host_sparsity_pattern : 112 ms
[OGL LOG] matrix not stored update host matrix
[OGL LOG] update_host_mtx : 54 ms
[OGL LOG] matrix is not yet sorted, sorting host matrix
[OGL LOG] sort_host_mtx_sparsity_pattern : 83 ms
[OGL LOG] sort_host_mtx : 43 ms
[OGL LOG] init_preconditioner : 0 ms
[OGL LOG] solve : 345 ms
nonecudaGKOCG:  Solving for p, Initial residual = 0.343609, Final residual = 9.31093e-05, No Iterations 537
linear solve p 666
time step continuity errors : sum local = 4.21762e-08, global = 1.38671e-20, cumulative = 5.48595e-20
[OGL LOG] init_host_sparsity_pattern : 113 ms
[OGL LOG] matrix not stored update host matrix
[OGL LOG] update_host_mtx : 55 ms
[OGL LOG] matrix is not yet sorted, sorting host matrix
[OGL LOG] sort_host_mtx_sparsity_pattern : 79 ms
[OGL LOG] sort_host_mtx : 44 ms
[OGL LOG] init_preconditioner : 0 ms
[OGL LOG] solve : 176 ms
nonecudaGKOCG:  Solving for p, Initial residual = 0.293453, Final residual = 9.58917e-05, No Iterations 272
linear solve p 493
time step continuity errors : sum local = 5.22147e-08, global = -3.90652e-21, cumulative = 5.0953e-20
ExecutionTime = 17.44 s  ClockTime = 17 s

Time = 0.008

Courant Number mean: 0.0948863 max: 0.698808
nonePBiCGStab:  Solving for Ux, Initial residual = 0.011905, Final residual = 0.0009381, No Iterations 5
nonePBiCGStab:  Solving for Uy, Initial residual = 0.0295593, Final residual = 0.00254165, No Iterations 5
nonePBiCGStab:  Solving for Uz, Initial residual = 0.0725192, Final residual = 0.0127322, No Iterations 5
linear solve U 227
[OGL LOG] init_host_sparsity_pattern : 112 ms
[OGL LOG] matrix not stored update host matrix
[OGL LOG] update_host_mtx : 54 ms
[OGL LOG] matrix is not yet sorted, sorting host matrix
[OGL LOG] sort_host_mtx_sparsity_pattern : 88 ms
[OGL LOG] sort_host_mtx : 48 ms
[OGL LOG] init_preconditioner : 0 ms
[OGL LOG] solve : 350 ms
nonecudaGKOCG:  Solving for p, Initial residual = 0.271955, Final residual = 9.31773e-05, No Iterations 537
linear solve p 682
time step continuity errors : sum local = 4.26677e-08, global = -8.56005e-21, cumulative = 4.23929e-20
[OGL LOG] init_host_sparsity_pattern : 113 ms
[OGL LOG] matrix not stored update host matrix
[OGL LOG] update_host_mtx : 57 ms
[OGL LOG] matrix is not yet sorted, sorting host matrix
[OGL LOG] sort_host_mtx_sparsity_pattern : 78 ms
[OGL LOG] sort_host_mtx : 43 ms
[OGL LOG] init_preconditioner : 0 ms
[OGL LOG] solve : 344 ms
nonecudaGKOCG:  Solving for p, Initial residual = 0.229945, Final residual = 9.28176e-05, No Iterations 536
linear solve p 662
time step continuity errors : sum local = 4.25502e-08, global = -5.54322e-21, cumulative = 3.68497e-20
ExecutionTime = 19.26 s  ClockTime = 19 s

Time = 0.009

Courant Number mean: 0.099396 max: 0.701518
nonePBiCGStab:  Solving for Ux, Initial residual = 0.00990062, Final residual = 0.00075426, No Iterations 5
nonePBiCGStab:  Solving for Uy, Initial residual = 0.0247077, Final residual = 0.00195097, No Iterations 5
nonePBiCGStab:  Solving for Uz, Initial residual = 0.058265, Final residual = 0.00815771, No Iterations 5
linear solve U 225
[OGL LOG] init_host_sparsity_pattern : 112 ms
[OGL LOG] matrix not stored update host matrix
[OGL LOG] update_host_mtx : 54 ms
[OGL LOG] matrix is not yet sorted, sorting host matrix
[OGL LOG] sort_host_mtx_sparsity_pattern : 79 ms
[OGL LOG] sort_host_mtx : 43 ms
[OGL LOG] init_preconditioner : 0 ms
[OGL LOG] solve : 344 ms
nonecudaGKOCG:  Solving for p, Initial residual = 0.246019, Final residual = 9.58438e-05, No Iterations 530
linear solve p 660
time step continuity errors : sum local = 4.13961e-08, global = 5.58726e-21, cumulative = 4.2437e-20
[OGL LOG] init_host_sparsity_pattern : 112 ms
[OGL LOG] matrix not stored update host matrix
[OGL LOG] update_host_mtx : 55 ms
[OGL LOG] matrix is not yet sorted, sorting host matrix
[OGL LOG] sort_host_mtx_sparsity_pattern : 82 ms
[OGL LOG] sort_host_mtx : 43 ms
[OGL LOG] init_preconditioner : 0 ms
[OGL LOG] solve : 340 ms
nonecudaGKOCG:  Solving for p, Initial residual = 0.209167, Final residual = 9.99897e-05, No Iterations 528
linear solve p 659
time step continuity errors : sum local = 4.31477e-08, global = -1.88188e-21, cumulative = 4.05551e-20
ExecutionTime = 21.06 s  ClockTime = 21 s

Time = 0.01

Courant Number mean: 0.103293 max: 0.70385
nonePBiCGStab:  Solving for Ux, Initial residual = 0.00840602, Final residual = 0.000558128, No Iterations 5
nonePBiCGStab:  Solving for Uy, Initial residual = 0.0206177, Final residual = 0.00120273, No Iterations 5
nonePBiCGStab:  Solving for Uz, Initial residual = 0.0500038, Final residual = 0.00764836, No Iterations 5
linear solve U 225
[OGL LOG] init_host_sparsity_pattern : 113 ms
[OGL LOG] matrix not stored update host matrix
[OGL LOG] update_host_mtx : 55 ms
[OGL LOG] matrix is not yet sorted, sorting host matrix
[OGL LOG] sort_host_mtx_sparsity_pattern : 79 ms
[OGL LOG] sort_host_mtx : 43 ms
[OGL LOG] init_preconditioner : 0 ms
[OGL LOG] solve : 164 ms
nonecudaGKOCG:  Solving for p, Initial residual = 0.201287, Final residual = 9.80442e-05, No Iterations 247
linear solve p 480
time step continuity errors : sum local = 4.73171e-08, global = 1.98863e-20, cumulative = 6.04414e-20
[OGL LOG] init_host_sparsity_pattern : 112 ms
[OGL LOG] matrix not stored update host matrix
[OGL LOG] update_host_mtx : 54 ms
[OGL LOG] matrix is not yet sorted, sorting host matrix
[OGL LOG] sort_host_mtx_sparsity_pattern : 79 ms
[OGL LOG] sort_host_mtx : 43 ms
[OGL LOG] init_preconditioner : 0 ms
[OGL LOG] solve : 157 ms
nonecudaGKOCG:  Solving for p, Initial residual = 0.170695, Final residual = 9.74062e-05, No Iterations 241
linear solve p 472
time step continuity errors : sum local = 4.37694e-08, global = -1.23838e-20, cumulative = 4.80576e-20
ExecutionTime = 22.48 s  ClockTime = 22 s

End

