/*---------------------------------------------------------------------------*\
  =========                 |
  \\      /  F ield         | OpenFOAM: The Open Source CFD Toolbox
   \\    /   O peration     | Website:  https://openfoam.org
    \\  /    A nd           | Version:  8
     \\/     M anipulation  |
\*---------------------------------------------------------------------------*/
Build  : 8-40a5a48f630f
Exec   : icoFoam
Date   : Jul 27 2021
Time   : 22:23:40
Host   : "uc2n481.localdomain"
PID    : 137031
I/O    : uncollated
Case   : /pfs/data5/home/kit/scc/nq7776/code/OBR/lidDrivenCavity3D/Variation_mesh/30/Variation_matrix_solver/BiCGStab_BJ_CUDA/base
nProcs : 1
sigFpe : Enabling floating point exception trapping (FOAM_SIGFPE).
fileModificationChecking : Monitoring run-time modified files using timeStampMaster (fileModificationSkew 10)
allowSystemOperations : Allowing user-supplied system call operations

// * * * * * * * * * * * * * * * * * * * * * * * * * * * * * * * * * * * * * //
Create time

Create mesh for time = 0

Reading transportProperties

Reading field p

Reading field U

Reading/calculating face flux field phi


Starting time loop

Time = 0.001

Courant Number mean: 0 max: 0
nonePBiCGStab:  Solving for Ux, Initial residual = 1, Final residual = 0.00734209, No Iterations 5
nonePBiCGStab:  Solving for Uy, Initial residual = 0, Final residual = 0, No Iterations 0
nonePBiCGStab:  Solving for Uz, Initial residual = 0, Final residual = 0, No Iterations 0
linear solve U 5
[OGL LOG] init_host_sparsity_pattern : 7 ms
[OGL LOG] matrix not stored update host matrix
[OGL LOG] update_host_mtx : 3 ms
[OGL LOG] matrix is not yet sorted, compute sorting idxs
[OGL LOG] compute_sort : 195 ms
[OGL LOG] matrix is not yet sorted, sorting host matrix
[OGL LOG] sort_host_mtx_sparsity_pattern : 4 ms
[OGL LOG] sort_host_mtx : 2 ms
[OGL LOG] init_preconditioner : 3 ms
[OGL LOG] solve : 44 ms
BJcudaGKOBiCGStab:  Solving for p, Initial residual = 1, Final residual = 6.60191e-05, No Iterations 152
linear solve p 1031
time step continuity errors : sum local = 6.99885e-08, global = 6.79529e-22, cumulative = 6.79529e-22
[OGL LOG] init_host_sparsity_pattern : 7 ms
[OGL LOG] matrix not stored update host matrix
[OGL LOG] update_host_mtx : 4 ms
[OGL LOG] matrix is not yet sorted, sorting host matrix
[OGL LOG] sort_host_mtx_sparsity_pattern : 5 ms
[OGL LOG] sort_host_mtx : 2 ms
[OGL LOG] init_preconditioner : 0 ms
[OGL LOG] solve : 41 ms
BJcudaGKOBiCGStab:  Solving for p, Initial residual = 0.530956, Final residual = 8.06008e-05, No Iterations 142
linear solve p 62
time step continuity errors : sum local = 1.34202e-07, global = 5.12562e-21, cumulative = 5.80515e-21
ExecutionTime = 1.24 s  ClockTime = 1 s

Time = 0.002

Courant Number mean: 0.0150823 max: 0.148277
nonePBiCGStab:  Solving for Ux, Initial residual = 0.195789, Final residual = 0.00209985, No Iterations 5
nonePBiCGStab:  Solving for Uy, Initial residual = 0.281735, Final residual = 0.00191662, No Iterations 5
nonePBiCGStab:  Solving for Uz, Initial residual = 0.915173, Final residual = 0.0100403, No Iterations 5
linear solve U 9
[OGL LOG] init_host_sparsity_pattern : 6 ms
[OGL LOG] matrix not stored update host matrix
[OGL LOG] update_host_mtx : 3 ms
[OGL LOG] matrix is not yet sorted, sorting host matrix
[OGL LOG] sort_host_mtx_sparsity_pattern : 4 ms
[OGL LOG] sort_host_mtx : 2 ms
[OGL LOG] init_preconditioner : 0 ms
[OGL LOG] solve : 43 ms
BJcudaGKOBiCGStab:  Solving for p, Initial residual = 0.351399, Final residual = 9.44481e-05, No Iterations 137
linear solve p 63
time step continuity errors : sum local = 1.46006e-07, global = 2.90237e-21, cumulative = 8.70752e-21
[OGL LOG] init_host_sparsity_pattern : 7 ms
[OGL LOG] matrix not stored update host matrix
[OGL LOG] update_host_mtx : 3 ms
[OGL LOG] matrix is not yet sorted, sorting host matrix
[OGL LOG] sort_host_mtx_sparsity_pattern : 5 ms
[OGL LOG] sort_host_mtx : 2 ms
[OGL LOG] init_preconditioner : 0 ms
[OGL LOG] solve : 35 ms
BJcudaGKOBiCGStab:  Solving for p, Initial residual = 0.251841, Final residual = 9.86129e-05, No Iterations 121
linear solve p 56
time step continuity errors : sum local = 1.6278e-07, global = 5.43871e-23, cumulative = 8.76191e-21
ExecutionTime = 1.38 s  ClockTime = 1 s

Time = 0.003

Courant Number mean: 0.0234542 max: 0.204101
nonePBiCGStab:  Solving for Ux, Initial residual = 0.0795746, Final residual = 0.000579735, No Iterations 5
nonePBiCGStab:  Solving for Uy, Initial residual = 0.117019, Final residual = 0.000487254, No Iterations 5
nonePBiCGStab:  Solving for Uz, Initial residual = 0.228206, Final residual = 0.00216113, No Iterations 5
linear solve U 10
[OGL LOG] init_host_sparsity_pattern : 7 ms
[OGL LOG] matrix not stored update host matrix
[OGL LOG] update_host_mtx : 3 ms
[OGL LOG] matrix is not yet sorted, sorting host matrix
[OGL LOG] sort_host_mtx_sparsity_pattern : 4 ms
[OGL LOG] sort_host_mtx : 2 ms
[OGL LOG] init_preconditioner : 0 ms
[OGL LOG] solve : 34 ms
BJcudaGKOBiCGStab:  Solving for p, Initial residual = 0.111452, Final residual = 9.42432e-05, No Iterations 115
linear solve p 54
time step continuity errors : sum local = 1.37521e-07, global = 7.11944e-21, cumulative = 1.58814e-20
[OGL LOG] init_host_sparsity_pattern : 7 ms
[OGL LOG] matrix not stored update host matrix
[OGL LOG] update_host_mtx : 3 ms
[OGL LOG] matrix is not yet sorted, sorting host matrix
[OGL LOG] sort_host_mtx_sparsity_pattern : 4 ms
[OGL LOG] sort_host_mtx : 2 ms
[OGL LOG] init_preconditioner : 0 ms
[OGL LOG] solve : 33 ms
BJcudaGKOBiCGStab:  Solving for p, Initial residual = 0.0818148, Final residual = 9.60539e-05, No Iterations 115
linear solve p 54
time step continuity errors : sum local = 1.38942e-07, global = 1.10953e-20, cumulative = 2.69766e-20
ExecutionTime = 1.51 s  ClockTime = 1 s

Time = 0.004

Courant Number mean: 0.028581 max: 0.226294
nonePBiCGStab:  Solving for Ux, Initial residual = 0.0461333, Final residual = 0.00014561, No Iterations 5
nonePBiCGStab:  Solving for Uy, Initial residual = 0.0702841, Final residual = 0.0001455, No Iterations 5
nonePBiCGStab:  Solving for Uz, Initial residual = 0.115077, Final residual = 0.000672036, No Iterations 5
linear solve U 10
[OGL LOG] init_host_sparsity_pattern : 6 ms
[OGL LOG] matrix not stored update host matrix
[OGL LOG] update_host_mtx : 3 ms
[OGL LOG] matrix is not yet sorted, sorting host matrix
[OGL LOG] sort_host_mtx_sparsity_pattern : 4 ms
[OGL LOG] sort_host_mtx : 2 ms
[OGL LOG] init_preconditioner : 0 ms
[OGL LOG] solve : 17 ms
BJcudaGKOBiCGStab:  Solving for p, Initial residual = 0.0568646, Final residual = 9.72481e-05, No Iterations 58
linear solve p 37
time step continuity errors : sum local = 7.299e-08, global = -5.27312e-21, cumulative = 2.17035e-20
[OGL LOG] init_host_sparsity_pattern : 7 ms
[OGL LOG] matrix not stored update host matrix
[OGL LOG] update_host_mtx : 3 ms
[OGL LOG] matrix is not yet sorted, sorting host matrix
[OGL LOG] sort_host_mtx_sparsity_pattern : 4 ms
[OGL LOG] sort_host_mtx : 2 ms
[OGL LOG] init_preconditioner : 0 ms
[OGL LOG] solve : 15 ms
BJcudaGKOBiCGStab:  Solving for p, Initial residual = 0.0416381, Final residual = 7.92052e-05, No Iterations 51
linear solve p 36
time step continuity errors : sum local = 9.80577e-08, global = 6.56893e-21, cumulative = 2.82724e-20
ExecutionTime = 1.61 s  ClockTime = 1 s

Time = 0.005

Courant Number mean: 0.0322794 max: 0.237315
nonePBiCGStab:  Solving for Ux, Initial residual = 0.0314828, Final residual = 6.76089e-05, No Iterations 5
nonePBiCGStab:  Solving for Uy, Initial residual = 0.04849, Final residual = 7.8769e-05, No Iterations 5
nonePBiCGStab:  Solving for Uz, Initial residual = 0.0829384, Final residual = 0.000430615, No Iterations 5
linear solve U 10
[OGL LOG] init_host_sparsity_pattern : 6 ms
[OGL LOG] matrix not stored update host matrix
[OGL LOG] update_host_mtx : 3 ms
[OGL LOG] matrix is not yet sorted, sorting host matrix
[OGL LOG] sort_host_mtx_sparsity_pattern : 4 ms
[OGL LOG] sort_host_mtx : 2 ms
[OGL LOG] init_preconditioner : 0 ms
[OGL LOG] solve : 16 ms
BJcudaGKOBiCGStab:  Solving for p, Initial residual = 0.0355611, Final residual = 9.79772e-05, No Iterations 54
linear solve p 37
time step continuity errors : sum local = 9.34376e-08, global = 2.08838e-20, cumulative = 4.91563e-20
[OGL LOG] init_host_sparsity_pattern : 6 ms
[OGL LOG] matrix not stored update host matrix
[OGL LOG] update_host_mtx : 3 ms
[OGL LOG] matrix is not yet sorted, sorting host matrix
[OGL LOG] sort_host_mtx_sparsity_pattern : 5 ms
[OGL LOG] sort_host_mtx : 2 ms
[OGL LOG] init_preconditioner : 0 ms
[OGL LOG] solve : 15 ms
BJcudaGKOBiCGStab:  Solving for p, Initial residual = 0.0262929, Final residual = 8.21705e-05, No Iterations 50
linear solve p 36
time step continuity errors : sum local = 9.63518e-08, global = 5.4976e-21, cumulative = 5.46539e-20
ExecutionTime = 1.7 s  ClockTime = 2 s

Time = 0.006

Courant Number mean: 0.0351493 max: 0.243823
nonePBiCGStab:  Solving for Ux, Initial residual = 0.0235695, Final residual = 3.72969e-05, No Iterations 5
nonePBiCGStab:  Solving for Uy, Initial residual = 0.0365883, Final residual = 4.55936e-05, No Iterations 5
nonePBiCGStab:  Solving for Uz, Initial residual = 0.0651665, Final residual = 0.000218796, No Iterations 5
linear solve U 10
[OGL LOG] init_host_sparsity_pattern : 7 ms
[OGL LOG] matrix not stored update host matrix
[OGL LOG] update_host_mtx : 3 ms
[OGL LOG] matrix is not yet sorted, sorting host matrix
[OGL LOG] sort_host_mtx_sparsity_pattern : 4 ms
[OGL LOG] sort_host_mtx : 2 ms
[OGL LOG] init_preconditioner : 0 ms
[OGL LOG] solve : 15 ms
BJcudaGKOBiCGStab:  Solving for p, Initial residual = 0.0253944, Final residual = 9.84275e-05, No Iterations 52
linear solve p 36
time step continuity errors : sum local = 8.93884e-08, global = 3.19385e-21, cumulative = 5.78477e-20
[OGL LOG] init_host_sparsity_pattern : 7 ms
[OGL LOG] matrix not stored update host matrix
[OGL LOG] update_host_mtx : 3 ms
[OGL LOG] matrix is not yet sorted, sorting host matrix
[OGL LOG] sort_host_mtx_sparsity_pattern : 5 ms
[OGL LOG] sort_host_mtx : 2 ms
[OGL LOG] init_preconditioner : 0 ms
[OGL LOG] solve : 14 ms
BJcudaGKOBiCGStab:  Solving for p, Initial residual = 0.018945, Final residual = 7.84841e-05, No Iterations 47
linear solve p 35
time step continuity errors : sum local = 8.72207e-08, global = -1.97979e-20, cumulative = 3.80498e-20
ExecutionTime = 1.8 s  ClockTime = 2 s

Time = 0.007

Courant Number mean: 0.0374501 max: 0.248188
nonePBiCGStab:  Solving for Ux, Initial residual = 0.0185842, Final residual = 2.15171e-05, No Iterations 5
nonePBiCGStab:  Solving for Uy, Initial residual = 0.0291415, Final residual = 2.88145e-05, No Iterations 5
nonePBiCGStab:  Solving for Uz, Initial residual = 0.0535818, Final residual = 0.000147055, No Iterations 5
linear solve U 9
[OGL LOG] init_host_sparsity_pattern : 7 ms
[OGL LOG] matrix not stored update host matrix
[OGL LOG] update_host_mtx : 3 ms
[OGL LOG] matrix is not yet sorted, sorting host matrix
[OGL LOG] sort_host_mtx_sparsity_pattern : 4 ms
[OGL LOG] sort_host_mtx : 2 ms
[OGL LOG] init_preconditioner : 0 ms
[OGL LOG] solve : 14 ms
BJcudaGKOBiCGStab:  Solving for p, Initial residual = 0.0197851, Final residual = 9.82445e-05, No Iterations 48
linear solve p 35
time step continuity errors : sum local = 9.16326e-08, global = 3.81939e-20, cumulative = 7.62437e-20
[OGL LOG] init_host_sparsity_pattern : 7 ms
[OGL LOG] matrix not stored update host matrix
[OGL LOG] update_host_mtx : 3 ms
[OGL LOG] matrix is not yet sorted, sorting host matrix
[OGL LOG] sort_host_mtx_sparsity_pattern : 5 ms
[OGL LOG] sort_host_mtx : 2 ms
[OGL LOG] init_preconditioner : 0 ms
[OGL LOG] solve : 13 ms
BJcudaGKOBiCGStab:  Solving for p, Initial residual = 0.0148773, Final residual = 5.94874e-05, No Iterations 42
linear solve p 33
time step continuity errors : sum local = 6.9512e-08, global = -5.58399e-21, cumulative = 7.06598e-20
ExecutionTime = 1.89 s  ClockTime = 2 s

Time = 0.008

Courant Number mean: 0.0393458 max: 0.25136
nonePBiCGStab:  Solving for Ux, Initial residual = 0.0151621, Final residual = 1.27517e-05, No Iterations 5
nonePBiCGStab:  Solving for Uy, Initial residual = 0.0239818, Final residual = 1.9188e-05, No Iterations 5
nonePBiCGStab:  Solving for Uz, Initial residual = 0.0451889, Final residual = 9.48767e-05, No Iterations 5
linear solve U 10
[OGL LOG] init_host_sparsity_pattern : 7 ms
[OGL LOG] matrix not stored update host matrix
[OGL LOG] update_host_mtx : 3 ms
[OGL LOG] matrix is not yet sorted, sorting host matrix
[OGL LOG] sort_host_mtx_sparsity_pattern : 4 ms
[OGL LOG] sort_host_mtx : 2 ms
[OGL LOG] init_preconditioner : 0 ms
[OGL LOG] solve : 15 ms
BJcudaGKOBiCGStab:  Solving for p, Initial residual = 0.0159349, Final residual = 9.38403e-05, No Iterations 49
linear solve p 35
time step continuity errors : sum local = 8.58644e-08, global = -7.67603e-21, cumulative = 6.29837e-20
[OGL LOG] init_host_sparsity_pattern : 7 ms
[OGL LOG] matrix not stored update host matrix
[OGL LOG] update_host_mtx : 3 ms
[OGL LOG] matrix is not yet sorted, sorting host matrix
[OGL LOG] sort_host_mtx_sparsity_pattern : 4 ms
[OGL LOG] sort_host_mtx : 2 ms
[OGL LOG] init_preconditioner : 0 ms
[OGL LOG] solve : 14 ms
BJcudaGKOBiCGStab:  Solving for p, Initial residual = 0.012078, Final residual = 9.10485e-05, No Iterations 45
linear solve p 34
time step continuity errors : sum local = 9.01331e-08, global = -5.51926e-21, cumulative = 5.74645e-20
ExecutionTime = 1.99 s  ClockTime = 2 s

Time = 0.009

Courant Number mean: 0.0409904 max: 0.253798
nonePBiCGStab:  Solving for Ux, Initial residual = 0.0126932, Final residual = 8.4231e-06, No Iterations 5
nonePBiCGStab:  Solving for Uy, Initial residual = 0.0202371, Final residual = 1.35827e-05, No Iterations 5
nonePBiCGStab:  Solving for Uz, Initial residual = 0.0387988, Final residual = 7.22364e-05, No Iterations 5
linear solve U 9
[OGL LOG] init_host_sparsity_pattern : 7 ms
[OGL LOG] matrix not stored update host matrix
[OGL LOG] update_host_mtx : 3 ms
[OGL LOG] matrix is not yet sorted, sorting host matrix
[OGL LOG] sort_host_mtx_sparsity_pattern : 5 ms
[OGL LOG] sort_host_mtx : 2 ms
[OGL LOG] init_preconditioner : 0 ms
[OGL LOG] solve : 13 ms
BJcudaGKOBiCGStab:  Solving for p, Initial residual = 0.0133472, Final residual = 9.47469e-05, No Iterations 43
linear solve p 34
time step continuity errors : sum local = 8.66544e-08, global = -3.28589e-20, cumulative = 2.46056e-20
[OGL LOG] init_host_sparsity_pattern : 7 ms
[OGL LOG] matrix not stored update host matrix
[OGL LOG] update_host_mtx : 3 ms
[OGL LOG] matrix is not yet sorted, sorting host matrix
[OGL LOG] sort_host_mtx_sparsity_pattern : 4 ms
[OGL LOG] sort_host_mtx : 2 ms
[OGL LOG] init_preconditioner : 0 ms
[OGL LOG] solve : 14 ms
BJcudaGKOBiCGStab:  Solving for p, Initial residual = 0.0101427, Final residual = 8.69878e-05, No Iterations 48
linear solve p 35
time step continuity errors : sum local = 8.47328e-08, global = -9.56024e-21, cumulative = 1.50454e-20
ExecutionTime = 2.08 s  ClockTime = 2 s

Time = 0.01

Courant Number mean: 0.0424254 max: 0.255737
nonePBiCGStab:  Solving for Ux, Initial residual = 0.0108104, Final residual = 5.94582e-06, No Iterations 5
nonePBiCGStab:  Solving for Uy, Initial residual = 0.0173601, Final residual = 1.00096e-05, No Iterations 5
nonePBiCGStab:  Solving for Uz, Initial residual = 0.0336529, Final residual = 5.30157e-05, No Iterations 5
linear solve U 10
[OGL LOG] init_host_sparsity_pattern : 6 ms
[OGL LOG] matrix not stored update host matrix
[OGL LOG] update_host_mtx : 4 ms
[OGL LOG] matrix is not yet sorted, sorting host matrix
[OGL LOG] sort_host_mtx_sparsity_pattern : 5 ms
[OGL LOG] sort_host_mtx : 2 ms
[OGL LOG] init_preconditioner : 0 ms
[OGL LOG] solve : 14 ms
BJcudaGKOBiCGStab:  Solving for p, Initial residual = 0.011292, Final residual = 8.90128e-05, No Iterations 44
linear solve p 36
time step continuity errors : sum local = 8.04385e-08, global = -7.0831e-21, cumulative = 7.96226e-21
[OGL LOG] init_host_sparsity_pattern : 7 ms
[OGL LOG] matrix not stored update host matrix
[OGL LOG] update_host_mtx : 3 ms
[OGL LOG] matrix is not yet sorted, sorting host matrix
[OGL LOG] sort_host_mtx_sparsity_pattern : 4 ms
[OGL LOG] sort_host_mtx : 2 ms
[OGL LOG] init_preconditioner : 0 ms
[OGL LOG] solve : 13 ms
BJcudaGKOBiCGStab:  Solving for p, Initial residual = 0.0085678, Final residual = 9.42082e-05, No Iterations 43
linear solve p 33
time step continuity errors : sum local = 8.7853e-08, global = -2.4425e-20, cumulative = -1.64628e-20
ExecutionTime = 2.17 s  ClockTime = 2 s

End

