/*---------------------------------------------------------------------------*\
  =========                 |
  \\      /  F ield         | OpenFOAM: The Open Source CFD Toolbox
   \\    /   O peration     | Website:  https://openfoam.org
    \\  /    A nd           | Version:  8
     \\/     M anipulation  |
\*---------------------------------------------------------------------------*/
Build  : 8-40a5a48f630f
Exec   : icoFoam
Date   : Jul 27 2021
Time   : 22:02:34
Host   : "uc2n481.localdomain"
PID    : 117431
I/O    : uncollated
Case   : /pfs/data5/home/kit/scc/nq7776/code/OBR/lidDrivenCavity3D/Variation_mesh/25/Variation_matrix_solver/IR_NoPrecond_CUDA/base
nProcs : 1
sigFpe : Enabling floating point exception trapping (FOAM_SIGFPE).
fileModificationChecking : Monitoring run-time modified files using timeStampMaster (fileModificationSkew 10)
allowSystemOperations : Allowing user-supplied system call operations

// * * * * * * * * * * * * * * * * * * * * * * * * * * * * * * * * * * * * * //
Create time

Create mesh for time = 0

Reading transportProperties

Reading field p

Reading field U

Reading/calculating face flux field phi


Starting time loop

Time = 0.001

Courant Number mean: 0 max: 0
nonePBiCGStab:  Solving for Ux, Initial residual = 1, Final residual = 0.00310183, No Iterations 5
nonePBiCGStab:  Solving for Uy, Initial residual = 0, Final residual = 0, No Iterations 0
nonePBiCGStab:  Solving for Uz, Initial residual = 0, Final residual = 0, No Iterations 0
linear solve U 2
[OGL LOG] init_host_sparsity_pattern : 4 ms
[OGL LOG] matrix not stored update host matrix
[OGL LOG] update_host_mtx : 2 ms
[OGL LOG] matrix is not yet sorted, compute sorting idxs
[OGL LOG] compute_sort : 106 ms
[OGL LOG] matrix is not yet sorted, sorting host matrix
[OGL LOG] sort_host_mtx_sparsity_pattern : 2 ms
[OGL LOG] sort_host_mtx : 1 ms
[OGL LOG] init_preconditioner : 0 ms
[OGL LOG] solve : 31 ms
nonecudaGKOIR:  Solving for p, Initial residual = 1, Final residual = 6.92113e-06, No Iterations 3
linear solve p 920
time step continuity errors : sum local = 3.55664e-09, global = -1.67092e-20, cumulative = -1.67092e-20
[OGL LOG] init_host_sparsity_pattern : 4 ms
[OGL LOG] matrix not stored update host matrix
[OGL LOG] update_host_mtx : 2 ms
[OGL LOG] matrix is not yet sorted, sorting host matrix
[OGL LOG] sort_host_mtx_sparsity_pattern : 3 ms
[OGL LOG] sort_host_mtx : 1 ms
[OGL LOG] init_preconditioner : 0 ms
[OGL LOG] solve : 31 ms
nonecudaGKOIR:  Solving for p, Initial residual = 0.480543, Final residual = 2.00689e-06, No Iterations 3
linear solve p 44
time step continuity errors : sum local = 1.66492e-09, global = 2.34852e-21, cumulative = -1.43607e-20
ExecutionTime = 1.05 s  ClockTime = 1 s

Time = 0.002

Courant Number mean: 0.01197 max: 0.106554
nonePBiCGStab:  Solving for Ux, Initial residual = 0.210695, Final residual = 0.000695049, No Iterations 5
nonePBiCGStab:  Solving for Uy, Initial residual = 0.284647, Final residual = 0.000644155, No Iterations 5
nonePBiCGStab:  Solving for Uz, Initial residual = 0.890259, Final residual = 0.00332685, No Iterations 5
linear solve U 5
[OGL LOG] init_host_sparsity_pattern : 4 ms
[OGL LOG] matrix not stored update host matrix
[OGL LOG] update_host_mtx : 2 ms
[OGL LOG] matrix is not yet sorted, sorting host matrix
[OGL LOG] sort_host_mtx_sparsity_pattern : 3 ms
[OGL LOG] sort_host_mtx : 1 ms
[OGL LOG] init_preconditioner : 0 ms
[OGL LOG] solve : 24 ms
nonecudaGKOIR:  Solving for p, Initial residual = 0.285779, Final residual = 7.06735e-05, No Iterations 2
linear solve p 36
time step continuity errors : sum local = 5.48077e-08, global = 1.40122e-20, cumulative = -3.48556e-22
[OGL LOG] init_host_sparsity_pattern : 4 ms
[OGL LOG] matrix not stored update host matrix
[OGL LOG] update_host_mtx : 2 ms
[OGL LOG] matrix is not yet sorted, sorting host matrix
[OGL LOG] sort_host_mtx_sparsity_pattern : 2 ms
[OGL LOG] sort_host_mtx : 1 ms
[OGL LOG] init_preconditioner : 0 ms
[OGL LOG] solve : 24 ms
nonecudaGKOIR:  Solving for p, Initial residual = 0.189099, Final residual = 4.14659e-05, No Iterations 2
linear solve p 36
time step continuity errors : sum local = 3.41232e-08, global = -5.85199e-21, cumulative = -6.20055e-21
ExecutionTime = 1.13 s  ClockTime = 1 s

Time = 0.003

Courant Number mean: 0.0188463 max: 0.153562
nonePBiCGStab:  Solving for Ux, Initial residual = 0.0901261, Final residual = 0.00029237, No Iterations 5
nonePBiCGStab:  Solving for Uy, Initial residual = 0.124554, Final residual = 0.000198161, No Iterations 5
nonePBiCGStab:  Solving for Uz, Initial residual = 0.252014, Final residual = 0.000636831, No Iterations 5
linear solve U 5
[OGL LOG] init_host_sparsity_pattern : 4 ms
[OGL LOG] matrix not stored update host matrix
[OGL LOG] update_host_mtx : 2 ms
[OGL LOG] matrix is not yet sorted, sorting host matrix
[OGL LOG] sort_host_mtx_sparsity_pattern : 2 ms
[OGL LOG] sort_host_mtx : 1 ms
[OGL LOG] init_preconditioner : 0 ms
[OGL LOG] solve : 24 ms
nonecudaGKOIR:  Solving for p, Initial residual = 0.10199, Final residual = 2.28071e-05, No Iterations 2
linear solve p 36
time step continuity errors : sum local = 1.76478e-08, global = -1.29736e-20, cumulative = -1.91742e-20
[OGL LOG] init_host_sparsity_pattern : 4 ms
[OGL LOG] matrix not stored update host matrix
[OGL LOG] update_host_mtx : 2 ms
[OGL LOG] matrix is not yet sorted, sorting host matrix
[OGL LOG] sort_host_mtx_sparsity_pattern : 2 ms
[OGL LOG] sort_host_mtx : 1 ms
[OGL LOG] init_preconditioner : 0 ms
[OGL LOG] solve : 27 ms
nonecudaGKOIR:  Solving for p, Initial residual = 0.069481, Final residual = 1.23297e-05, No Iterations 2
linear solve p 40
time step continuity errors : sum local = 9.82605e-09, global = 3.9611e-22, cumulative = -1.87781e-20
ExecutionTime = 1.22 s  ClockTime = 1 s

Time = 0.004

Courant Number mean: 0.0233147 max: 0.175119
nonePBiCGStab:  Solving for Ux, Initial residual = 0.0520914, Final residual = 0.000102881, No Iterations 5
nonePBiCGStab:  Solving for Uy, Initial residual = 0.0743209, Final residual = 6.93005e-05, No Iterations 5
nonePBiCGStab:  Solving for Uz, Initial residual = 0.129913, Final residual = 0.000217718, No Iterations 5
linear solve U 5
[OGL LOG] init_host_sparsity_pattern : 4 ms
[OGL LOG] matrix not stored update host matrix
[OGL LOG] update_host_mtx : 2 ms
[OGL LOG] matrix is not yet sorted, sorting host matrix
[OGL LOG] sort_host_mtx_sparsity_pattern : 3 ms
[OGL LOG] sort_host_mtx : 1 ms
[OGL LOG] init_preconditioner : 0 ms
[OGL LOG] solve : 25 ms
nonecudaGKOIR:  Solving for p, Initial residual = 0.055154, Final residual = 1.16551e-05, No Iterations 2
linear solve p 38
time step continuity errors : sum local = 9.27595e-09, global = 1.78964e-20, cumulative = -8.8169e-22
[OGL LOG] init_host_sparsity_pattern : 4 ms
[OGL LOG] matrix not stored update host matrix
[OGL LOG] update_host_mtx : 2 ms
[OGL LOG] matrix is not yet sorted, sorting host matrix
[OGL LOG] sort_host_mtx_sparsity_pattern : 2 ms
[OGL LOG] sort_host_mtx : 1 ms
[OGL LOG] init_preconditioner : 0 ms
[OGL LOG] solve : 24 ms
nonecudaGKOIR:  Solving for p, Initial residual = 0.0370102, Final residual = 7.14497e-06, No Iterations 2
linear solve p 36
time step continuity errors : sum local = 5.80293e-09, global = 1.76939e-20, cumulative = 1.68122e-20
ExecutionTime = 1.31 s  ClockTime = 1 s

Time = 0.005

Courant Number mean: 0.026494 max: 0.186504
nonePBiCGStab:  Solving for Ux, Initial residual = 0.0351742, Final residual = 3.75596e-05, No Iterations 5
nonePBiCGStab:  Solving for Uy, Initial residual = 0.0507728, Final residual = 2.20247e-05, No Iterations 5
nonePBiCGStab:  Solving for Uz, Initial residual = 0.0912484, Final residual = 0.000116128, No Iterations 5
linear solve U 5
[OGL LOG] init_host_sparsity_pattern : 4 ms
[OGL LOG] matrix not stored update host matrix
[OGL LOG] update_host_mtx : 2 ms
[OGL LOG] matrix is not yet sorted, sorting host matrix
[OGL LOG] sort_host_mtx_sparsity_pattern : 2 ms
[OGL LOG] sort_host_mtx : 1 ms
[OGL LOG] init_preconditioner : 0 ms
[OGL LOG] solve : 24 ms
nonecudaGKOIR:  Solving for p, Initial residual = 0.0348547, Final residual = 7.61837e-06, No Iterations 2
linear solve p 37
time step continuity errors : sum local = 6.22279e-09, global = -5.01343e-21, cumulative = 1.17988e-20
[OGL LOG] init_host_sparsity_pattern : 4 ms
[OGL LOG] matrix not stored update host matrix
[OGL LOG] update_host_mtx : 2 ms
[OGL LOG] matrix is not yet sorted, sorting host matrix
[OGL LOG] sort_host_mtx_sparsity_pattern : 2 ms
[OGL LOG] sort_host_mtx : 1 ms
[OGL LOG] init_preconditioner : 0 ms
[OGL LOG] solve : 24 ms
nonecudaGKOIR:  Solving for p, Initial residual = 0.0230704, Final residual = 4.6386e-06, No Iterations 2
linear solve p 36
time step continuity errors : sum local = 3.83683e-09, global = -3.88767e-20, cumulative = -2.70779e-20
ExecutionTime = 1.39 s  ClockTime = 1 s

Time = 0.006

Courant Number mean: 0.0288956 max: 0.193336
nonePBiCGStab:  Solving for Ux, Initial residual = 0.0259749, Final residual = 1.33391e-05, No Iterations 5
nonePBiCGStab:  Solving for Uy, Initial residual = 0.0379615, Final residual = 1.54344e-05, No Iterations 5
nonePBiCGStab:  Solving for Uz, Initial residual = 0.0706138, Final residual = 6.83975e-05, No Iterations 5
linear solve U 5
[OGL LOG] init_host_sparsity_pattern : 4 ms
[OGL LOG] matrix not stored update host matrix
[OGL LOG] update_host_mtx : 2 ms
[OGL LOG] matrix is not yet sorted, sorting host matrix
[OGL LOG] sort_host_mtx_sparsity_pattern : 2 ms
[OGL LOG] sort_host_mtx : 1 ms
[OGL LOG] init_preconditioner : 0 ms
[OGL LOG] solve : 24 ms
nonecudaGKOIR:  Solving for p, Initial residual = 0.0243507, Final residual = 5.6835e-06, No Iterations 2
linear solve p 36
time step continuity errors : sum local = 4.72503e-09, global = -4.25144e-20, cumulative = -6.95923e-20
[OGL LOG] init_host_sparsity_pattern : 4 ms
[OGL LOG] matrix not stored update host matrix
[OGL LOG] update_host_mtx : 2 ms
[OGL LOG] matrix is not yet sorted, sorting host matrix
[OGL LOG] sort_host_mtx_sparsity_pattern : 3 ms
[OGL LOG] sort_host_mtx : 1 ms
[OGL LOG] init_preconditioner : 0 ms
[OGL LOG] solve : 24 ms
nonecudaGKOIR:  Solving for p, Initial residual = 0.0162819, Final residual = 3.09776e-06, No Iterations 2
linear solve p 37
time step continuity errors : sum local = 2.59608e-09, global = -8.98364e-21, cumulative = -7.85759e-20
ExecutionTime = 1.48 s  ClockTime = 1 s

Time = 0.007

Courant Number mean: 0.0308312 max: 0.197891
nonePBiCGStab:  Solving for Ux, Initial residual = 0.0203869, Final residual = 6.61638e-06, No Iterations 5
nonePBiCGStab:  Solving for Uy, Initial residual = 0.0299954, Final residual = 9.37402e-06, No Iterations 5
nonePBiCGStab:  Solving for Uz, Initial residual = 0.0572827, Final residual = 4.10432e-05, No Iterations 5
linear solve U 5
[OGL LOG] init_host_sparsity_pattern : 4 ms
[OGL LOG] matrix not stored update host matrix
[OGL LOG] update_host_mtx : 2 ms
[OGL LOG] matrix is not yet sorted, sorting host matrix
[OGL LOG] sort_host_mtx_sparsity_pattern : 2 ms
[OGL LOG] sort_host_mtx : 1 ms
[OGL LOG] init_preconditioner : 0 ms
[OGL LOG] solve : 24 ms
nonecudaGKOIR:  Solving for p, Initial residual = 0.0185739, Final residual = 3.68296e-06, No Iterations 2
linear solve p 37
time step continuity errors : sum local = 3.0993e-09, global = -5.1957e-21, cumulative = -8.37716e-20
[OGL LOG] init_host_sparsity_pattern : 4 ms
[OGL LOG] matrix not stored update host matrix
[OGL LOG] update_host_mtx : 2 ms
[OGL LOG] matrix is not yet sorted, sorting host matrix
[OGL LOG] sort_host_mtx_sparsity_pattern : 2 ms
[OGL LOG] sort_host_mtx : 1 ms
[OGL LOG] init_preconditioner : 0 ms
[OGL LOG] solve : 25 ms
nonecudaGKOIR:  Solving for p, Initial residual = 0.0125375, Final residual = 2.33992e-06, No Iterations 2
linear solve p 37
time step continuity errors : sum local = 1.97967e-09, global = -1.81104e-20, cumulative = -1.01882e-19
ExecutionTime = 1.57 s  ClockTime = 2 s

Time = 0.008

Courant Number mean: 0.0324767 max: 0.201172
nonePBiCGStab:  Solving for Ux, Initial residual = 0.0165496, Final residual = 4.64236e-06, No Iterations 5
nonePBiCGStab:  Solving for Uy, Initial residual = 0.024583, Final residual = 5.79084e-06, No Iterations 5
nonePBiCGStab:  Solving for Uz, Initial residual = 0.0478291, Final residual = 2.87099e-05, No Iterations 5
linear solve U 5
[OGL LOG] init_host_sparsity_pattern : 4 ms
[OGL LOG] matrix not stored update host matrix
[OGL LOG] update_host_mtx : 2 ms
[OGL LOG] matrix is not yet sorted, sorting host matrix
[OGL LOG] sort_host_mtx_sparsity_pattern : 2 ms
[OGL LOG] sort_host_mtx : 1 ms
[OGL LOG] init_preconditioner : 0 ms
[OGL LOG] solve : 25 ms
nonecudaGKOIR:  Solving for p, Initial residual = 0.0148428, Final residual = 3.10848e-06, No Iterations 2
linear solve p 37
time step continuity errors : sum local = 2.63953e-09, global = 9.08764e-20, cumulative = -1.10056e-20
[OGL LOG] init_host_sparsity_pattern : 4 ms
[OGL LOG] matrix not stored update host matrix
[OGL LOG] update_host_mtx : 2 ms
[OGL LOG] matrix is not yet sorted, sorting host matrix
[OGL LOG] sort_host_mtx_sparsity_pattern : 2 ms
[OGL LOG] sort_host_mtx : 1 ms
[OGL LOG] init_preconditioner : 0 ms
[OGL LOG] solve : 25 ms
nonecudaGKOIR:  Solving for p, Initial residual = 0.0100802, Final residual = 1.4766e-06, No Iterations 2
linear solve p 37
time step continuity errors : sum local = 1.25901e-09, global = -6.83679e-21, cumulative = -1.78424e-20
ExecutionTime = 1.66 s  ClockTime = 2 s

Time = 0.009

Courant Number mean: 0.0338809 max: 0.203668
nonePBiCGStab:  Solving for Ux, Initial residual = 0.0138083, Final residual = 2.89063e-06, No Iterations 5
nonePBiCGStab:  Solving for Uy, Initial residual = 0.0206621, Final residual = 3.70425e-06, No Iterations 5
nonePBiCGStab:  Solving for Uz, Initial residual = 0.0407538, Final residual = 2.14148e-05, No Iterations 5
linear solve U 5
[OGL LOG] init_host_sparsity_pattern : 4 ms
[OGL LOG] matrix not stored update host matrix
[OGL LOG] update_host_mtx : 2 ms
[OGL LOG] matrix is not yet sorted, sorting host matrix
[OGL LOG] sort_host_mtx_sparsity_pattern : 2 ms
[OGL LOG] sort_host_mtx : 1 ms
[OGL LOG] init_preconditioner : 0 ms
[OGL LOG] solve : 25 ms
nonecudaGKOIR:  Solving for p, Initial residual = 0.0122992, Final residual = 2.27377e-06, No Iterations 2
linear solve p 37
time step continuity errors : sum local = 1.94484e-09, global = 8.60732e-21, cumulative = -9.23506e-21
[OGL LOG] init_host_sparsity_pattern : 4 ms
[OGL LOG] matrix not stored update host matrix
[OGL LOG] update_host_mtx : 2 ms
[OGL LOG] matrix is not yet sorted, sorting host matrix
[OGL LOG] sort_host_mtx_sparsity_pattern : 2 ms
[OGL LOG] sort_host_mtx : 1 ms
[OGL LOG] init_preconditioner : 0 ms
[OGL LOG] solve : 25 ms
nonecudaGKOIR:  Solving for p, Initial residual = 0.00839947, Final residual = 1.43632e-06, No Iterations 2
linear solve p 37
time step continuity errors : sum local = 1.2323e-09, global = -3.44081e-21, cumulative = -1.26759e-20
ExecutionTime = 1.75 s  ClockTime = 2 s

Time = 0.01

Courant Number mean: 0.0350921 max: 0.205643
nonePBiCGStab:  Solving for Ux, Initial residual = 0.0117402, Final residual = 1.939e-06, No Iterations 5
nonePBiCGStab:  Solving for Uy, Initial residual = 0.0176872, Final residual = 2.61079e-06, No Iterations 5
nonePBiCGStab:  Solving for Uz, Initial residual = 0.0352493, Final residual = 1.56414e-05, No Iterations 5
linear solve U 5
[OGL LOG] init_host_sparsity_pattern : 4 ms
[OGL LOG] matrix not stored update host matrix
[OGL LOG] update_host_mtx : 2 ms
[OGL LOG] matrix is not yet sorted, sorting host matrix
[OGL LOG] sort_host_mtx_sparsity_pattern : 2 ms
[OGL LOG] sort_host_mtx : 1 ms
[OGL LOG] init_preconditioner : 0 ms
[OGL LOG] solve : 25 ms
nonecudaGKOIR:  Solving for p, Initial residual = 0.0103829, Final residual = 1.76639e-06, No Iterations 2
linear solve p 37
time step continuity errors : sum local = 1.51973e-09, global = 2.13599e-20, cumulative = 8.68408e-21
[OGL LOG] init_host_sparsity_pattern : 4 ms
[OGL LOG] matrix not stored update host matrix
[OGL LOG] update_host_mtx : 2 ms
[OGL LOG] matrix is not yet sorted, sorting host matrix
[OGL LOG] sort_host_mtx_sparsity_pattern : 2 ms
[OGL LOG] sort_host_mtx : 1 ms
[OGL LOG] init_preconditioner : 0 ms
[OGL LOG] solve : 25 ms
nonecudaGKOIR:  Solving for p, Initial residual = 0.00712506, Final residual = 9.31135e-07, No Iterations 2
linear solve p 37
time step continuity errors : sum local = 8.03055e-10, global = 8.10416e-21, cumulative = 1.67882e-20
ExecutionTime = 1.83 s  ClockTime = 2 s

End

