/*---------------------------------------------------------------------------*\
  =========                 |
  \\      /  F ield         | OpenFOAM: The Open Source CFD Toolbox
   \\    /   O peration     | Website:  https://openfoam.org
    \\  /    A nd           | Version:  8
     \\/     M anipulation  |
\*---------------------------------------------------------------------------*/
Build  : 8-40a5a48f630f
Exec   : icoFoam
Date   : Jul 27 2021
Time   : 21:36:46
Host   : "uc2n481.localdomain"
PID    : 93616
I/O    : uncollated
Case   : /pfs/data5/home/kit/scc/nq7776/code/OBR/lidDrivenCavity3D/Variation_mesh/15/Variation_matrix_solver/BiCGStab_NoPrecond_CUDA/base
nProcs : 1
sigFpe : Enabling floating point exception trapping (FOAM_SIGFPE).
fileModificationChecking : Monitoring run-time modified files using timeStampMaster (fileModificationSkew 10)
allowSystemOperations : Allowing user-supplied system call operations

// * * * * * * * * * * * * * * * * * * * * * * * * * * * * * * * * * * * * * //
Create time

Create mesh for time = 0

Reading transportProperties

Reading field p

Reading field U

Reading/calculating face flux field phi


Starting time loop

Time = 0.001

Courant Number mean: 0 max: 0
nonePBiCGStab:  Solving for Ux, Initial residual = 1, Final residual = 7.02612e-05, No Iterations 5
nonePBiCGStab:  Solving for Uy, Initial residual = 0, Final residual = 0, No Iterations 0
nonePBiCGStab:  Solving for Uz, Initial residual = 0, Final residual = 0, No Iterations 0
linear solve U 0
[OGL LOG] init_host_sparsity_pattern : 0 ms
[OGL LOG] matrix not stored update host matrix
[OGL LOG] update_host_mtx : 0 ms
[OGL LOG] matrix is not yet sorted, compute sorting idxs
[OGL LOG] compute_sort : 20 ms
[OGL LOG] matrix is not yet sorted, sorting host matrix
[OGL LOG] sort_host_mtx_sparsity_pattern : 0 ms
[OGL LOG] sort_host_mtx : 0 ms
[OGL LOG] init_preconditioner : 0 ms
[OGL LOG] solve : 28 ms
nonecudaGKOBiCGStab:  Solving for p, Initial residual = 1, Final residual = 8.38293e-05, No Iterations 96
linear solve p 810
time step continuity errors : sum local = 7.04127e-08, global = 1.12861e-20, cumulative = 1.12861e-20
[OGL LOG] init_host_sparsity_pattern : 0 ms
[OGL LOG] matrix not stored update host matrix
[OGL LOG] update_host_mtx : 0 ms
[OGL LOG] matrix is not yet sorted, sorting host matrix
[OGL LOG] sort_host_mtx_sparsity_pattern : 0 ms
[OGL LOG] sort_host_mtx : 0 ms
[OGL LOG] init_preconditioner : 0 ms
[OGL LOG] solve : 25 ms
nonecudaGKOBiCGStab:  Solving for p, Initial residual = 0.316888, Final residual = 5.2812e-05, No Iterations 88
linear solve p 28
time step continuity errors : sum local = 7.75686e-08, global = -5.64799e-21, cumulative = 5.63806e-21
ExecutionTime = 0.87 s  ClockTime = 1 s

Time = 0.002

Courant Number mean: 0.00559459 max: 0.0357001
nonePBiCGStab:  Solving for Ux, Initial residual = 0.242431, Final residual = 1.2507e-05, No Iterations 5
nonePBiCGStab:  Solving for Uy, Initial residual = 0.296176, Final residual = 8.52902e-06, No Iterations 5
nonePBiCGStab:  Solving for Uz, Initial residual = 0.683775, Final residual = 3.78402e-05, No Iterations 5
linear solve U 1
[OGL LOG] init_host_sparsity_pattern : 0 ms
[OGL LOG] matrix not stored update host matrix
[OGL LOG] update_host_mtx : 0 ms
[OGL LOG] matrix is not yet sorted, sorting host matrix
[OGL LOG] sort_host_mtx_sparsity_pattern : 0 ms
[OGL LOG] sort_host_mtx : 0 ms
[OGL LOG] init_preconditioner : 0 ms
[OGL LOG] solve : 24 ms
nonecudaGKOBiCGStab:  Solving for p, Initial residual = 0.157016, Final residual = 5.21365e-05, No Iterations 83
linear solve p 27
time step continuity errors : sum local = 7.47655e-08, global = 1.47846e-20, cumulative = 2.04227e-20
[OGL LOG] init_host_sparsity_pattern : 0 ms
[OGL LOG] matrix not stored update host matrix
[OGL LOG] update_host_mtx : 0 ms
[OGL LOG] matrix is not yet sorted, sorting host matrix
[OGL LOG] sort_host_mtx_sparsity_pattern : 0 ms
[OGL LOG] sort_host_mtx : 0 ms
[OGL LOG] init_preconditioner : 0 ms
[OGL LOG] solve : 20 ms
nonecudaGKOBiCGStab:  Solving for p, Initial residual = 0.0605927, Final residual = 9.82173e-05, No Iterations 70
linear solve p 23
time step continuity errors : sum local = 1.53238e-07, global = 1.50022e-20, cumulative = 3.54248e-20
ExecutionTime = 0.92 s  ClockTime = 1 s

Time = 0.003

Courant Number mean: 0.00940316 max: 0.05873
nonePBiCGStab:  Solving for Ux, Initial residual = 0.117913, Final residual = 4.35611e-06, No Iterations 5
nonePBiCGStab:  Solving for Uy, Initial residual = 0.148816, Final residual = 3.24775e-06, No Iterations 5
nonePBiCGStab:  Solving for Uz, Initial residual = 0.328773, Final residual = 1.0852e-05, No Iterations 5
linear solve U 1
[OGL LOG] init_host_sparsity_pattern : 0 ms
[OGL LOG] matrix not stored update host matrix
[OGL LOG] update_host_mtx : 0 ms
[OGL LOG] matrix is not yet sorted, sorting host matrix
[OGL LOG] sort_host_mtx_sparsity_pattern : 0 ms
[OGL LOG] sort_host_mtx : 0 ms
[OGL LOG] init_preconditioner : 0 ms
[OGL LOG] solve : 13 ms
nonecudaGKOBiCGStab:  Solving for p, Initial residual = 0.0761354, Final residual = 9.21074e-05, No Iterations 44
linear solve p 16
time step continuity errors : sum local = 1.18046e-07, global = 1.91426e-20, cumulative = 5.45674e-20
[OGL LOG] init_host_sparsity_pattern : 0 ms
[OGL LOG] matrix not stored update host matrix
[OGL LOG] update_host_mtx : 0 ms
[OGL LOG] matrix is not yet sorted, sorting host matrix
[OGL LOG] sort_host_mtx_sparsity_pattern : 0 ms
[OGL LOG] sort_host_mtx : 0 ms
[OGL LOG] init_preconditioner : 0 ms
[OGL LOG] solve : 10 ms
nonecudaGKOBiCGStab:  Solving for p, Initial residual = 0.0342024, Final residual = 9.98275e-05, No Iterations 34
linear solve p 13
time step continuity errors : sum local = 1.03143e-07, global = -1.45369e-20, cumulative = 4.00306e-20
ExecutionTime = 0.96 s  ClockTime = 1 s

Time = 0.004

Courant Number mean: 0.0121904 max: 0.073727
nonePBiCGStab:  Solving for Ux, Initial residual = 0.072331, Final residual = 2.50694e-06, No Iterations 5
nonePBiCGStab:  Solving for Uy, Initial residual = 0.0916585, Final residual = 1.3394e-06, No Iterations 5
nonePBiCGStab:  Solving for Uz, Initial residual = 0.183744, Final residual = 5.27094e-06, No Iterations 5
linear solve U 1
[OGL LOG] init_host_sparsity_pattern : 0 ms
[OGL LOG] matrix not stored update host matrix
[OGL LOG] update_host_mtx : 0 ms
[OGL LOG] matrix is not yet sorted, sorting host matrix
[OGL LOG] sort_host_mtx_sparsity_pattern : 0 ms
[OGL LOG] sort_host_mtx : 0 ms
[OGL LOG] init_preconditioner : 0 ms
[OGL LOG] solve : 22 ms
nonecudaGKOBiCGStab:  Solving for p, Initial residual = 0.0492993, Final residual = 8.3488e-05, No Iterations 75
linear solve p 25
time step continuity errors : sum local = 1.42423e-07, global = -2.4631e-20, cumulative = 1.53996e-20
[OGL LOG] init_host_sparsity_pattern : 0 ms
[OGL LOG] matrix not stored update host matrix
[OGL LOG] update_host_mtx : 0 ms
[OGL LOG] matrix is not yet sorted, sorting host matrix
[OGL LOG] sort_host_mtx_sparsity_pattern : 0 ms
[OGL LOG] sort_host_mtx : 0 ms
[OGL LOG] init_preconditioner : 0 ms
[OGL LOG] solve : 9 ms
nonecudaGKOBiCGStab:  Solving for p, Initial residual = 0.0221592, Final residual = 9.76626e-05, No Iterations 31
linear solve p 12
time step continuity errors : sum local = 9.70406e-08, global = 1.32361e-20, cumulative = 2.86358e-20
ExecutionTime = 0.99 s  ClockTime = 1 s

Time = 0.005

Courant Number mean: 0.014306 max: 0.0838051
nonePBiCGStab:  Solving for Ux, Initial residual = 0.0485558, Final residual = 1.20799e-06, No Iterations 5
nonePBiCGStab:  Solving for Uy, Initial residual = 0.0627508, Final residual = 5.64157e-07, No Iterations 5
nonePBiCGStab:  Solving for Uz, Initial residual = 0.129638, Final residual = 3.21425e-06, No Iterations 5
linear solve U 1
[OGL LOG] init_host_sparsity_pattern : 0 ms
[OGL LOG] matrix not stored update host matrix
[OGL LOG] update_host_mtx : 0 ms
[OGL LOG] matrix is not yet sorted, sorting host matrix
[OGL LOG] sort_host_mtx_sparsity_pattern : 0 ms
[OGL LOG] sort_host_mtx : 0 ms
[OGL LOG] init_preconditioner : 0 ms
[OGL LOG] solve : 20 ms
nonecudaGKOBiCGStab:  Solving for p, Initial residual = 0.0359842, Final residual = 9.87455e-05, No Iterations 68
linear solve p 22
time step continuity errors : sum local = 1.75154e-07, global = -2.51728e-20, cumulative = 3.46299e-21
[OGL LOG] init_host_sparsity_pattern : 0 ms
[OGL LOG] matrix not stored update host matrix
[OGL LOG] update_host_mtx : 0 ms
[OGL LOG] matrix is not yet sorted, sorting host matrix
[OGL LOG] sort_host_mtx_sparsity_pattern : 0 ms
[OGL LOG] sort_host_mtx : 0 ms
[OGL LOG] init_preconditioner : 0 ms
[OGL LOG] solve : 9 ms
nonecudaGKOBiCGStab:  Solving for p, Initial residual = 0.0152979, Final residual = 9.4321e-05, No Iterations 30
linear solve p 12
time step continuity errors : sum local = 1.36327e-07, global = -9.83518e-21, cumulative = -6.37219e-21
ExecutionTime = 1.03 s  ClockTime = 1 s

Time = 0.006

Courant Number mean: 0.0159486 max: 0.0908032
nonePBiCGStab:  Solving for Ux, Initial residual = 0.0353479, Final residual = 9.55762e-07, No Iterations 5
nonePBiCGStab:  Solving for Uy, Initial residual = 0.0461027, Final residual = 5.42082e-07, No Iterations 5
nonePBiCGStab:  Solving for Uz, Initial residual = 0.0993914, Final residual = 1.95743e-06, No Iterations 5
linear solve U 1
[OGL LOG] init_host_sparsity_pattern : 0 ms
[OGL LOG] matrix not stored update host matrix
[OGL LOG] update_host_mtx : 0 ms
[OGL LOG] matrix is not yet sorted, sorting host matrix
[OGL LOG] sort_host_mtx_sparsity_pattern : 0 ms
[OGL LOG] sort_host_mtx : 0 ms
[OGL LOG] init_preconditioner : 0 ms
[OGL LOG] solve : 20 ms
nonecudaGKOBiCGStab:  Solving for p, Initial residual = 0.0288356, Final residual = 8.19474e-05, No Iterations 71
linear solve p 23
time step continuity errors : sum local = 1.49984e-07, global = -2.53523e-20, cumulative = -3.17244e-20
[OGL LOG] init_host_sparsity_pattern : 0 ms
[OGL LOG] matrix not stored update host matrix
[OGL LOG] update_host_mtx : 0 ms
[OGL LOG] matrix is not yet sorted, sorting host matrix
[OGL LOG] sort_host_mtx_sparsity_pattern : 0 ms
[OGL LOG] sort_host_mtx : 0 ms
[OGL LOG] init_preconditioner : 0 ms
[OGL LOG] solve : 8 ms
nonecudaGKOBiCGStab:  Solving for p, Initial residual = 0.0110303, Final residual = 9.98016e-05, No Iterations 28
linear solve p 11
time step continuity errors : sum local = 1.34077e-07, global = -1.56701e-20, cumulative = -4.73946e-20
ExecutionTime = 1.08 s  ClockTime = 1 s

Time = 0.007

Courant Number mean: 0.017272 max: 0.0958251
nonePBiCGStab:  Solving for Ux, Initial residual = 0.0271553, Final residual = 4.7988e-07, No Iterations 5
nonePBiCGStab:  Solving for Uy, Initial residual = 0.03564, Final residual = 9.68263e-07, No Iterations 4
nonePBiCGStab:  Solving for Uz, Initial residual = 0.0794264, Final residual = 1.40174e-06, No Iterations 5
linear solve U 1
[OGL LOG] init_host_sparsity_pattern : 0 ms
[OGL LOG] matrix not stored update host matrix
[OGL LOG] update_host_mtx : 0 ms
[OGL LOG] matrix is not yet sorted, sorting host matrix
[OGL LOG] sort_host_mtx_sparsity_pattern : 0 ms
[OGL LOG] sort_host_mtx : 0 ms
[OGL LOG] init_preconditioner : 0 ms
[OGL LOG] solve : 10 ms
nonecudaGKOBiCGStab:  Solving for p, Initial residual = 0.0218156, Final residual = 9.95595e-05, No Iterations 34
linear solve p 13
time step continuity errors : sum local = 1.71558e-07, global = -1.4627e-20, cumulative = -6.20216e-20
[OGL LOG] init_host_sparsity_pattern : 0 ms
[OGL LOG] matrix not stored update host matrix
[OGL LOG] update_host_mtx : 0 ms
[OGL LOG] matrix is not yet sorted, sorting host matrix
[OGL LOG] sort_host_mtx_sparsity_pattern : 0 ms
[OGL LOG] sort_host_mtx : 0 ms
[OGL LOG] init_preconditioner : 0 ms
[OGL LOG] solve : 8 ms
nonecudaGKOBiCGStab:  Solving for p, Initial residual = 0.0086958, Final residual = 9.88918e-05, No Iterations 26
linear solve p 10
time step continuity errors : sum local = 1.53845e-07, global = 2.96346e-20, cumulative = -3.2387e-20
ExecutionTime = 1.1 s  ClockTime = 1 s

Time = 0.008

Courant Number mean: 0.0183557 max: 0.0995502
nonePBiCGStab:  Solving for Ux, Initial residual = 0.0216488, Final residual = 2.98728e-07, No Iterations 5
nonePBiCGStab:  Solving for Uy, Initial residual = 0.028626, Final residual = 7.00283e-07, No Iterations 4
nonePBiCGStab:  Solving for Uz, Initial residual = 0.0650583, Final residual = 1.0695e-06, No Iterations 5
linear solve U 1
[OGL LOG] init_host_sparsity_pattern : 0 ms
[OGL LOG] matrix not stored update host matrix
[OGL LOG] update_host_mtx : 0 ms
[OGL LOG] matrix is not yet sorted, sorting host matrix
[OGL LOG] sort_host_mtx_sparsity_pattern : 0 ms
[OGL LOG] sort_host_mtx : 0 ms
[OGL LOG] init_preconditioner : 0 ms
[OGL LOG] solve : 14 ms
nonecudaGKOBiCGStab:  Solving for p, Initial residual = 0.0163228, Final residual = 9.99781e-05, No Iterations 48
linear solve p 17
time step continuity errors : sum local = 1.91278e-07, global = -1.0348e-21, cumulative = -3.34218e-20
[OGL LOG] init_host_sparsity_pattern : 0 ms
[OGL LOG] matrix not stored update host matrix
[OGL LOG] update_host_mtx : 0 ms
[OGL LOG] matrix is not yet sorted, sorting host matrix
[OGL LOG] sort_host_mtx_sparsity_pattern : 0 ms
[OGL LOG] sort_host_mtx : 0 ms
[OGL LOG] init_preconditioner : 0 ms
[OGL LOG] solve : 8 ms
nonecudaGKOBiCGStab:  Solving for p, Initial residual = 0.00666484, Final residual = 9.84424e-05, No Iterations 26
linear solve p 10
time step continuity errors : sum local = 1.74893e-07, global = 5.00941e-21, cumulative = -2.84124e-20
ExecutionTime = 1.13 s  ClockTime = 2 s

Time = 0.009

Courant Number mean: 0.0192556 max: 0.102395
nonePBiCGStab:  Solving for Ux, Initial residual = 0.0176801, Final residual = 6.9339e-07, No Iterations 4
nonePBiCGStab:  Solving for Uy, Initial residual = 0.023627, Final residual = 5.55946e-07, No Iterations 4
nonePBiCGStab:  Solving for Uz, Initial residual = 0.0544447, Final residual = 7.42482e-07, No Iterations 5
linear solve U 0
[OGL LOG] init_host_sparsity_pattern : 0 ms
[OGL LOG] matrix not stored update host matrix
[OGL LOG] update_host_mtx : 0 ms
[OGL LOG] matrix is not yet sorted, sorting host matrix
[OGL LOG] sort_host_mtx_sparsity_pattern : 0 ms
[OGL LOG] sort_host_mtx : 0 ms
[OGL LOG] init_preconditioner : 0 ms
[OGL LOG] solve : 18 ms
nonecudaGKOBiCGStab:  Solving for p, Initial residual = 0.0132599, Final residual = 9.85389e-05, No Iterations 61
linear solve p 21
time step continuity errors : sum local = 1.88229e-07, global = 2.56525e-20, cumulative = -2.75989e-21
[OGL LOG] init_host_sparsity_pattern : 0 ms
[OGL LOG] matrix not stored update host matrix
[OGL LOG] update_host_mtx : 0 ms
[OGL LOG] matrix is not yet sorted, sorting host matrix
[OGL LOG] sort_host_mtx_sparsity_pattern : 0 ms
[OGL LOG] sort_host_mtx : 0 ms
[OGL LOG] init_preconditioner : 0 ms
[OGL LOG] solve : 8 ms
nonecudaGKOBiCGStab:  Solving for p, Initial residual = 0.00538591, Final residual = 9.94572e-05, No Iterations 26
linear solve p 11
time step continuity errors : sum local = 1.75247e-07, global = 1.89027e-20, cumulative = 1.61428e-20
ExecutionTime = 1.17 s  ClockTime = 2 s

Time = 0.01

Courant Number mean: 0.0200146 max: 0.104627
nonePBiCGStab:  Solving for Ux, Initial residual = 0.0147268, Final residual = 4.74116e-07, No Iterations 4
nonePBiCGStab:  Solving for Uy, Initial residual = 0.0199367, Final residual = 8.60354e-07, No Iterations 4
nonePBiCGStab:  Solving for Uz, Initial residual = 0.0463317, Final residual = 5.70642e-07, No Iterations 5
linear solve U 0
[OGL LOG] init_host_sparsity_pattern : 0 ms
[OGL LOG] matrix not stored update host matrix
[OGL LOG] update_host_mtx : 0 ms
[OGL LOG] matrix is not yet sorted, sorting host matrix
[OGL LOG] sort_host_mtx_sparsity_pattern : 0 ms
[OGL LOG] sort_host_mtx : 0 ms
[OGL LOG] init_preconditioner : 0 ms
[OGL LOG] solve : 9 ms
nonecudaGKOBiCGStab:  Solving for p, Initial residual = 0.0111509, Final residual = 9.99221e-05, No Iterations 32
linear solve p 12
time step continuity errors : sum local = 1.94107e-07, global = -3.88609e-21, cumulative = 1.22567e-20
[OGL LOG] init_host_sparsity_pattern : 0 ms
[OGL LOG] matrix not stored update host matrix
[OGL LOG] update_host_mtx : 0 ms
[OGL LOG] matrix is not yet sorted, sorting host matrix
[OGL LOG] sort_host_mtx_sparsity_pattern : 0 ms
[OGL LOG] sort_host_mtx : 0 ms
[OGL LOG] init_preconditioner : 0 ms
[OGL LOG] solve : 8 ms
nonecudaGKOBiCGStab:  Solving for p, Initial residual = 0.00452739, Final residual = 9.64526e-05, No Iterations 26
linear solve p 11
time step continuity errors : sum local = 1.81724e-07, global = -1.44186e-20, cumulative = -2.16184e-21
ExecutionTime = 1.19 s  ClockTime = 2 s

End

