/*---------------------------------------------------------------------------*\
  =========                 |
  \\      /  F ield         | OpenFOAM: The Open Source CFD Toolbox
   \\    /   O peration     | Website:  https://openfoam.org
    \\  /    A nd           | Version:  8
     \\/     M anipulation  |
\*---------------------------------------------------------------------------*/
Build  : 8-40a5a48f630f
Exec   : icoFoam
Date   : Jul 28 2021
Time   : 02:17:38
Host   : "uc2n471.localdomain"
PID    : 2459309
I/O    : uncollated
Case   : /pfs/data5/home/kit/scc/nq7776/code/OBR/lidDrivenCavity3D/Variation_mesh/65/Variation_matrix_solver/CG_BJ_OMP/base
nProcs : 1
sigFpe : Enabling floating point exception trapping (FOAM_SIGFPE).
fileModificationChecking : Monitoring run-time modified files using timeStampMaster (fileModificationSkew 10)
allowSystemOperations : Allowing user-supplied system call operations

// * * * * * * * * * * * * * * * * * * * * * * * * * * * * * * * * * * * * * //
Create time

Create mesh for time = 0

Reading transportProperties

Reading field p

Reading field U

Reading/calculating face flux field phi


Starting time loop

Time = 0.001

Courant Number mean: 0 max: 0
nonePBiCGStab:  Solving for Ux, Initial residual = 1, Final residual = 0.053017, No Iterations 5
nonePBiCGStab:  Solving for Uy, Initial residual = 0, Final residual = 0, No Iterations 0
nonePBiCGStab:  Solving for Uz, Initial residual = 0, Final residual = 0, No Iterations 0
linear solve U 70
[OGL LOG] init_host_sparsity_pattern : 78 ms
[OGL LOG] matrix not stored update host matrix
[OGL LOG] update_host_mtx : 40 ms
[OGL LOG] matrix is not yet sorted, compute sorting idxs
[OGL LOG] compute_sort : 2384 ms
[OGL LOG] matrix is not yet sorted, sorting host matrix
[OGL LOG] sort_host_mtx_sparsity_pattern : 56 ms
[OGL LOG] sort_host_mtx : 33 ms
[OGL LOG] init_preconditioner : 74 ms
 CG create  precond 
[OGL LOG] solve : 10139 ms
BJompGKOCG:  Solving for p, Initial residual = 1, Final residual = 9.58007e-05, No Iterations 440
linear solve p 12866
time step continuity errors : sum local = 4.61017e-08, global = -1.83983e-21, cumulative = -1.83983e-21
[OGL LOG] init_host_sparsity_pattern : 75 ms
[OGL LOG] matrix not stored update host matrix
[OGL LOG] update_host_mtx : 40 ms
[OGL LOG] matrix is not yet sorted, sorting host matrix
[OGL LOG] sort_host_mtx_sparsity_pattern : 55 ms
[OGL LOG] sort_host_mtx : 27 ms
[OGL LOG] init_preconditioner : 0 ms
 CG create  precond 
[OGL LOG] solve : 9645 ms
BJompGKOCG:  Solving for p, Initial residual = 0.674187, Final residual = 9.79901e-05, No Iterations 418
linear solve p 9879
time step continuity errors : sum local = 6.69417e-08, global = -5.96931e-21, cumulative = -7.80914e-21
ExecutionTime = 23.95 s  ClockTime = 24 s

Time = 0.002

Courant Number mean: 0.0326827 max: 0.468252
nonePBiCGStab:  Solving for Ux, Initial residual = 0.151756, Final residual = 0.0210783, No Iterations 5
nonePBiCGStab:  Solving for Uy, Initial residual = 0.364889, Final residual = 0.0451025, No Iterations 5
nonePBiCGStab:  Solving for Uz, Initial residual = 0.979903, Final residual = 0.154119, No Iterations 5
linear solve U 138
[OGL LOG] init_host_sparsity_pattern : 72 ms
[OGL LOG] matrix not stored update host matrix
[OGL LOG] update_host_mtx : 37 ms
[OGL LOG] matrix is not yet sorted, sorting host matrix
[OGL LOG] sort_host_mtx_sparsity_pattern : 56 ms
[OGL LOG] sort_host_mtx : 27 ms
[OGL LOG] init_preconditioner : 0 ms
 CG create  precond 
[OGL LOG] solve : 9410 ms
BJompGKOCG:  Solving for p, Initial residual = 0.656699, Final residual = 9.95116e-05, No Iterations 408
linear solve p 9637
time step continuity errors : sum local = 8.46154e-08, global = 4.55625e-21, cumulative = -3.25288e-21
[OGL LOG] init_host_sparsity_pattern : 72 ms
[OGL LOG] matrix not stored update host matrix
[OGL LOG] update_host_mtx : 35 ms
[OGL LOG] matrix is not yet sorted, sorting host matrix
[OGL LOG] sort_host_mtx_sparsity_pattern : 56 ms
[OGL LOG] sort_host_mtx : 27 ms
[OGL LOG] init_preconditioner : 0 ms
 CG create  precond 
[OGL LOG] solve : 9350 ms
BJompGKOCG:  Solving for p, Initial residual = 0.574985, Final residual = 9.90182e-05, No Iterations 405
linear solve p 9576
time step continuity errors : sum local = 8.62374e-08, global = 1.32613e-20, cumulative = 1.00084e-20
ExecutionTime = 43.41 s  ClockTime = 43 s

Time = 0.003

Courant Number mean: 0.0502554 max: 0.556614
nonePBiCGStab:  Solving for Ux, Initial residual = 0.0551703, Final residual = 0.00592584, No Iterations 5
nonePBiCGStab:  Solving for Uy, Initial residual = 0.124794, Final residual = 0.0163176, No Iterations 5
nonePBiCGStab:  Solving for Uz, Initial residual = 0.34283, Final residual = 0.0519888, No Iterations 5
linear solve U 138
[OGL LOG] init_host_sparsity_pattern : 74 ms
[OGL LOG] matrix not stored update host matrix
[OGL LOG] update_host_mtx : 40 ms
[OGL LOG] matrix is not yet sorted, sorting host matrix
[OGL LOG] sort_host_mtx_sparsity_pattern : 56 ms
[OGL LOG] sort_host_mtx : 27 ms
[OGL LOG] init_preconditioner : 0 ms
 CG create  precond 
[OGL LOG] solve : 9276 ms
BJompGKOCG:  Solving for p, Initial residual = 0.556804, Final residual = 9.31639e-05, No Iterations 402
linear solve p 9509
time step continuity errors : sum local = 5.36669e-08, global = -2.30513e-21, cumulative = 7.70325e-21
[OGL LOG] init_host_sparsity_pattern : 72 ms
[OGL LOG] matrix not stored update host matrix
[OGL LOG] update_host_mtx : 35 ms
[OGL LOG] matrix is not yet sorted, sorting host matrix
[OGL LOG] sort_host_mtx_sparsity_pattern : 56 ms
[OGL LOG] sort_host_mtx : 27 ms
[OGL LOG] init_preconditioner : 0 ms
 CG create  precond 
[OGL LOG] solve : 9225 ms
BJompGKOCG:  Solving for p, Initial residual = 0.491347, Final residual = 9.68954e-05, No Iterations 400
linear solve p 9451
time step continuity errors : sum local = 5.41996e-08, global = -3.09797e-21, cumulative = 4.60528e-21
ExecutionTime = 62.64 s  ClockTime = 62 s

Time = 0.004

Courant Number mean: 0.0602927 max: 0.57501
nonePBiCGStab:  Solving for Ux, Initial residual = 0.0331618, Final residual = 0.00304833, No Iterations 5
nonePBiCGStab:  Solving for Uy, Initial residual = 0.080507, Final residual = 0.00691168, No Iterations 5
nonePBiCGStab:  Solving for Uz, Initial residual = 0.204186, Final residual = 0.024314, No Iterations 5
linear solve U 139
[OGL LOG] init_host_sparsity_pattern : 74 ms
[OGL LOG] matrix not stored update host matrix
[OGL LOG] update_host_mtx : 40 ms
[OGL LOG] matrix is not yet sorted, sorting host matrix
[OGL LOG] sort_host_mtx_sparsity_pattern : 56 ms
[OGL LOG] sort_host_mtx : 27 ms
[OGL LOG] init_preconditioner : 0 ms
 CG create  precond 
[OGL LOG] solve : 4576 ms
BJompGKOCG:  Solving for p, Initial residual = 0.352077, Final residual = 9.94595e-05, No Iterations 198
linear solve p 4809
time step continuity errors : sum local = 6.16862e-08, global = 1.4875e-20, cumulative = 1.94803e-20
[OGL LOG] init_host_sparsity_pattern : 75 ms
[OGL LOG] matrix not stored update host matrix
[OGL LOG] update_host_mtx : 35 ms
[OGL LOG] matrix is not yet sorted, sorting host matrix
[OGL LOG] sort_host_mtx_sparsity_pattern : 55 ms
[OGL LOG] sort_host_mtx : 27 ms
[OGL LOG] init_preconditioner : 0 ms
 CG create  precond 
[OGL LOG] solve : 4462 ms
BJompGKOCG:  Solving for p, Initial residual = 0.29152, Final residual = 9.61321e-05, No Iterations 193
linear solve p 4689
time step continuity errors : sum local = 5.57948e-08, global = 1.64672e-20, cumulative = 3.59475e-20
ExecutionTime = 72.42 s  ClockTime = 72 s

Time = 0.005

Courant Number mean: 0.0682799 max: 0.585618
nonePBiCGStab:  Solving for Ux, Initial residual = 0.0235504, Final residual = 0.00193594, No Iterations 5
nonePBiCGStab:  Solving for Uy, Initial residual = 0.0529862, Final residual = 0.00378459, No Iterations 5
nonePBiCGStab:  Solving for Uz, Initial residual = 0.105232, Final residual = 0.012214, No Iterations 5
linear solve U 138
[OGL LOG] init_host_sparsity_pattern : 75 ms
[OGL LOG] matrix not stored update host matrix
[OGL LOG] update_host_mtx : 40 ms
[OGL LOG] matrix is not yet sorted, sorting host matrix
[OGL LOG] sort_host_mtx_sparsity_pattern : 56 ms
[OGL LOG] sort_host_mtx : 28 ms
[OGL LOG] init_preconditioner : 0 ms
 CG create  precond 
[OGL LOG] solve : 4370 ms
BJompGKOCG:  Solving for p, Initial residual = 0.271356, Final residual = 9.88791e-05, No Iterations 189
linear solve p 4605
time step continuity errors : sum local = 4.83764e-08, global = -7.18033e-21, cumulative = 2.87672e-20
[OGL LOG] init_host_sparsity_pattern : 72 ms
[OGL LOG] matrix not stored update host matrix
[OGL LOG] update_host_mtx : 35 ms
[OGL LOG] matrix is not yet sorted, sorting host matrix
[OGL LOG] sort_host_mtx_sparsity_pattern : 55 ms
[OGL LOG] sort_host_mtx : 27 ms
[OGL LOG] init_preconditioner : 0 ms
 CG create  precond 
[OGL LOG] solve : 4265 ms
BJompGKOCG:  Solving for p, Initial residual = 0.230575, Final residual = 9.86716e-05, No Iterations 184
linear solve p 4490
time step continuity errors : sum local = 4.78713e-08, global = 7.37282e-22, cumulative = 2.95044e-20
ExecutionTime = 81.8 s  ClockTime = 82 s

Time = 0.006

Courant Number mean: 0.0745602 max: 0.592191
nonePBiCGStab:  Solving for Ux, Initial residual = 0.0176774, Final residual = 0.00110713, No Iterations 5
nonePBiCGStab:  Solving for Uy, Initial residual = 0.0396028, Final residual = 0.00184089, No Iterations 5
nonePBiCGStab:  Solving for Uz, Initial residual = 0.0849128, Final residual = 0.00889409, No Iterations 5
linear solve U 138
[OGL LOG] init_host_sparsity_pattern : 74 ms
[OGL LOG] matrix not stored update host matrix
[OGL LOG] update_host_mtx : 40 ms
[OGL LOG] matrix is not yet sorted, sorting host matrix
[OGL LOG] sort_host_mtx_sparsity_pattern : 56 ms
[OGL LOG] sort_host_mtx : 27 ms
[OGL LOG] init_preconditioner : 0 ms
 CG create  precond 
[OGL LOG] solve : 4233 ms
BJompGKOCG:  Solving for p, Initial residual = 0.175754, Final residual = 9.79334e-05, No Iterations 183
linear solve p 4465
time step continuity errors : sum local = 5.44864e-08, global = 5.61516e-21, cumulative = 3.51196e-20
[OGL LOG] init_host_sparsity_pattern : 72 ms
[OGL LOG] matrix not stored update host matrix
[OGL LOG] update_host_mtx : 35 ms
[OGL LOG] matrix is not yet sorted, sorting host matrix
[OGL LOG] sort_host_mtx_sparsity_pattern : 56 ms
[OGL LOG] sort_host_mtx : 27 ms
[OGL LOG] init_preconditioner : 0 ms
 CG create  precond 
[OGL LOG] solve : 4193 ms
BJompGKOCG:  Solving for p, Initial residual = 0.145749, Final residual = 9.61504e-05, No Iterations 181
linear solve p 4419
time step continuity errors : sum local = 4.94533e-08, global = 1.53357e-20, cumulative = 5.04553e-20
ExecutionTime = 90.96 s  ClockTime = 91 s

Time = 0.007

Courant Number mean: 0.0797731 max: 0.596672
nonePBiCGStab:  Solving for Ux, Initial residual = 0.0139478, Final residual = 0.000743851, No Iterations 5
nonePBiCGStab:  Solving for Uy, Initial residual = 0.0312514, Final residual = 0.00141077, No Iterations 5
nonePBiCGStab:  Solving for Uz, Initial residual = 0.064152, Final residual = 0.00449858, No Iterations 5
linear solve U 138
[OGL LOG] init_host_sparsity_pattern : 75 ms
[OGL LOG] matrix not stored update host matrix
[OGL LOG] update_host_mtx : 40 ms
[OGL LOG] matrix is not yet sorted, sorting host matrix
[OGL LOG] sort_host_mtx_sparsity_pattern : 55 ms
[OGL LOG] sort_host_mtx : 27 ms
[OGL LOG] init_preconditioner : 0 ms
 CG create  precond 
[OGL LOG] solve : 4067 ms
BJompGKOCG:  Solving for p, Initial residual = 0.12785, Final residual = 9.81718e-05, No Iterations 175
linear solve p 4300
time step continuity errors : sum local = 4.41554e-08, global = -3.15121e-21, cumulative = 4.73041e-20
[OGL LOG] init_host_sparsity_pattern : 72 ms
[OGL LOG] matrix not stored update host matrix
[OGL LOG] update_host_mtx : 35 ms
[OGL LOG] matrix is not yet sorted, sorting host matrix
[OGL LOG] sort_host_mtx_sparsity_pattern : 55 ms
[OGL LOG] sort_host_mtx : 27 ms
[OGL LOG] init_preconditioner : 0 ms
 CG create  precond 
[OGL LOG] solve : 4030 ms
BJompGKOCG:  Solving for p, Initial residual = 0.107209, Final residual = 9.89558e-05, No Iterations 174
linear solve p 4255
time step continuity errors : sum local = 4.62135e-08, global = 1.08623e-20, cumulative = 5.81664e-20
ExecutionTime = 99.8 s  ClockTime = 100 s

Time = 0.008

Courant Number mean: 0.084144 max: 0.600055
nonePBiCGStab:  Solving for Ux, Initial residual = 0.0113975, Final residual = 0.000498747, No Iterations 5
nonePBiCGStab:  Solving for Uy, Initial residual = 0.0252538, Final residual = 0.000814812, No Iterations 5
nonePBiCGStab:  Solving for Uz, Initial residual = 0.0531503, Final residual = 0.00391704, No Iterations 5
linear solve U 138
[OGL LOG] init_host_sparsity_pattern : 74 ms
[OGL LOG] matrix not stored update host matrix
[OGL LOG] update_host_mtx : 40 ms
[OGL LOG] matrix is not yet sorted, sorting host matrix
[OGL LOG] sort_host_mtx_sparsity_pattern : 56 ms
[OGL LOG] sort_host_mtx : 28 ms
[OGL LOG] init_preconditioner : 0 ms
 CG create  precond 
[OGL LOG] solve : 8421 ms
BJompGKOCG:  Solving for p, Initial residual = 0.0860961, Final residual = 9.85007e-05, No Iterations 365
linear solve p 8655
time step continuity errors : sum local = 4.31782e-08, global = 2.63406e-20, cumulative = 8.45071e-20
[OGL LOG] init_host_sparsity_pattern : 72 ms
[OGL LOG] matrix not stored update host matrix
[OGL LOG] update_host_mtx : 35 ms
[OGL LOG] matrix is not yet sorted, sorting host matrix
[OGL LOG] sort_host_mtx_sparsity_pattern : 56 ms
[OGL LOG] sort_host_mtx : 28 ms
[OGL LOG] init_preconditioner : 0 ms
 CG create  precond 
[OGL LOG] solve : 4048 ms
BJompGKOCG:  Solving for p, Initial residual = 0.071891, Final residual = 9.68421e-05, No Iterations 175
linear solve p 4274
time step continuity errors : sum local = 5.05319e-08, global = 3.1495e-20, cumulative = 1.16002e-19
ExecutionTime = 113 s  ClockTime = 113 s

regIOobject::readIfModified() : 
    Re-reading object controlDict from file "/pfs/data5/home/kit/scc/nq7776/code/OBR/lidDrivenCavity3D/Variation_mesh/65/Variation_matrix_solver/CG_BJ_OMP/base/system/controlDict"
End

