/*---------------------------------------------------------------------------*\
  =========                 |
  \\      /  F ield         | OpenFOAM: The Open Source CFD Toolbox
   \\    /   O peration     | Website:  https://openfoam.org
    \\  /    A nd           | Version:  8
     \\/     M anipulation  |
\*---------------------------------------------------------------------------*/
Build  : 8-40a5a48f630f
Exec   : icoFoam
Date   : Jul 28 2021
Time   : 02:06:29
Host   : "uc2n462.localdomain"
PID    : 3686613
I/O    : uncollated
Case   : /pfs/data5/home/kit/scc/nq7776/code/OBR/lidDrivenCavity3D/Variation_mesh/40/Variation_matrix_solver/BiCGStab_NoPrecond_OMP/base
nProcs : 1
sigFpe : Enabling floating point exception trapping (FOAM_SIGFPE).
fileModificationChecking : Monitoring run-time modified files using timeStampMaster (fileModificationSkew 10)
allowSystemOperations : Allowing user-supplied system call operations

// * * * * * * * * * * * * * * * * * * * * * * * * * * * * * * * * * * * * * //
Create time

Create mesh for time = 0

Reading transportProperties

Reading field p

Reading field U

Reading/calculating face flux field phi


Starting time loop

Time = 0.001

Courant Number mean: 0 max: 0
nonePBiCGStab:  Solving for Ux, Initial residual = 1, Final residual = 0.0197517, No Iterations 5
nonePBiCGStab:  Solving for Uy, Initial residual = 0, Final residual = 0, No Iterations 0
nonePBiCGStab:  Solving for Uz, Initial residual = 0, Final residual = 0, No Iterations 0
linear solve U 14
[OGL LOG] init_host_sparsity_pattern : 18 ms
[OGL LOG] matrix not stored update host matrix
[OGL LOG] update_host_mtx : 10 ms
[OGL LOG] matrix is not yet sorted, compute sorting idxs
[OGL LOG] compute_sort : 488 ms
[OGL LOG] matrix is not yet sorted, sorting host matrix
[OGL LOG] sort_host_mtx_sparsity_pattern : 13 ms
[OGL LOG] sort_host_mtx : 7 ms
[OGL LOG] init_preconditioner : 0 ms
[OGL LOG] solve : 322 ms
noneompGKOBiCGStab:  Solving for p, Initial residual = 1, Final residual = 8.58855e-05, No Iterations 253
linear solve p 890
time step continuity errors : sum local = 1.75739e-07, global = -1.80338e-20, cumulative = -1.80338e-20
[OGL LOG] init_host_sparsity_pattern : 18 ms
[OGL LOG] matrix not stored update host matrix
[OGL LOG] update_host_mtx : 9 ms
[OGL LOG] matrix is not yet sorted, sorting host matrix
[OGL LOG] sort_host_mtx_sparsity_pattern : 12 ms
[OGL LOG] sort_host_mtx : 6 ms
[OGL LOG] init_preconditioner : 0 ms
[OGL LOG] solve : 320 ms
noneompGKOBiCGStab:  Solving for p, Initial residual = 0.598506, Final residual = 9.25591e-05, No Iterations 250
linear solve p 376
time step continuity errors : sum local = 2.91666e-07, global = -1.12848e-21, cumulative = -1.91623e-20
ExecutionTime = 14.11 s  ClockTime = 1 s

Time = 0.002

Courant Number mean: 0.0210259 max: 0.237017
nonePBiCGStab:  Solving for Ux, Initial residual = 0.177786, Final residual = 0.00671715, No Iterations 5
nonePBiCGStab:  Solving for Uy, Initial residual = 0.294137, Final residual = 0.00772462, No Iterations 5
nonePBiCGStab:  Solving for Uz, Initial residual = 0.946865, Final residual = 0.0378837, No Iterations 5
linear solve U 26
[OGL LOG] init_host_sparsity_pattern : 17 ms
[OGL LOG] matrix not stored update host matrix
[OGL LOG] update_host_mtx : 9 ms
[OGL LOG] matrix is not yet sorted, sorting host matrix
[OGL LOG] sort_host_mtx_sparsity_pattern : 12 ms
[OGL LOG] sort_host_mtx : 6 ms
[OGL LOG] init_preconditioner : 0 ms
[OGL LOG] solve : 352 ms
noneompGKOBiCGStab:  Solving for p, Initial residual = 0.457968, Final residual = 8.43265e-05, No Iterations 233
linear solve p 410
time step continuity errors : sum local = 1.93837e-07, global = 1.60542e-20, cumulative = -3.10808e-21
[OGL LOG] init_host_sparsity_pattern : 17 ms
[OGL LOG] matrix not stored update host matrix
[OGL LOG] update_host_mtx : 8 ms
[OGL LOG] matrix is not yet sorted, sorting host matrix
[OGL LOG] sort_host_mtx_sparsity_pattern : 14 ms
[OGL LOG] sort_host_mtx : 6 ms
[OGL LOG] init_preconditioner : 0 ms
[OGL LOG] solve : 348 ms
noneompGKOBiCGStab:  Solving for p, Initial residual = 0.361271, Final residual = 9.582e-05, No Iterations 235
linear solve p 406
time step continuity errors : sum local = 5.44794e-07, global = -1.07241e-20, cumulative = -1.38322e-20
ExecutionTime = 28.51 s  ClockTime = 2 s

Time = 0.003

Courant Number mean: 0.0321037 max: 0.305907
nonePBiCGStab:  Solving for Ux, Initial residual = 0.0655863, Final residual = 0.00124982, No Iterations 5
nonePBiCGStab:  Solving for Uy, Initial residual = 0.108191, Final residual = 0.00180338, No Iterations 5
nonePBiCGStab:  Solving for Uz, Initial residual = 0.20829, Final residual = 0.00947043, No Iterations 5
linear solve U 27
[OGL LOG] init_host_sparsity_pattern : 17 ms
[OGL LOG] matrix not stored update host matrix
[OGL LOG] update_host_mtx : 9 ms
[OGL LOG] matrix is not yet sorted, sorting host matrix
[OGL LOG] sort_host_mtx_sparsity_pattern : 12 ms
[OGL LOG] sort_host_mtx : 6 ms
[OGL LOG] init_preconditioner : 0 ms
[OGL LOG] solve : 338 ms
noneompGKOBiCGStab:  Solving for p, Initial residual = 0.165421, Final residual = 9.30921e-05, No Iterations 229
linear solve p 392
time step continuity errors : sum local = 8.39878e-08, global = 2.20072e-20, cumulative = 8.17496e-21
[OGL LOG] init_host_sparsity_pattern : 17 ms
[OGL LOG] matrix not stored update host matrix
[OGL LOG] update_host_mtx : 8 ms
[OGL LOG] matrix is not yet sorted, sorting host matrix
[OGL LOG] sort_host_mtx_sparsity_pattern : 13 ms
[OGL LOG] sort_host_mtx : 6 ms
[OGL LOG] init_preconditioner : 0 ms
[OGL LOG] solve : 321 ms
noneompGKOBiCGStab:  Solving for p, Initial residual = 0.129452, Final residual = 9.91781e-05, No Iterations 219
linear solve p 373
time step continuity errors : sum local = 3.28719e-07, global = 2.72815e-22, cumulative = 8.44778e-21
ExecutionTime = 42.07 s  ClockTime = 3 s

Time = 0.004

Courant Number mean: 0.0386775 max: 0.327554
nonePBiCGStab:  Solving for Ux, Initial residual = 0.038909, Final residual = 0.00061214, No Iterations 5
nonePBiCGStab:  Solving for Uy, Initial residual = 0.0669913, Final residual = 0.000716671, No Iterations 5
nonePBiCGStab:  Solving for Uz, Initial residual = 0.131775, Final residual = 0.00456206, No Iterations 5
linear solve U 26
[OGL LOG] init_host_sparsity_pattern : 18 ms
[OGL LOG] matrix not stored update host matrix
[OGL LOG] update_host_mtx : 9 ms
[OGL LOG] matrix is not yet sorted, sorting host matrix
[OGL LOG] sort_host_mtx_sparsity_pattern : 12 ms
[OGL LOG] sort_host_mtx : 6 ms
[OGL LOG] init_preconditioner : 0 ms
[OGL LOG] solve : 324 ms
noneompGKOBiCGStab:  Solving for p, Initial residual = 0.0863584, Final residual = 9.40456e-05, No Iterations 221
linear solve p 378
time step continuity errors : sum local = 1.92211e-07, global = 1.98028e-20, cumulative = 2.82505e-20
[OGL LOG] init_host_sparsity_pattern : 17 ms
[OGL LOG] matrix not stored update host matrix
[OGL LOG] update_host_mtx : 9 ms
[OGL LOG] matrix is not yet sorted, sorting host matrix
[OGL LOG] sort_host_mtx_sparsity_pattern : 13 ms
[OGL LOG] sort_host_mtx : 6 ms
[OGL LOG] init_preconditioner : 0 ms
[OGL LOG] solve : 315 ms
noneompGKOBiCGStab:  Solving for p, Initial residual = 0.0666085, Final residual = 9.81305e-05, No Iterations 213
linear solve p 370
time step continuity errors : sum local = 1.45784e-07, global = 1.89886e-20, cumulative = 4.72391e-20
ExecutionTime = 55.23 s  ClockTime = 4 s

Time = 0.005

Courant Number mean: 0.0434802 max: 0.337865
nonePBiCGStab:  Solving for Ux, Initial residual = 0.0269302, Final residual = 0.000374246, No Iterations 5
nonePBiCGStab:  Solving for Uy, Initial residual = 0.0468318, Final residual = 0.000504255, No Iterations 5
nonePBiCGStab:  Solving for Uz, Initial residual = 0.0962225, Final residual = 0.0029583, No Iterations 5
linear solve U 26
[OGL LOG] init_host_sparsity_pattern : 18 ms
[OGL LOG] matrix not stored update host matrix
[OGL LOG] update_host_mtx : 9 ms
[OGL LOG] matrix is not yet sorted, sorting host matrix
[OGL LOG] sort_host_mtx_sparsity_pattern : 13 ms
[OGL LOG] sort_host_mtx : 6 ms
[OGL LOG] init_preconditioner : 0 ms
[OGL LOG] solve : 302 ms
noneompGKOBiCGStab:  Solving for p, Initial residual = 0.0449987, Final residual = 9.98014e-05, No Iterations 205
linear solve p 358
time step continuity errors : sum local = 1.02069e-07, global = 9.45332e-21, cumulative = 5.66924e-20
[OGL LOG] init_host_sparsity_pattern : 18 ms
[OGL LOG] matrix not stored update host matrix
[OGL LOG] update_host_mtx : 9 ms
[OGL LOG] matrix is not yet sorted, sorting host matrix
[OGL LOG] sort_host_mtx_sparsity_pattern : 12 ms
[OGL LOG] sort_host_mtx : 6 ms
[OGL LOG] init_preconditioner : 0 ms
[OGL LOG] solve : 122 ms
noneompGKOBiCGStab:  Solving for p, Initial residual = 0.0360155, Final residual = 8.54184e-05, No Iterations 83
linear solve p 177
time step continuity errors : sum local = 7.84021e-08, global = -8.65232e-21, cumulative = 4.80401e-20
ExecutionTime = 64.09 s  ClockTime = 5 s

Time = 0.006

Courant Number mean: 0.0471993 max: 0.344029
nonePBiCGStab:  Solving for Ux, Initial residual = 0.020514, Final residual = 0.000224404, No Iterations 5
nonePBiCGStab:  Solving for Uy, Initial residual = 0.0355807, Final residual = 0.00025594, No Iterations 5
nonePBiCGStab:  Solving for Uz, Initial residual = 0.0711131, Final residual = 0.00195262, No Iterations 5
linear solve U 26
[OGL LOG] init_host_sparsity_pattern : 18 ms
[OGL LOG] matrix not stored update host matrix
[OGL LOG] update_host_mtx : 9 ms
[OGL LOG] matrix is not yet sorted, sorting host matrix
[OGL LOG] sort_host_mtx_sparsity_pattern : 12 ms
[OGL LOG] sort_host_mtx : 6 ms
[OGL LOG] init_preconditioner : 0 ms
[OGL LOG] solve : 294 ms
noneompGKOBiCGStab:  Solving for p, Initial residual = 0.0303138, Final residual = 8.65793e-05, No Iterations 200
linear solve p 348
time step continuity errors : sum local = 1.00162e-07, global = 1.86109e-20, cumulative = 6.6651e-20
[OGL LOG] init_host_sparsity_pattern : 18 ms
[OGL LOG] matrix not stored update host matrix
[OGL LOG] update_host_mtx : 9 ms
[OGL LOG] matrix is not yet sorted, sorting host matrix
[OGL LOG] sort_host_mtx_sparsity_pattern : 12 ms
[OGL LOG] sort_host_mtx : 6 ms
[OGL LOG] init_preconditioner : 0 ms
[OGL LOG] solve : 124 ms
noneompGKOBiCGStab:  Solving for p, Initial residual = 0.0246425, Final residual = 8.86642e-05, No Iterations 84
linear solve p 179
time step continuity errors : sum local = 1.0111e-07, global = 5.21356e-21, cumulative = 7.18645e-20
ExecutionTime = 72.85 s  ClockTime = 5 s

Time = 0.007

Courant Number mean: 0.0502317 max: 0.348256
nonePBiCGStab:  Solving for Ux, Initial residual = 0.0161941, Final residual = 0.000152086, No Iterations 5
nonePBiCGStab:  Solving for Uy, Initial residual = 0.0287159, Final residual = 0.00023066, No Iterations 5
nonePBiCGStab:  Solving for Uz, Initial residual = 0.0578733, Final residual = 0.00146611, No Iterations 5
linear solve U 26
[OGL LOG] init_host_sparsity_pattern : 18 ms
[OGL LOG] matrix not stored update host matrix
[OGL LOG] update_host_mtx : 9 ms
[OGL LOG] matrix is not yet sorted, sorting host matrix
[OGL LOG] sort_host_mtx_sparsity_pattern : 13 ms
[OGL LOG] sort_host_mtx : 6 ms
[OGL LOG] init_preconditioner : 0 ms
[OGL LOG] solve : 254 ms
noneompGKOBiCGStab:  Solving for p, Initial residual = 0.023855, Final residual = 9.82452e-05, No Iterations 172
linear solve p 308
time step continuity errors : sum local = 1.74228e-07, global = 6.45105e-21, cumulative = 7.83156e-20
[OGL LOG] init_host_sparsity_pattern : 18 ms
[OGL LOG] matrix not stored update host matrix
[OGL LOG] update_host_mtx : 9 ms
[OGL LOG] matrix is not yet sorted, sorting host matrix
[OGL LOG] sort_host_mtx_sparsity_pattern : 12 ms
[OGL LOG] sort_host_mtx : 6 ms
[OGL LOG] init_preconditioner : 0 ms
[OGL LOG] solve : 123 ms
noneompGKOBiCGStab:  Solving for p, Initial residual = 0.0198062, Final residual = 9.55878e-05, No Iterations 83
linear solve p 178
time step continuity errors : sum local = 9.42725e-08, global = 5.16811e-21, cumulative = 8.34837e-20
ExecutionTime = 80.78 s  ClockTime = 6 s

Time = 0.008

Courant Number mean: 0.0528006 max: 0.35137
nonePBiCGStab:  Solving for Ux, Initial residual = 0.0133716, Final residual = 0.000100062, No Iterations 5
nonePBiCGStab:  Solving for Uy, Initial residual = 0.0235405, Final residual = 0.000118878, No Iterations 5
nonePBiCGStab:  Solving for Uz, Initial residual = 0.0472592, Final residual = 0.000815112, No Iterations 5
linear solve U 26
[OGL LOG] init_host_sparsity_pattern : 18 ms
[OGL LOG] matrix not stored update host matrix
[OGL LOG] update_host_mtx : 9 ms
[OGL LOG] matrix is not yet sorted, sorting host matrix
[OGL LOG] sort_host_mtx_sparsity_pattern : 13 ms
[OGL LOG] sort_host_mtx : 6 ms
[OGL LOG] init_preconditioner : 0 ms
[OGL LOG] solve : 115 ms
noneompGKOBiCGStab:  Solving for p, Initial residual = 0.018635, Final residual = 9.88713e-05, No Iterations 79
linear solve p 170
time step continuity errors : sum local = 8.83634e-08, global = 2.33972e-21, cumulative = 8.58234e-20
[OGL LOG] init_host_sparsity_pattern : 18 ms
[OGL LOG] matrix not stored update host matrix
[OGL LOG] update_host_mtx : 9 ms
[OGL LOG] matrix is not yet sorted, sorting host matrix
[OGL LOG] sort_host_mtx_sparsity_pattern : 12 ms
[OGL LOG] sort_host_mtx : 6 ms
[OGL LOG] init_preconditioner : 0 ms
[OGL LOG] solve : 113 ms
noneompGKOBiCGStab:  Solving for p, Initial residual = 0.0156661, Final residual = 9.34816e-05, No Iterations 77
linear solve p 168
time step continuity errors : sum local = 7.2868e-08, global = -6.07836e-20, cumulative = 2.50398e-20
ExecutionTime = 85.75 s  ClockTime = 6 s

Time = 0.009

Courant Number mean: 0.0549875 max: 0.35378
nonePBiCGStab:  Solving for Ux, Initial residual = 0.011138, Final residual = 7.6819e-05, No Iterations 5
nonePBiCGStab:  Solving for Uy, Initial residual = 0.0200213, Final residual = 0.000100031, No Iterations 5
nonePBiCGStab:  Solving for Uz, Initial residual = 0.0384455, Final residual = 0.000493164, No Iterations 5
linear solve U 26
[OGL LOG] init_host_sparsity_pattern : 18 ms
[OGL LOG] matrix not stored update host matrix
[OGL LOG] update_host_mtx : 9 ms
[OGL LOG] matrix is not yet sorted, sorting host matrix
[OGL LOG] sort_host_mtx_sparsity_pattern : 12 ms
[OGL LOG] sort_host_mtx : 6 ms
[OGL LOG] init_preconditioner : 0 ms
[OGL LOG] solve : 118 ms
noneompGKOBiCGStab:  Solving for p, Initial residual = 0.0158491, Final residual = 9.51227e-05, No Iterations 81
linear solve p 173
time step continuity errors : sum local = 8.94088e-08, global = -2.0382e-20, cumulative = 4.65776e-21
[OGL LOG] init_host_sparsity_pattern : 18 ms
[OGL LOG] matrix not stored update host matrix
[OGL LOG] update_host_mtx : 9 ms
[OGL LOG] matrix is not yet sorted, sorting host matrix
[OGL LOG] sort_host_mtx_sparsity_pattern : 12 ms
[OGL LOG] sort_host_mtx : 6 ms
[OGL LOG] init_preconditioner : 0 ms
[OGL LOG] solve : 117 ms
noneompGKOBiCGStab:  Solving for p, Initial residual = 0.0133883, Final residual = 7.14276e-05, No Iterations 80
linear solve p 172
time step continuity errors : sum local = 8.13443e-08, global = 6.75128e-21, cumulative = 1.1409e-20
ExecutionTime = 90.84 s  ClockTime = 7 s

Time = 0.01

Courant Number mean: 0.0568694 max: 0.355707
nonePBiCGStab:  Solving for Ux, Initial residual = 0.00952937, Final residual = 5.02949e-05, No Iterations 5
nonePBiCGStab:  Solving for Uy, Initial residual = 0.0171231, Final residual = 7.51388e-05, No Iterations 5
nonePBiCGStab:  Solving for Uz, Initial residual = 0.0335552, Final residual = 0.000286086, No Iterations 5
linear solve U 26
[OGL LOG] init_host_sparsity_pattern : 18 ms
[OGL LOG] matrix not stored update host matrix
[OGL LOG] update_host_mtx : 9 ms
[OGL LOG] matrix is not yet sorted, sorting host matrix
[OGL LOG] sort_host_mtx_sparsity_pattern : 12 ms
[OGL LOG] sort_host_mtx : 6 ms
[OGL LOG] init_preconditioner : 0 ms
[OGL LOG] solve : 115 ms
noneompGKOBiCGStab:  Solving for p, Initial residual = 0.0132021, Final residual = 7.30283e-05, No Iterations 79
linear solve p 170
time step continuity errors : sum local = 9.38591e-08, global = -1.44525e-20, cumulative = -3.04343e-21
[OGL LOG] init_host_sparsity_pattern : 18 ms
[OGL LOG] matrix not stored update host matrix
[OGL LOG] update_host_mtx : 9 ms
[OGL LOG] matrix is not yet sorted, sorting host matrix
[OGL LOG] sort_host_mtx_sparsity_pattern : 12 ms
[OGL LOG] sort_host_mtx : 6 ms
[OGL LOG] init_preconditioner : 0 ms
[OGL LOG] solve : 115 ms
noneompGKOBiCGStab:  Solving for p, Initial residual = 0.0112544, Final residual = 9.08083e-05, No Iterations 79
linear solve p 170
time step continuity errors : sum local = 7.71137e-08, global = 1.3307e-20, cumulative = 1.02636e-20
ExecutionTime = 95.85 s  ClockTime = 7 s

End

