/*---------------------------------------------------------------------------*\
  =========                 |
  \\      /  F ield         | OpenFOAM: The Open Source CFD Toolbox
   \\    /   O peration     | Website:  https://openfoam.org
    \\  /    A nd           | Version:  8
     \\/     M anipulation  |
\*---------------------------------------------------------------------------*/
Build  : 8-40a5a48f630f
Exec   : icoFoam
Date   : Jul 28 2021
Time   : 02:22:28
Host   : "uc2n476.localdomain"
PID    : 1920257
I/O    : uncollated
Case   : /pfs/data5/home/kit/scc/nq7776/code/OBR/lidDrivenCavity3D/Variation_mesh/40/Variation_matrix_solver/CG_NoPrecond_Serial/base
nProcs : 1
sigFpe : Enabling floating point exception trapping (FOAM_SIGFPE).
fileModificationChecking : Monitoring run-time modified files using timeStampMaster (fileModificationSkew 10)
allowSystemOperations : Allowing user-supplied system call operations

// * * * * * * * * * * * * * * * * * * * * * * * * * * * * * * * * * * * * * //
Create time

Create mesh for time = 0

Reading transportProperties

Reading field p

Reading field U

Reading/calculating face flux field phi


Starting time loop

Time = 0.001

Courant Number mean: 0 max: 0
nonePBiCGStab:  Solving for Ux, Initial residual = 1, Final residual = 0.0197517, No Iterations 5
nonePBiCGStab:  Solving for Uy, Initial residual = 0, Final residual = 0, No Iterations 0
nonePBiCGStab:  Solving for Uz, Initial residual = 0, Final residual = 0, No Iterations 0
linear solve U 14
nonePCG:  Solving for p, Initial residual = 1, Final residual = 9.75113e-05, No Iterations 310
linear solve p 219
time step continuity errors : sum local = 5.24521e-08, global = -1.96668e-20, cumulative = -1.96668e-20
nonePCG:  Solving for p, Initial residual = 0.598231, Final residual = 8.91093e-05, No Iterations 306
linear solve p 216
time step continuity errors : sum local = 7.19886e-08, global = 6.31423e-21, cumulative = -1.33526e-20
ExecutionTime = 0.73 s  ClockTime = 1 s

Time = 0.002

Courant Number mean: 0.0210244 max: 0.237018
nonePBiCGStab:  Solving for Ux, Initial residual = 0.177642, Final residual = 0.00670775, No Iterations 5
nonePBiCGStab:  Solving for Uy, Initial residual = 0.294212, Final residual = 0.00767226, No Iterations 5
nonePBiCGStab:  Solving for Uz, Initial residual = 0.957341, Final residual = 0.0372561, No Iterations 5
linear solve U 30
nonePCG:  Solving for p, Initial residual = 0.457547, Final residual = 7.75213e-05, No Iterations 304
linear solve p 195
time step continuity errors : sum local = 6.16785e-08, global = -1.38581e-20, cumulative = -2.72106e-20
nonePCG:  Solving for p, Initial residual = 0.360878, Final residual = 8.01288e-05, No Iterations 302
linear solve p 198
time step continuity errors : sum local = 6.63583e-08, global = -1.59624e-20, cumulative = -4.3173e-20
ExecutionTime = 1.18 s  ClockTime = 1 s

Time = 0.003

Courant Number mean: 0.0321026 max: 0.305901
nonePBiCGStab:  Solving for Ux, Initial residual = 0.0657761, Final residual = 0.0012412, No Iterations 5
nonePBiCGStab:  Solving for Uy, Initial residual = 0.107436, Final residual = 0.00172165, No Iterations 5
nonePBiCGStab:  Solving for Uz, Initial residual = 0.159298, Final residual = 0.00583313, No Iterations 5
linear solve U 28
nonePCG:  Solving for p, Initial residual = 0.162752, Final residual = 9.11444e-05, No Iterations 287
linear solve p 204
time step continuity errors : sum local = 5.83566e-08, global = 1.67685e-20, cumulative = -2.64046e-20
nonePCG:  Solving for p, Initial residual = 0.127415, Final residual = 9.56741e-05, No Iterations 284
linear solve p 179
time step continuity errors : sum local = 6.10299e-08, global = -4.77268e-21, cumulative = -3.11772e-20
ExecutionTime = 1.63 s  ClockTime = 2 s

Time = 0.004

Courant Number mean: 0.0386764 max: 0.327554
nonePBiCGStab:  Solving for Ux, Initial residual = 0.0387329, Final residual = 0.000519067, No Iterations 5
nonePBiCGStab:  Solving for Uy, Initial residual = 0.0670673, Final residual = 0.000634208, No Iterations 5
nonePBiCGStab:  Solving for Uz, Initial residual = 0.113076, Final residual = 0.00269049, No Iterations 5
linear solve U 30
nonePCG:  Solving for p, Initial residual = 0.084422, Final residual = 9.73208e-05, No Iterations 277
linear solve p 196
time step continuity errors : sum local = 6.0376e-08, global = 2.07333e-21, cumulative = -2.91039e-20
nonePCG:  Solving for p, Initial residual = 0.0650628, Final residual = 9.10067e-05, No Iterations 275
linear solve p 196
time step continuity errors : sum local = 5.72e-08, global = -1.83839e-20, cumulative = -4.74878e-20
ExecutionTime = 2.08 s  ClockTime = 2 s

Time = 0.005

Courant Number mean: 0.0434825 max: 0.337868
nonePBiCGStab:  Solving for Ux, Initial residual = 0.0269766, Final residual = 0.000295796, No Iterations 5
nonePBiCGStab:  Solving for Uy, Initial residual = 0.0465263, Final residual = 0.000392152, No Iterations 5
nonePBiCGStab:  Solving for Uz, Initial residual = 0.0802921, Final residual = 0.00157725, No Iterations 5
linear solve U 28
nonePCG:  Solving for p, Initial residual = 0.0436417, Final residual = 9.50968e-05, No Iterations 272
linear solve p 194
time step continuity errors : sum local = 5.89488e-08, global = -9.27534e-22, cumulative = -4.84153e-20
nonePCG:  Solving for p, Initial residual = 0.0350083, Final residual = 8.29884e-05, No Iterations 271
linear solve p 172
time step continuity errors : sum local = 5.16515e-08, global = 2.58955e-21, cumulative = -4.58258e-20
ExecutionTime = 2.52 s  ClockTime = 2 s

Time = 0.006

Courant Number mean: 0.0472031 max: 0.344032
nonePBiCGStab:  Solving for Ux, Initial residual = 0.0204447, Final residual = 0.000225065, No Iterations 5
nonePBiCGStab:  Solving for Uy, Initial residual = 0.0355731, Final residual = 0.000192997, No Iterations 5
nonePBiCGStab:  Solving for Uz, Initial residual = 0.0629284, Final residual = 0.000823565, No Iterations 5
linear solve U 30
nonePCG:  Solving for p, Initial residual = 0.0293279, Final residual = 9.829e-05, No Iterations 137
linear solve p 97
time step continuity errors : sum local = 7.49173e-08, global = -1.10313e-20, cumulative = -5.68571e-20
nonePCG:  Solving for p, Initial residual = 0.0239203, Final residual = 9.59693e-05, No Iterations 125
linear solve p 89
time step continuity errors : sum local = 6.48766e-08, global = -7.56685e-21, cumulative = -6.44239e-20
ExecutionTime = 2.76 s  ClockTime = 3 s

Time = 0.007

Courant Number mean: 0.0502373 max: 0.34826
nonePBiCGStab:  Solving for Ux, Initial residual = 0.0162551, Final residual = 0.000135525, No Iterations 5
nonePBiCGStab:  Solving for Uy, Initial residual = 0.0284586, Final residual = 0.000157862, No Iterations 5
nonePBiCGStab:  Solving for Uz, Initial residual = 0.0518076, Final residual = 0.000784894, No Iterations 5
linear solve U 28
nonePCG:  Solving for p, Initial residual = 0.0227804, Final residual = 8.9998e-05, No Iterations 126
linear solve p 90
time step continuity errors : sum local = 6.57339e-08, global = 2.52331e-20, cumulative = -3.91908e-20
nonePCG:  Solving for p, Initial residual = 0.0189871, Final residual = 9.78009e-05, No Iterations 121
linear solve p 78
time step continuity errors : sum local = 6.65975e-08, global = -1.93497e-20, cumulative = -5.85405e-20
ExecutionTime = 3 s  ClockTime = 3 s

Time = 0.008

Courant Number mean: 0.0528073 max: 0.351375
nonePBiCGStab:  Solving for Ux, Initial residual = 0.0133491, Final residual = 9.02166e-05, No Iterations 5
nonePBiCGStab:  Solving for Uy, Initial residual = 0.0235143, Final residual = 0.000100146, No Iterations 5
nonePBiCGStab:  Solving for Uz, Initial residual = 0.0437281, Final residual = 0.000468499, No Iterations 5
linear solve U 30
nonePCG:  Solving for p, Initial residual = 0.0180705, Final residual = 9.65024e-05, No Iterations 123
linear solve p 87
time step continuity errors : sum local = 7.22573e-08, global = 1.99816e-22, cumulative = -5.83407e-20
nonePCG:  Solving for p, Initial residual = 0.0152185, Final residual = 9.54505e-05, No Iterations 118
linear solve p 84
time step continuity errors : sum local = 6.70026e-08, global = -3.55816e-20, cumulative = -9.39223e-20
ExecutionTime = 3.23 s  ClockTime = 3 s

Time = 0.009

Courant Number mean: 0.0549945 max: 0.353787
nonePBiCGStab:  Solving for Ux, Initial residual = 0.0112083, Final residual = 6.76929e-05, No Iterations 5
nonePBiCGStab:  Solving for Uy, Initial residual = 0.0198645, Final residual = 8.2491e-05, No Iterations 5
nonePBiCGStab:  Solving for Uz, Initial residual = 0.0375613, Final residual = 0.000424992, No Iterations 5
linear solve U 28
nonePCG:  Solving for p, Initial residual = 0.0151744, Final residual = 9.83744e-05, No Iterations 120
linear solve p 86
time step continuity errors : sum local = 7.27914e-08, global = 2.15699e-20, cumulative = -7.23524e-20
nonePCG:  Solving for p, Initial residual = 0.0128412, Final residual = 9.23444e-05, No Iterations 117
linear solve p 75
time step continuity errors : sum local = 6.58674e-08, global = -1.74026e-20, cumulative = -8.9755e-20
ExecutionTime = 3.45 s  ClockTime = 3 s

Time = 0.01

Courant Number mean: 0.0568767 max: 0.355714
nonePBiCGStab:  Solving for Ux, Initial residual = 0.00956516, Final residual = 4.57575e-05, No Iterations 5
nonePBiCGStab:  Solving for Uy, Initial residual = 0.0170655, Final residual = 5.94279e-05, No Iterations 5
nonePBiCGStab:  Solving for Uz, Initial residual = 0.0327031, Final residual = 0.000271001, No Iterations 5
linear solve U 30
nonePCG:  Solving for p, Initial residual = 0.0129104, Final residual = 9.65373e-05, No Iterations 118
linear solve p 84
time step continuity errors : sum local = 7.2545e-08, global = 5.57711e-21, cumulative = -8.41779e-20
nonePCG:  Solving for p, Initial residual = 0.0109605, Final residual = 9.73762e-05, No Iterations 113
linear solve p 80
time step continuity errors : sum local = 7.00879e-08, global = -1.48234e-20, cumulative = -9.90012e-20
ExecutionTime = 3.69 s  ClockTime = 4 s

End

