/*---------------------------------------------------------------------------*\
  =========                 |
  \\      /  F ield         | OpenFOAM: The Open Source CFD Toolbox
   \\    /   O peration     | Website:  https://openfoam.org
    \\  /    A nd           | Version:  8
     \\/     M anipulation  |
\*---------------------------------------------------------------------------*/
Build  : 8-14d69e1ee166
Exec   : icoFoam
Date   : Jul 29 2021
Time   : 04:57:42
Host   : "guyot.icl.utk.edu"
PID    : 225558
I/O    : uncollated
Case   : /home/greole/code/OBR/lidDrivenCavity3D/Variation_mesh/60/Variation_matrix_solver/CG_BJ_CUDA/base
nProcs : 1
sigFpe : Enabling floating point exception trapping (FOAM_SIGFPE).
fileModificationChecking : Monitoring run-time modified files using timeStampMaster (fileModificationSkew 10)
allowSystemOperations : Allowing user-supplied system call operations

// * * * * * * * * * * * * * * * * * * * * * * * * * * * * * * * * * * * * * //
Create time

Create mesh for time = 0

Reading transportProperties

Reading field p

Reading field U

Reading/calculating face flux field phi


Starting time loop

Time = 0.001

Courant Number mean: 0 max: 0
DILUPBiCGStab:  Solving for Ux, Initial residual = 1, Final residual = 0.000527977, No Iterations 5
DILUPBiCGStab:  Solving for Uy:  solution singularity
DILUPBiCGStab:  Solving for Uz:  solution singularity
linear solve U 83390
[OGL LOG] init_host_sparsity_pattern : 97 ms
[OGL LOG] matrix not stored update host matrix
[OGL LOG] update_host_mtx : 49 ms
[OGL LOG] matrix is not yet sorted, compute sorting idxs
[OGL LOG] compute_sort : 2039 ms
[OGL LOG] matrix is not yet sorted, sorting host matrix
[OGL LOG] sort_host_mtx_sparsity_pattern : 39 ms
[OGL LOG] sort_host_mtx : 24 ms
[OGL LOG] init_preconditioner : 33 ms
 CG create  precond 
[OGL LOG] solve : 219 ms
BJcudaGKOCG:  Solving for p, Initial residual = 1, Final residual = 9.52829e-05, No Iterations 396
linear solve p 4160965
time step continuity errors : sum local = 5.581e-08, global = 3.07331e-21, cumulative = 3.07331e-21
[OGL LOG] init_host_sparsity_pattern : 93 ms
[OGL LOG] matrix not stored update host matrix
[OGL LOG] update_host_mtx : 49 ms
[OGL LOG] matrix is not yet sorted, sorting host matrix
[OGL LOG] sort_host_mtx_sparsity_pattern : 36 ms
[OGL LOG] sort_host_mtx : 22 ms
[OGL LOG] init_preconditioner : 0 ms
 CG create  precond 
[OGL LOG] solve : 199 ms
BJcudaGKOCG:  Solving for p, Initial residual = 0.69554, Final residual = 9.78524e-05, No Iterations 373
linear solve p 415725
time step continuity errors : sum local = 7.82792e-08, global = 5.03546e-21, cumulative = 8.10877e-21
ExecutionTime = 5.64 s  ClockTime = 5 s

Time = 0.002

Courant Number mean: 0.0334999 max: 0.423482
DILUPBiCGStab:  Solving for Ux, Initial residual = 0.157977, Final residual = 0.000145596, No Iterations 5
DILUPBiCGStab:  Solving for Uy, Initial residual = 0.339075, Final residual = 0.000249791, No Iterations 5
DILUPBiCGStab:  Solving for Uz, Initial residual = 0.98025, Final residual = 0.000934667, No Iterations 5
linear solve U 169298
[OGL LOG] init_host_sparsity_pattern : 91 ms
[OGL LOG] matrix not stored update host matrix
[OGL LOG] update_host_mtx : 48 ms
[OGL LOG] matrix is not yet sorted, sorting host matrix
[OGL LOG] sort_host_mtx_sparsity_pattern : 36 ms
[OGL LOG] sort_host_mtx : 22 ms
[OGL LOG] init_preconditioner : 0 ms
 CG create  precond 
[OGL LOG] solve : 201 ms
BJcudaGKOCG:  Solving for p, Initial residual = 0.615123, Final residual = 9.41254e-05, No Iterations 375
linear solve p 415316
time step continuity errors : sum local = 7.74624e-08, global = -1.83855e-23, cumulative = 8.09039e-21
[OGL LOG] init_host_sparsity_pattern : 94 ms
[OGL LOG] matrix not stored update host matrix
[OGL LOG] update_host_mtx : 48 ms
[OGL LOG] matrix is not yet sorted, sorting host matrix
[OGL LOG] sort_host_mtx_sparsity_pattern : 36 ms
[OGL LOG] sort_host_mtx : 22 ms
[OGL LOG] init_preconditioner : 0 ms
 CG create  precond 
[OGL LOG] solve : 198 ms
BJcudaGKOCG:  Solving for p, Initial residual = 0.535156, Final residual = 9.86562e-05, No Iterations 370
linear solve p 415883
time step continuity errors : sum local = 8.34056e-08, global = -1.25132e-21, cumulative = 6.83907e-21
ExecutionTime = 6.75 s  ClockTime = 6 s

Time = 0.003

Courant Number mean: 0.050297 max: 0.512856
DILUPBiCGStab:  Solving for Ux, Initial residual = 0.0504841, Final residual = 3.33665e-05, No Iterations 5
DILUPBiCGStab:  Solving for Uy, Initial residual = 0.103208, Final residual = 6.93949e-05, No Iterations 5
DILUPBiCGStab:  Solving for Uz, Initial residual = 0.278937, Final residual = 0.000240335, No Iterations 5
linear solve U 168817
[OGL LOG] init_host_sparsity_pattern : 91 ms
[OGL LOG] matrix not stored update host matrix
[OGL LOG] update_host_mtx : 48 ms
[OGL LOG] matrix is not yet sorted, sorting host matrix
[OGL LOG] sort_host_mtx_sparsity_pattern : 35 ms
[OGL LOG] sort_host_mtx : 22 ms
[OGL LOG] init_preconditioner : 0 ms
 CG create  precond 
[OGL LOG] solve : 197 ms
BJcudaGKOCG:  Solving for p, Initial residual = 0.472524, Final residual = 9.22172e-05, No Iterations 367
linear solve p 410008
time step continuity errors : sum local = 5.27647e-08, global = 6.18876e-21, cumulative = 1.30278e-20
[OGL LOG] init_host_sparsity_pattern : 94 ms
[OGL LOG] matrix not stored update host matrix
[OGL LOG] update_host_mtx : 46 ms
[OGL LOG] matrix is not yet sorted, sorting host matrix
[OGL LOG] sort_host_mtx_sparsity_pattern : 35 ms
[OGL LOG] sort_host_mtx : 23 ms
[OGL LOG] init_preconditioner : 0 ms
 CG create  precond 
[OGL LOG] solve : 195 ms
BJcudaGKOCG:  Solving for p, Initial residual = 0.416402, Final residual = 9.68792e-05, No Iterations 365
linear solve p 409498
time step continuity errors : sum local = 5.39429e-08, global = 1.09804e-20, cumulative = 2.40082e-20
ExecutionTime = 7.84 s  ClockTime = 7 s

Time = 0.004

Courant Number mean: 0.0595684 max: 0.529583
DILUPBiCGStab:  Solving for Ux, Initial residual = 0.0299453, Final residual = 2.01427e-05, No Iterations 5
DILUPBiCGStab:  Solving for Uy, Initial residual = 0.0669857, Final residual = 2.38543e-05, No Iterations 5
DILUPBiCGStab:  Solving for Uz, Initial residual = 0.166293, Final residual = 0.000110305, No Iterations 5
linear solve U 169699
[OGL LOG] init_host_sparsity_pattern : 94 ms
[OGL LOG] matrix not stored update host matrix
[OGL LOG] update_host_mtx : 48 ms
[OGL LOG] matrix is not yet sorted, sorting host matrix
[OGL LOG] sort_host_mtx_sparsity_pattern : 35 ms
[OGL LOG] sort_host_mtx : 22 ms
[OGL LOG] init_preconditioner : 0 ms
 CG create  precond 
[OGL LOG] solve : 190 ms
BJcudaGKOCG:  Solving for p, Initial residual = 0.251303, Final residual = 9.89257e-05, No Iterations 355
linear solve p 405314
time step continuity errors : sum local = 5.14387e-08, global = 2.7272e-21, cumulative = 2.67354e-20
[OGL LOG] init_host_sparsity_pattern : 91 ms
[OGL LOG] matrix not stored update host matrix
[OGL LOG] update_host_mtx : 46 ms
[OGL LOG] matrix is not yet sorted, sorting host matrix
[OGL LOG] sort_host_mtx_sparsity_pattern : 38 ms
[OGL LOG] sort_host_mtx : 22 ms
[OGL LOG] init_preconditioner : 0 ms
 CG create  precond 
[OGL LOG] solve : 190 ms
BJcudaGKOCG:  Solving for p, Initial residual = 0.204842, Final residual = 9.69937e-05, No Iterations 353
linear solve p 404413
time step continuity errors : sum local = 5.10349e-08, global = 3.85661e-20, cumulative = 6.53016e-20
ExecutionTime = 8.93 s  ClockTime = 9 s

Time = 0.005

Courant Number mean: 0.0665842 max: 0.539163
DILUPBiCGStab:  Solving for Ux, Initial residual = 0.0211092, Final residual = 6.93296e-06, No Iterations 5
DILUPBiCGStab:  Solving for Uy, Initial residual = 0.0441359, Final residual = 1.76444e-05, No Iterations 5
DILUPBiCGStab:  Solving for Uz, Initial residual = 0.0711599, Final residual = 4.53273e-05, No Iterations 5
linear solve U 167273
[OGL LOG] init_host_sparsity_pattern : 94 ms
[OGL LOG] matrix not stored update host matrix
[OGL LOG] update_host_mtx : 48 ms
[OGL LOG] matrix is not yet sorted, sorting host matrix
[OGL LOG] sort_host_mtx_sparsity_pattern : 35 ms
[OGL LOG] sort_host_mtx : 22 ms
[OGL LOG] init_preconditioner : 0 ms
 CG create  precond 
[OGL LOG] solve : 180 ms
BJcudaGKOCG:  Solving for p, Initial residual = 0.15338, Final residual = 9.04931e-05, No Iterations 340
linear solve p 395797
time step continuity errors : sum local = 4.28655e-08, global = 9.72579e-21, cumulative = 7.50274e-20
[OGL LOG] init_host_sparsity_pattern : 93 ms
[OGL LOG] matrix not stored update host matrix
[OGL LOG] update_host_mtx : 48 ms
[OGL LOG] matrix is not yet sorted, sorting host matrix
[OGL LOG] sort_host_mtx_sparsity_pattern : 35 ms
[OGL LOG] sort_host_mtx : 22 ms
[OGL LOG] init_preconditioner : 0 ms
 CG create  precond 
[OGL LOG] solve : 183 ms
BJcudaGKOCG:  Solving for p, Initial residual = 0.126919, Final residual = 8.81062e-05, No Iterations 339
linear solve p 397238
time step continuity errors : sum local = 4.15764e-08, global = 1.14918e-20, cumulative = 8.65192e-20
ExecutionTime = 10 s  ClockTime = 10 s

Time = 0.006

Courant Number mean: 0.072044 max: 0.544954
DILUPBiCGStab:  Solving for Ux, Initial residual = 0.0159387, Final residual = 7.3284e-06, No Iterations 5
DILUPBiCGStab:  Solving for Uy, Initial residual = 0.0337412, Final residual = 6.49242e-06, No Iterations 5
DILUPBiCGStab:  Solving for Uz, Initial residual = 0.061682, Final residual = 2.86475e-05, No Iterations 5
linear solve U 167444
[OGL LOG] init_host_sparsity_pattern : 92 ms
[OGL LOG] matrix not stored update host matrix
[OGL LOG] update_host_mtx : 48 ms
[OGL LOG] matrix is not yet sorted, sorting host matrix
[OGL LOG] sort_host_mtx_sparsity_pattern : 35 ms
[OGL LOG] sort_host_mtx : 23 ms
[OGL LOG] init_preconditioner : 0 ms
 CG create  precond 
[OGL LOG] solve : 90 ms
BJcudaGKOCG:  Solving for p, Initial residual = 0.0896305, Final residual = 9.56257e-05, No Iterations 167
linear solve p 304005
time step continuity errors : sum local = 5.41772e-08, global = -1.8573e-20, cumulative = 6.79462e-20
[OGL LOG] init_host_sparsity_pattern : 93 ms
[OGL LOG] matrix not stored update host matrix
[OGL LOG] update_host_mtx : 46 ms
[OGL LOG] matrix is not yet sorted, sorting host matrix
[OGL LOG] sort_host_mtx_sparsity_pattern : 35 ms
[OGL LOG] sort_host_mtx : 23 ms
[OGL LOG] init_preconditioner : 0 ms
 CG create  precond 
[OGL LOG] solve : 86 ms
BJcudaGKOCG:  Solving for p, Initial residual = 0.0730722, Final residual = 9.96351e-05, No Iterations 158
linear solve p 299731
time step continuity errors : sum local = 4.95621e-08, global = -1.27262e-20, cumulative = 5.522e-20
ExecutionTime = 10.87 s  ClockTime = 10 s

Time = 0.007

Courant Number mean: 0.0764962 max: 0.548953
DILUPBiCGStab:  Solving for Ux, Initial residual = 0.0126887, Final residual = 2.29182e-06, No Iterations 5
DILUPBiCGStab:  Solving for Uy, Initial residual = 0.0269577, Final residual = 6.11523e-06, No Iterations 5
DILUPBiCGStab:  Solving for Uz, Initial residual = 0.0488436, Final residual = 1.81123e-05, No Iterations 5
linear solve U 168482
[OGL LOG] init_host_sparsity_pattern : 94 ms
[OGL LOG] matrix not stored update host matrix
[OGL LOG] update_host_mtx : 48 ms
[OGL LOG] matrix is not yet sorted, sorting host matrix
[OGL LOG] sort_host_mtx_sparsity_pattern : 35 ms
[OGL LOG] sort_host_mtx : 22 ms
[OGL LOG] init_preconditioner : 0 ms
 CG create  precond 
[OGL LOG] solve : 86 ms
BJcudaGKOCG:  Solving for p, Initial residual = 0.0575571, Final residual = 9.47938e-05, No Iterations 157
linear solve p 300913
time step continuity errors : sum local = 4.48827e-08, global = 8.19966e-21, cumulative = 6.34196e-20
[OGL LOG] init_host_sparsity_pattern : 93 ms
[OGL LOG] matrix not stored update host matrix
[OGL LOG] update_host_mtx : 46 ms
[OGL LOG] matrix is not yet sorted, sorting host matrix
[OGL LOG] sort_host_mtx_sparsity_pattern : 36 ms
[OGL LOG] sort_host_mtx : 23 ms
[OGL LOG] init_preconditioner : 0 ms
 CG create  precond 
[OGL LOG] solve : 84 ms
BJcudaGKOCG:  Solving for p, Initial residual = 0.0478695, Final residual = 9.88341e-05, No Iterations 155
linear solve p 298815
time step continuity errors : sum local = 4.62929e-08, global = 1.47424e-20, cumulative = 7.8162e-20
ExecutionTime = 11.75 s  ClockTime = 11 s

Time = 0.008

Courant Number mean: 0.0802502 max: 0.551942
DILUPBiCGStab:  Solving for Ux, Initial residual = 0.0104508, Final residual = 2.04155e-06, No Iterations 5
DILUPBiCGStab:  Solving for Uy, Initial residual = 0.0222143, Final residual = 2.10286e-06, No Iterations 5
DILUPBiCGStab:  Solving for Uz, Initial residual = 0.0411416, Final residual = 1.20567e-05, No Iterations 5
linear solve U 167434
[OGL LOG] init_host_sparsity_pattern : 94 ms
[OGL LOG] matrix not stored update host matrix
[OGL LOG] update_host_mtx : 48 ms
[OGL LOG] matrix is not yet sorted, sorting host matrix
[OGL LOG] sort_host_mtx_sparsity_pattern : 36 ms
[OGL LOG] sort_host_mtx : 22 ms
[OGL LOG] init_preconditioner : 0 ms
 CG create  precond 
[OGL LOG] solve : 89 ms
BJcudaGKOCG:  Solving for p, Initial residual = 0.0380525, Final residual = 9.41299e-05, No Iterations 158
linear solve p 305258
time step continuity errors : sum local = 5.1374e-08, global = 6.75666e-21, cumulative = 8.49187e-20
[OGL LOG] init_host_sparsity_pattern : 93 ms
[OGL LOG] matrix not stored update host matrix
[OGL LOG] update_host_mtx : 48 ms
[OGL LOG] matrix is not yet sorted, sorting host matrix
[OGL LOG] sort_host_mtx_sparsity_pattern : 35 ms
[OGL LOG] sort_host_mtx : 22 ms
[OGL LOG] init_preconditioner : 0 ms
 CG create  precond 
[OGL LOG] solve : 86 ms
BJcudaGKOCG:  Solving for p, Initial residual = 0.0320644, Final residual = 9.79386e-05, No Iterations 152
linear solve p 300952
time step continuity errors : sum local = 4.80554e-08, global = -1.09131e-20, cumulative = 7.40056e-20
ExecutionTime = 12.63 s  ClockTime = 12 s

Time = 0.009

Courant Number mean: 0.083451 max: 0.554252
DILUPBiCGStab:  Solving for Ux, Initial residual = 0.00878074, Final residual = 8.65991e-07, No Iterations 5
DILUPBiCGStab:  Solving for Uy, Initial residual = 0.0188307, Final residual = 3.0867e-06, No Iterations 5
DILUPBiCGStab:  Solving for Uz, Initial residual = 0.035534, Final residual = 9.43151e-06, No Iterations 5
linear solve U 167657
[OGL LOG] init_host_sparsity_pattern : 94 ms
[OGL LOG] matrix not stored update host matrix
[OGL LOG] update_host_mtx : 48 ms
[OGL LOG] matrix is not yet sorted, sorting host matrix
[OGL LOG] sort_host_mtx_sparsity_pattern : 36 ms
[OGL LOG] sort_host_mtx : 22 ms
[OGL LOG] init_preconditioner : 0 ms
 CG create  precond 
[OGL LOG] solve : 85 ms
BJcudaGKOCG:  Solving for p, Initial residual = 0.0273917, Final residual = 9.38988e-05, No Iterations 151
linear solve p 301305
time step continuity errors : sum local = 4.34715e-08, global = 4.08199e-21, cumulative = 7.80876e-20
[OGL LOG] init_host_sparsity_pattern : 93 ms
[OGL LOG] matrix not stored update host matrix
[OGL LOG] update_host_mtx : 48 ms
[OGL LOG] matrix is not yet sorted, sorting host matrix
[OGL LOG] sort_host_mtx_sparsity_pattern : 36 ms
[OGL LOG] sort_host_mtx : 23 ms
[OGL LOG] init_preconditioner : 0 ms
 CG create  precond 
[OGL LOG] solve : 84 ms
BJcudaGKOCG:  Solving for p, Initial residual = 0.0237456, Final residual = 9.32683e-05, No Iterations 150
linear solve p 300975
time step continuity errors : sum local = 4.38298e-08, global = -1.03999e-21, cumulative = 7.70476e-20
ExecutionTime = 13.5 s  ClockTime = 13 s

Time = 0.01

Courant Number mean: 0.0862267 max: 0.556108
DILUPBiCGStab:  Solving for Ux, Initial residual = 0.00752365, Final residual = 7.56389e-07, No Iterations 5
DILUPBiCGStab:  Solving for Uy, Initial residual = 0.0161598, Final residual = 1.18756e-06, No Iterations 5
DILUPBiCGStab:  Solving for Uz, Initial residual = 0.0308859, Final residual = 6.67133e-06, No Iterations 5
linear solve U 168694
[OGL LOG] init_host_sparsity_pattern : 94 ms
[OGL LOG] matrix not stored update host matrix
[OGL LOG] update_host_mtx : 48 ms
[OGL LOG] matrix is not yet sorted, sorting host matrix
[OGL LOG] sort_host_mtx_sparsity_pattern : 35 ms
[OGL LOG] sort_host_mtx : 23 ms
[OGL LOG] init_preconditioner : 0 ms
 CG create  precond 
[OGL LOG] solve : 86 ms
BJcudaGKOCG:  Solving for p, Initial residual = 0.0200783, Final residual = 9.42791e-05, No Iterations 152
linear solve p 302204
time step continuity errors : sum local = 5.0933e-08, global = 2.08925e-20, cumulative = 9.79401e-20
[OGL LOG] init_host_sparsity_pattern : 93 ms
[OGL LOG] matrix not stored update host matrix
[OGL LOG] update_host_mtx : 48 ms
[OGL LOG] matrix is not yet sorted, sorting host matrix
[OGL LOG] sort_host_mtx_sparsity_pattern : 35 ms
[OGL LOG] sort_host_mtx : 22 ms
[OGL LOG] init_preconditioner : 0 ms
 CG create  precond 
[OGL LOG] solve : 83 ms
BJcudaGKOCG:  Solving for p, Initial residual = 0.0177664, Final residual = 9.79447e-05, No Iterations 147
linear solve p 297716
time step continuity errors : sum local = 4.82662e-08, global = 4.41397e-21, cumulative = 1.02354e-19
ExecutionTime = 14.37 s  ClockTime = 14 s

End

