/*---------------------------------------------------------------------------*\
  =========                 |
  \\      /  F ield         | OpenFOAM: The Open Source CFD Toolbox
   \\    /   O peration     | Website:  https://openfoam.org
    \\  /    A nd           | Version:  8
     \\/     M anipulation  |
\*---------------------------------------------------------------------------*/
Build  : 8-14d69e1ee166
Exec   : icoFoam
Date   : Jul 29 2021
Time   : 04:52:51
Host   : "guyot.icl.utk.edu"
PID    : 214562
I/O    : uncollated
Case   : /home/greole/code/OBR/lidDrivenCavity3D/Variation_mesh/55/Variation_matrix_solver/BiCGStab_DIC_Serial/base
nProcs : 1
sigFpe : Enabling floating point exception trapping (FOAM_SIGFPE).
fileModificationChecking : Monitoring run-time modified files using timeStampMaster (fileModificationSkew 10)
allowSystemOperations : Allowing user-supplied system call operations

// * * * * * * * * * * * * * * * * * * * * * * * * * * * * * * * * * * * * * //
Create time

Create mesh for time = 0

Reading transportProperties

Reading field p

Reading field U

Reading/calculating face flux field phi


Starting time loop

Time = 0.001

Courant Number mean: 0 max: 0
DILUPBiCGStab:  Solving for Ux, Initial residual = 1, Final residual = 0.000272743, No Iterations 5
DILUPBiCGStab:  Solving for Uy:  solution singularity
DILUPBiCGStab:  Solving for Uz:  solution singularity
linear solve U 63652
DICPBiCGStab:  Solving for p, Initial residual = 1, Final residual = 6.9566e-05, No Iterations 105
linear solve p 686533
time step continuity errors : sum local = 7.64616e-08, global = -3.83047e-21, cumulative = -3.83047e-21
DICPBiCGStab:  Solving for p, Initial residual = 0.678438, Final residual = 2.30997e-05, No Iterations 101
linear solve p 661809
time step continuity errors : sum local = 2.15614e-08, global = -1.46494e-20, cumulative = -1.84798e-20
ExecutionTime = 2.22 s  ClockTime = 2 s

Time = 0.002

Courant Number mean: 0.0305076 max: 0.37634
DILUPBiCGStab:  Solving for Ux, Initial residual = 0.16217, Final residual = 6.90611e-05, No Iterations 5
DILUPBiCGStab:  Solving for Uy, Initial residual = 0.327378, Final residual = 0.000109944, No Iterations 5
DILUPBiCGStab:  Solving for Uz, Initial residual = 0.976046, Final residual = 0.000433935, No Iterations 5
linear solve U 119532
DICPBiCGStab:  Solving for p, Initial residual = 0.580298, Final residual = 9.52439e-05, No Iterations 95
linear solve p 610299
time step continuity errors : sum local = 1.54454e-07, global = -1.98925e-20, cumulative = -3.83723e-20
DICPBiCGStab:  Solving for p, Initial residual = 0.497718, Final residual = 5.91717e-05, No Iterations 97
linear solve p 633957
time step continuity errors : sum local = 8.32034e-08, global = -1.57993e-20, cumulative = -5.41716e-20
ExecutionTime = 3.65 s  ClockTime = 4 s

Time = 0.003

Courant Number mean: 0.0458501 max: 0.461218
DILUPBiCGStab:  Solving for Ux, Initial residual = 0.0526482, Final residual = 2.21586e-05, No Iterations 5
DILUPBiCGStab:  Solving for Uy, Initial residual = 0.0996156, Final residual = 3.09651e-05, No Iterations 5
DILUPBiCGStab:  Solving for Uz, Initial residual = 0.21851, Final residual = 0.000104047, No Iterations 5
linear solve U 120584
DICPBiCGStab:  Solving for p, Initial residual = 0.392166, Final residual = 9.86261e-05, No Iterations 97
linear solve p 639007
time step continuity errors : sum local = 7.44992e-08, global = -1.71323e-20, cumulative = -7.13039e-20
DICPBiCGStab:  Solving for p, Initial residual = 0.337794, Final residual = 9.91313e-05, No Iterations 81
linear solve p 523100
time step continuity errors : sum local = 1.1021e-07, global = -6.61851e-21, cumulative = -7.79224e-20
ExecutionTime = 5 s  ClockTime = 5 s

Time = 0.004

Courant Number mean: 0.0544881 max: 0.479445
DILUPBiCGStab:  Solving for Ux, Initial residual = 0.0311715, Final residual = 6.61509e-06, No Iterations 5
DILUPBiCGStab:  Solving for Uy, Initial residual = 0.0650916, Final residual = 1.16862e-05, No Iterations 5
DILUPBiCGStab:  Solving for Uz, Initial residual = 0.166363, Final residual = 6.7473e-05, No Iterations 5
linear solve U 119307
DICPBiCGStab:  Solving for p, Initial residual = 0.196531, Final residual = 9.14241e-05, No Iterations 95
linear solve p 627473
time step continuity errors : sum local = 7.55399e-08, global = 2.08971e-20, cumulative = -5.70253e-20
DICPBiCGStab:  Solving for p, Initial residual = 0.158365, Final residual = 9.76906e-05, No Iterations 98
linear solve p 634058
time step continuity errors : sum local = 6.50344e-08, global = 1.69604e-20, cumulative = -4.00649e-20
ExecutionTime = 6.45 s  ClockTime = 6 s

Time = 0.005

Courant Number mean: 0.0609414 max: 0.489053
DILUPBiCGStab:  Solving for Ux, Initial residual = 0.0221022, Final residual = 5.50923e-06, No Iterations 5
DILUPBiCGStab:  Solving for Uy, Initial residual = 0.0440282, Final residual = 7.4629e-06, No Iterations 5
DILUPBiCGStab:  Solving for Uz, Initial residual = 0.0873529, Final residual = 2.68932e-05, No Iterations 5
linear solve U 119149
DICPBiCGStab:  Solving for p, Initial residual = 0.109319, Final residual = 7.12751e-05, No Iterations 88
linear solve p 570835
time step continuity errors : sum local = 6.13055e-08, global = -7.06919e-21, cumulative = -4.71341e-20
DICPBiCGStab:  Solving for p, Initial residual = 0.0896652, Final residual = 6.57405e-05, No Iterations 79
linear solve p 517181
time step continuity errors : sum local = 6.42048e-08, global = 7.83669e-21, cumulative = -3.92974e-20
ExecutionTime = 7.72 s  ClockTime = 8 s

Time = 0.006

Courant Number mean: 0.0659416 max: 0.494878
DILUPBiCGStab:  Solving for Ux, Initial residual = 0.0166603, Final residual = 3.53294e-06, No Iterations 5
DILUPBiCGStab:  Solving for Uy, Initial residual = 0.0340954, Final residual = 2.19656e-06, No Iterations 5
DILUPBiCGStab:  Solving for Uz, Initial residual = 0.0724072, Final residual = 2.305e-05, No Iterations 5
linear solve U 119546
DICPBiCGStab:  Solving for p, Initial residual = 0.066453, Final residual = 9.7335e-05, No Iterations 85
linear solve p 572679
time step continuity errors : sum local = 9.62297e-08, global = -2.37782e-23, cumulative = -3.93212e-20
DICPBiCGStab:  Solving for p, Initial residual = 0.0545378, Final residual = 8.35117e-05, No Iterations 38
linear solve p 254375
time step continuity errors : sum local = 5.91218e-08, global = 6.52365e-21, cumulative = -3.27975e-20
ExecutionTime = 8.73 s  ClockTime = 9 s

Time = 0.007

Courant Number mean: 0.0700491 max: 0.49891
DILUPBiCGStab:  Solving for Ux, Initial residual = 0.0134322, Final residual = 1.6564e-06, No Iterations 5
DILUPBiCGStab:  Solving for Uy, Initial residual = 0.0270598, Final residual = 2.93629e-06, No Iterations 5
DILUPBiCGStab:  Solving for Uz, Initial residual = 0.0622179, Final residual = 1.92086e-05, No Iterations 5
linear solve U 121512
DICPBiCGStab:  Solving for p, Initial residual = 0.0426639, Final residual = 8.39603e-05, No Iterations 83
linear solve p 560622
time step continuity errors : sum local = 8.21686e-08, global = 3.6667e-22, cumulative = -3.24308e-20
DICPBiCGStab:  Solving for p, Initial residual = 0.0361627, Final residual = 9.99859e-05, No Iterations 61
linear solve p 410974
time step continuity errors : sum local = 9.81454e-08, global = 8.23983e-21, cumulative = -2.4191e-20
ExecutionTime = 9.89 s  ClockTime = 10 s

Time = 0.008

Courant Number mean: 0.0734881 max: 0.501905
DILUPBiCGStab:  Solving for Ux, Initial residual = 0.0109421, Final residual = 8.25016e-07, No Iterations 5
DILUPBiCGStab:  Solving for Uy, Initial residual = 0.0227877, Final residual = 1.30382e-06, No Iterations 5
DILUPBiCGStab:  Solving for Uz, Initial residual = 0.0569262, Final residual = 2.00373e-05, No Iterations 5
linear solve U 121912
DICPBiCGStab:  Solving for p, Initial residual = 0.0318047, Final residual = 9.99675e-05, No Iterations 78
linear solve p 514171
time step continuity errors : sum local = 7.59687e-08, global = -6.35301e-21, cumulative = -3.0544e-20
DICPBiCGStab:  Solving for p, Initial residual = 0.0275176, Final residual = 9.9525e-05, No Iterations 74
linear solve p 488239
time step continuity errors : sum local = 9.66755e-08, global = -8.45156e-21, cumulative = -3.89956e-20
ExecutionTime = 11.08 s  ClockTime = 11 s

Time = 0.009

Courant Number mean: 0.076419 max: 0.504223
DILUPBiCGStab:  Solving for Ux, Initial residual = 0.00938913, Final residual = 6.18549e-07, No Iterations 5
DILUPBiCGStab:  Solving for Uy, Initial residual = 0.0189478, Final residual = 1.34654e-06, No Iterations 5
DILUPBiCGStab:  Solving for Uz, Initial residual = 0.0482063, Final residual = 1.51391e-05, No Iterations 5
linear solve U 122539
DICPBiCGStab:  Solving for p, Initial residual = 0.0253583, Final residual = 9.24216e-05, No Iterations 86
linear solve p 570854
time step continuity errors : sum local = 5.66835e-08, global = -1.39034e-20, cumulative = -5.28989e-20
DICPBiCGStab:  Solving for p, Initial residual = 0.0224825, Final residual = 8.02505e-06, No Iterations 88
linear solve p 584000
time step continuity errors : sum local = 7.14978e-09, global = 1.75352e-20, cumulative = -3.53637e-20
ExecutionTime = 12.43 s  ClockTime = 12 s

Time = 0.01

Courant Number mean: 0.078978 max: 0.506079
DILUPBiCGStab:  Solving for Ux, Initial residual = 0.0079268, Final residual = 3.81499e-07, No Iterations 5
DILUPBiCGStab:  Solving for Uy, Initial residual = 0.0164588, Final residual = 7.07946e-07, No Iterations 5
DILUPBiCGStab:  Solving for Uz, Initial residual = 0.0371788, Final residual = 8.66578e-06, No Iterations 5
linear solve U 121871
DICPBiCGStab:  Solving for p, Initial residual = 0.018644, Final residual = 9.85236e-05, No Iterations 77
linear solve p 508530
time step continuity errors : sum local = 9.61617e-08, global = -3.24682e-20, cumulative = -6.78319e-20
DICPBiCGStab:  Solving for p, Initial residual = 0.0165457, Final residual = 7.70798e-05, No Iterations 35
linear solve p 232944
time step continuity errors : sum local = 5.1843e-08, global = 5.72871e-22, cumulative = -6.7259e-20
ExecutionTime = 13.36 s  ClockTime = 13 s

End

