/*---------------------------------------------------------------------------*\
  =========                 |
  \\      /  F ield         | OpenFOAM: The Open Source CFD Toolbox
   \\    /   O peration     | Website:  https://openfoam.org
    \\  /    A nd           | Version:  8
     \\/     M anipulation  |
\*---------------------------------------------------------------------------*/
Build  : 8-ef60d22ea792
Exec   : icoFoam
Date   : Jul 28 2021
Time   : 22:13:39
Host   : "uc2n420.localdomain"
PID    : 960956
I/O    : uncollated
Case   : /pfs/data5/home/kit/scc/nq7776/code/OBR/lidDrivenCavity3D/Variation_mesh/15/Variation_matrix_solver/BiCGStab_DIC_Serial/base
nProcs : 1
sigFpe : Enabling floating point exception trapping (FOAM_SIGFPE).
fileModificationChecking : Monitoring run-time modified files using timeStampMaster (fileModificationSkew 10)
allowSystemOperations : Allowing user-supplied system call operations

// * * * * * * * * * * * * * * * * * * * * * * * * * * * * * * * * * * * * * //
Create time

Create mesh for time = 0

Reading transportProperties

Reading field p

Reading field U

Reading/calculating face flux field phi


Starting time loop

Time = 0.001

Courant Number mean: 0 max: 0
DILUPBiCGStab:  Solving for Ux, Initial residual = 1, Final residual = 1.1028e-13, No Iterations 5
DILUPBiCGStab:  Solving for Uy:  solution singularity
DILUPBiCGStab:  Solving for Uz:  solution singularity
linear solve U 1330
DICPBiCGStab:  Solving for p, Initial residual = 1, Final residual = 7.32522e-05, No Iterations 27
linear solve p 3128
time step continuity errors : sum local = 3.49976e-08, global = -6.56451e-21, cumulative = -6.56451e-21
DICPBiCGStab:  Solving for p, Initial residual = 0.316797, Final residual = 5.41937e-05, No Iterations 25
linear solve p 2870
time step continuity errors : sum local = 5.88514e-08, global = 3.53537e-21, cumulative = -3.02914e-21
ExecutionTime = 0.05 s  ClockTime = 0 s

Time = 0.002

Courant Number mean: 0.00559442 max: 0.0357003
DILUPBiCGStab:  Solving for Ux, Initial residual = 0.242379, Final residual = 1.13967e-14, No Iterations 5
DILUPBiCGStab:  Solving for Uy, Initial residual = 0.296223, Final residual = 1.12419e-14, No Iterations 5
DILUPBiCGStab:  Solving for Uz, Initial residual = 0.68038, Final residual = 3.13726e-14, No Iterations 5
linear solve U 2219
DICPBiCGStab:  Solving for p, Initial residual = 0.157042, Final residual = 8.82677e-05, No Iterations 24
linear solve p 2756
time step continuity errors : sum local = 1.04125e-07, global = -2.06506e-21, cumulative = -5.0942e-21
DICPBiCGStab:  Solving for p, Initial residual = 0.0605829, Final residual = 2.91525e-05, No Iterations 24
linear solve p 2656
time step continuity errors : sum local = 4.54577e-08, global = 3.3505e-21, cumulative = -1.7437e-21
ExecutionTime = 0.06 s  ClockTime = 0 s

Time = 0.003

Courant Number mean: 0.00940329 max: 0.0587295
DILUPBiCGStab:  Solving for Ux, Initial residual = 0.117979, Final residual = 5.34414e-15, No Iterations 5
DILUPBiCGStab:  Solving for Uy, Initial residual = 0.148714, Final residual = 5.34887e-15, No Iterations 5
DILUPBiCGStab:  Solving for Uz, Initial residual = 0.319772, Final residual = 1.56758e-14, No Iterations 5
linear solve U 2148
DICPBiCGStab:  Solving for p, Initial residual = 0.0758545, Final residual = 6.7531e-05, No Iterations 23
linear solve p 2644
time step continuity errors : sum local = 8.02988e-08, global = 4.39977e-21, cumulative = 2.65607e-21
DICPBiCGStab:  Solving for p, Initial residual = 0.0340479, Final residual = 8.91309e-05, No Iterations 10
linear solve p 1178
time step continuity errors : sum local = 1.48605e-07, global = 1.64381e-21, cumulative = 4.29989e-21
ExecutionTime = 0.07 s  ClockTime = 0 s

Time = 0.004

Courant Number mean: 0.0121904 max: 0.0737271
DILUPBiCGStab:  Solving for Ux, Initial residual = 0.0722905, Final residual = 2.99016e-15, No Iterations 5
DILUPBiCGStab:  Solving for Uy, Initial residual = 0.0917364, Final residual = 3.0218e-15, No Iterations 5
DILUPBiCGStab:  Solving for Uz, Initial residual = 0.186292, Final residual = 9.13758e-15, No Iterations 5
linear solve U 2124
DICPBiCGStab:  Solving for p, Initial residual = 0.0494702, Final residual = 8.23857e-05, No Iterations 10
linear solve p 1181
time step continuity errors : sum local = 7.5597e-08, global = 1.16885e-20, cumulative = 1.59884e-20
DICPBiCGStab:  Solving for p, Initial residual = 0.0222294, Final residual = 9.19503e-05, No Iterations 9
linear solve p 1120
time step continuity errors : sum local = 1.23164e-07, global = 1.57363e-20, cumulative = 3.17246e-20
ExecutionTime = 0.07 s  ClockTime = 0 s

Time = 0.005

Courant Number mean: 0.0143058 max: 0.0838053
DILUPBiCGStab:  Solving for Ux, Initial residual = 0.0485399, Final residual = 1.79994e-15, No Iterations 5
DILUPBiCGStab:  Solving for Uy, Initial residual = 0.0627603, Final residual = 1.74753e-15, No Iterations 5
DILUPBiCGStab:  Solving for Uz, Initial residual = 0.129967, Final residual = 5.32756e-15, No Iterations 5
linear solve U 2108
DICPBiCGStab:  Solving for p, Initial residual = 0.0360113, Final residual = 6.91552e-05, No Iterations 10
linear solve p 1177
time step continuity errors : sum local = 1.03598e-07, global = 4.46719e-21, cumulative = 3.61918e-20
DICPBiCGStab:  Solving for p, Initial residual = 0.0153187, Final residual = 7.53877e-05, No Iterations 9
linear solve p 1068
time step continuity errors : sum local = 7.74261e-08, global = 3.90883e-21, cumulative = 4.01007e-20
ExecutionTime = 0.08 s  ClockTime = 0 s

Time = 0.006

Courant Number mean: 0.0159483 max: 0.0908033
DILUPBiCGStab:  Solving for Ux, Initial residual = 0.0353415, Final residual = 1.17478e-15, No Iterations 5
DILUPBiCGStab:  Solving for Uy, Initial residual = 0.0461068, Final residual = 1.06322e-15, No Iterations 5
DILUPBiCGStab:  Solving for Uz, Initial residual = 0.0997782, Final residual = 3.88439e-15, No Iterations 5
linear solve U 2110
DICPBiCGStab:  Solving for p, Initial residual = 0.0288636, Final residual = 9.10075e-05, No Iterations 10
linear solve p 1179
time step continuity errors : sum local = 1.63037e-07, global = 5.60994e-21, cumulative = 4.57106e-20
DICPBiCGStab:  Solving for p, Initial residual = 0.0110786, Final residual = 8.08504e-05, No Iterations 9
linear solve p 1072
time step continuity errors : sum local = 1.29177e-07, global = -1.14647e-20, cumulative = 3.42459e-20
ExecutionTime = 0.09 s  ClockTime = 0 s

Time = 0.007

Courant Number mean: 0.017272 max: 0.0958252
DILUPBiCGStab:  Solving for Ux, Initial residual = 0.0271579, Final residual = 8.71083e-16, No Iterations 5
DILUPBiCGStab:  Solving for Uy, Initial residual = 0.0356337, Final residual = 7.408e-16, No Iterations 5
DILUPBiCGStab:  Solving for Uz, Initial residual = 0.0796011, Final residual = 3.04449e-15, No Iterations 5
linear solve U 2112
DICPBiCGStab:  Solving for p, Initial residual = 0.0217573, Final residual = 9.04338e-05, No Iterations 22
linear solve p 2518
time step continuity errors : sum local = 9.12233e-08, global = -2.42314e-20, cumulative = 1.00145e-20
DICPBiCGStab:  Solving for p, Initial residual = 0.00860882, Final residual = 5.22762e-05, No Iterations 9
linear solve p 1062
time step continuity errors : sum local = 7.56817e-08, global = 4.79248e-21, cumulative = 1.48069e-20
ExecutionTime = 0.09 s  ClockTime = 0 s

Time = 0.008

Courant Number mean: 0.0183553 max: 0.0995503
DILUPBiCGStab:  Solving for Ux, Initial residual = 0.0216461, Final residual = 6.39374e-16, No Iterations 5
DILUPBiCGStab:  Solving for Uy, Initial residual = 0.0286411, Final residual = 5.78044e-16, No Iterations 5
DILUPBiCGStab:  Solving for Uz, Initial residual = 0.0656498, Final residual = 2.76662e-15, No Iterations 5
linear solve U 2109
DICPBiCGStab:  Solving for p, Initial residual = 0.0163787, Final residual = 9.60419e-05, No Iterations 9
linear solve p 1110
time step continuity errors : sum local = 1.17009e-07, global = 1.1064e-20, cumulative = 2.58709e-20
DICPBiCGStab:  Solving for p, Initial residual = 0.00666437, Final residual = 4.59718e-05, No Iterations 9
linear solve p 1061
time step continuity errors : sum local = 7.5435e-08, global = 2.21482e-20, cumulative = 4.80191e-20
ExecutionTime = 0.1 s  ClockTime = 0 s

Time = 0.009

Courant Number mean: 0.0192551 max: 0.102395
DILUPBiCGStab:  Solving for Ux, Initial residual = 0.0176706, Final residual = 4.37302e-16, No Iterations 5
DILUPBiCGStab:  Solving for Uy, Initial residual = 0.0236349, Final residual = 4.82643e-16, No Iterations 5
DILUPBiCGStab:  Solving for Uz, Initial residual = 0.0544748, Final residual = 1.91717e-15, No Iterations 5
linear solve U 2107
DICPBiCGStab:  Solving for p, Initial residual = 0.0132746, Final residual = 9.27068e-05, No Iterations 9
linear solve p 1060
time step continuity errors : sum local = 9.69603e-08, global = 2.85605e-21, cumulative = 5.08751e-20
DICPBiCGStab:  Solving for p, Initial residual = 0.00541395, Final residual = 9.92759e-05, No Iterations 8
linear solve p 947
time step continuity errors : sum local = 1.12201e-07, global = 1.99185e-20, cumulative = 7.07936e-20
ExecutionTime = 0.1 s  ClockTime = 0 s

Time = 0.01

Courant Number mean: 0.0200141 max: 0.104627
DILUPBiCGStab:  Solving for Ux, Initial residual = 0.0147109, Final residual = 2.84623e-16, No Iterations 5
DILUPBiCGStab:  Solving for Uy, Initial residual = 0.0199514, Final residual = 4.01187e-16, No Iterations 5
DILUPBiCGStab:  Solving for Uz, Initial residual = 0.0464594, Final residual = 1.55648e-15, No Iterations 5
linear solve U 2123
DICPBiCGStab:  Solving for p, Initial residual = 0.0111915, Final residual = 7.9082e-05, No Iterations 9
linear solve p 1066
time step continuity errors : sum local = 8.52119e-08, global = -4.48703e-20, cumulative = 2.59233e-20
DICPBiCGStab:  Solving for p, Initial residual = 0.004518, Final residual = 7.96873e-05, No Iterations 8
linear solve p 950
time step continuity errors : sum local = 7.96971e-08, global = -3.09402e-21, cumulative = 2.28293e-20
ExecutionTime = 0.11 s  ClockTime = 0 s

End

