/*---------------------------------------------------------------------------*\
  =========                 |
  \\      /  F ield         | OpenFOAM: The Open Source CFD Toolbox
   \\    /   O peration     | Website:  https://openfoam.org
    \\  /    A nd           | Version:  8
     \\/     M anipulation  |
\*---------------------------------------------------------------------------*/
Build  : 8-ef60d22ea792
Exec   : icoFoam
Date   : Jul 29 2021
Time   : 03:34:48
Host   : "uc2n414.localdomain"
PID    : 2863704
I/O    : uncollated
Case   : /pfs/data5/home/kit/scc/nq7776/code/OBR/lidDrivenCavity3D/Variation_mesh/30/Variation_matrix_solver/BiCGStab_BJ_OMP/base
nProcs : 1
sigFpe : Enabling floating point exception trapping (FOAM_SIGFPE).
fileModificationChecking : Monitoring run-time modified files using timeStampMaster (fileModificationSkew 10)
allowSystemOperations : Allowing user-supplied system call operations

// * * * * * * * * * * * * * * * * * * * * * * * * * * * * * * * * * * * * * //
Create time

Create mesh for time = 0

Reading transportProperties

Reading field p

Reading field U

Reading/calculating face flux field phi


Starting time loop

Time = 0.001

Courant Number mean: 0 max: 0
DILUPBiCGStab:  Solving for Ux, Initial residual = 1, Final residual = 2.30612e-07, No Iterations 5
DILUPBiCGStab:  Solving for Uy:  solution singularity
DILUPBiCGStab:  Solving for Uz:  solution singularity
linear solve U 9939
[OGL LOG] init_host_sparsity_pattern : 7 ms
[OGL LOG] matrix not stored update host matrix
[OGL LOG] update_host_mtx : 3 ms
[OGL LOG] matrix is not yet sorted, compute sorting idxs
[OGL LOG] compute_sort : 190 ms
[OGL LOG] matrix is not yet sorted, sorting host matrix
[OGL LOG] sort_host_mtx_sparsity_pattern : 5 ms
[OGL LOG] sort_host_mtx : 2 ms
[OGL LOG] init_preconditioner : 7 ms
[OGL LOG] solve : 679 ms
BJompGKOBiCGStab:  Solving for p, Initial residual = 1, Final residual = 8.74173e-05, No Iterations 153
linear solve p 903944
time step continuity errors : sum local = 1.25809e-07, global = 1.80325e-21, cumulative = 1.80325e-21
[OGL LOG] init_host_sparsity_pattern : 6 ms
[OGL LOG] matrix not stored update host matrix
[OGL LOG] update_host_mtx : 3 ms
[OGL LOG] matrix is not yet sorted, sorting host matrix
[OGL LOG] sort_host_mtx_sparsity_pattern : 5 ms
[OGL LOG] sort_host_mtx : 2 ms
[OGL LOG] init_preconditioner : 0 ms
[OGL LOG] solve : 625 ms
BJompGKOBiCGStab:  Solving for p, Initial residual = 0.533552, Final residual = 8.78333e-05, No Iterations 142
linear solve p 647925
time step continuity errors : sum local = 2.67305e-07, global = 1.27735e-20, cumulative = 1.45768e-20
ExecutionTime = 1.7 s  ClockTime = 2 s

Time = 0.002

Courant Number mean: 0.0151367 max: 0.148266
DILUPBiCGStab:  Solving for Ux, Initial residual = 0.196013, Final residual = 3.64417e-08, No Iterations 5
DILUPBiCGStab:  Solving for Uy, Initial residual = 0.280464, Final residual = 4.07842e-08, No Iterations 5
DILUPBiCGStab:  Solving for Uz, Initial residual = 0.909752, Final residual = 1.64521e-07, No Iterations 5
linear solve U 17381
[OGL LOG] init_host_sparsity_pattern : 6 ms
[OGL LOG] matrix not stored update host matrix
[OGL LOG] update_host_mtx : 3 ms
[OGL LOG] matrix is not yet sorted, sorting host matrix
[OGL LOG] sort_host_mtx_sparsity_pattern : 5 ms
[OGL LOG] sort_host_mtx : 2 ms
[OGL LOG] init_preconditioner : 0 ms
[OGL LOG] solve : 564 ms
BJompGKOBiCGStab:  Solving for p, Initial residual = 0.353512, Final residual = 7.90868e-05, No Iterations 128
linear solve p 585836
time step continuity errors : sum local = 2.62649e-07, global = -3.24296e-21, cumulative = 1.13338e-20
[OGL LOG] init_host_sparsity_pattern : 7 ms
[OGL LOG] matrix not stored update host matrix
[OGL LOG] update_host_mtx : 3 ms
[OGL LOG] matrix is not yet sorted, sorting host matrix
[OGL LOG] sort_host_mtx_sparsity_pattern : 5 ms
[OGL LOG] sort_host_mtx : 2 ms
[OGL LOG] init_preconditioner : 0 ms
[OGL LOG] solve : 303 ms
BJompGKOBiCGStab:  Solving for p, Initial residual = 0.254514, Final residual = 9.05583e-05, No Iterations 69
linear solve p 326150
time step continuity errors : sum local = 1.47061e-07, global = -9.20476e-21, cumulative = 2.12906e-21
ExecutionTime = 2.64 s  ClockTime = 3 s

Time = 0.003

Courant Number mean: 0.0235106 max: 0.204199
DILUPBiCGStab:  Solving for Ux, Initial residual = 0.0795188, Final residual = 1.29871e-08, No Iterations 5
DILUPBiCGStab:  Solving for Uy, Initial residual = 0.116474, Final residual = 1.13675e-08, No Iterations 5
DILUPBiCGStab:  Solving for Uz, Initial residual = 0.217853, Final residual = 4.1705e-08, No Iterations 5
linear solve U 17305
[OGL LOG] init_host_sparsity_pattern : 6 ms
[OGL LOG] matrix not stored update host matrix
[OGL LOG] update_host_mtx : 3 ms
[OGL LOG] matrix is not yet sorted, sorting host matrix
[OGL LOG] sort_host_mtx_sparsity_pattern : 5 ms
[OGL LOG] sort_host_mtx : 2 ms
[OGL LOG] init_preconditioner : 0 ms
[OGL LOG] solve : 303 ms
BJompGKOBiCGStab:  Solving for p, Initial residual = 0.113239, Final residual = 9.60644e-05, No Iterations 69
linear solve p 325733
time step continuity errors : sum local = 1.14226e-07, global = -2.39801e-20, cumulative = -2.1851e-20
[OGL LOG] init_host_sparsity_pattern : 7 ms
[OGL LOG] matrix not stored update host matrix
[OGL LOG] update_host_mtx : 3 ms
[OGL LOG] matrix is not yet sorted, sorting host matrix
[OGL LOG] sort_host_mtx_sparsity_pattern : 5 ms
[OGL LOG] sort_host_mtx : 2 ms
[OGL LOG] init_preconditioner : 0 ms
[OGL LOG] solve : 485 ms
BJompGKOBiCGStab:  Solving for p, Initial residual = 0.0838041, Final residual = 9.49076e-05, No Iterations 110
linear solve p 507770
time step continuity errors : sum local = 1.4507e-07, global = 1.42876e-20, cumulative = -7.56338e-21
ExecutionTime = 3.5 s  ClockTime = 3 s

Time = 0.004

Courant Number mean: 0.0286421 max: 0.226394
DILUPBiCGStab:  Solving for Ux, Initial residual = 0.0460235, Final residual = 6.36505e-09, No Iterations 5
DILUPBiCGStab:  Solving for Uy, Initial residual = 0.0700348, Final residual = 4.33305e-09, No Iterations 5
DILUPBiCGStab:  Solving for Uz, Initial residual = 0.110949, Final residual = 1.40829e-08, No Iterations 5
linear solve U 17722
[OGL LOG] init_host_sparsity_pattern : 6 ms
[OGL LOG] matrix not stored update host matrix
[OGL LOG] update_host_mtx : 3 ms
[OGL LOG] matrix is not yet sorted, sorting host matrix
[OGL LOG] sort_host_mtx_sparsity_pattern : 5 ms
[OGL LOG] sort_host_mtx : 2 ms
[OGL LOG] init_preconditioner : 0 ms
[OGL LOG] solve : 235 ms
BJompGKOBiCGStab:  Solving for p, Initial residual = 0.05716, Final residual = 9.96797e-05, No Iterations 53
linear solve p 257641
time step continuity errors : sum local = 1.02082e-07, global = -1.90317e-20, cumulative = -2.6595e-20
[OGL LOG] init_host_sparsity_pattern : 6 ms
[OGL LOG] matrix not stored update host matrix
[OGL LOG] update_host_mtx : 3 ms
[OGL LOG] matrix is not yet sorted, sorting host matrix
[OGL LOG] sort_host_mtx_sparsity_pattern : 5 ms
[OGL LOG] sort_host_mtx : 2 ms
[OGL LOG] init_preconditioner : 0 ms
[OGL LOG] solve : 222 ms
BJompGKOBiCGStab:  Solving for p, Initial residual = 0.0420885, Final residual = 9.35468e-05, No Iterations 50
linear solve p 243909
time step continuity errors : sum local = 1.43072e-07, global = 1.41836e-20, cumulative = -1.24114e-20
ExecutionTime = 4.02 s  ClockTime = 4 s

Time = 0.005

Courant Number mean: 0.0323423 max: 0.237405
DILUPBiCGStab:  Solving for Ux, Initial residual = 0.0313797, Final residual = 2.99533e-09, No Iterations 5
DILUPBiCGStab:  Solving for Uy, Initial residual = 0.0483118, Final residual = 2.41948e-09, No Iterations 5
DILUPBiCGStab:  Solving for Uz, Initial residual = 0.0807834, Final residual = 8.11075e-09, No Iterations 5
linear solve U 17259
[OGL LOG] init_host_sparsity_pattern : 6 ms
[OGL LOG] matrix not stored update host matrix
[OGL LOG] update_host_mtx : 3 ms
[OGL LOG] matrix is not yet sorted, sorting host matrix
[OGL LOG] sort_host_mtx_sparsity_pattern : 5 ms
[OGL LOG] sort_host_mtx : 2 ms
[OGL LOG] init_preconditioner : 0 ms
[OGL LOG] solve : 242 ms
BJompGKOBiCGStab:  Solving for p, Initial residual = 0.0357028, Final residual = 9.15263e-05, No Iterations 54
linear solve p 264529
time step continuity errors : sum local = 1.06007e-07, global = 2.93701e-22, cumulative = -1.21177e-20
[OGL LOG] init_host_sparsity_pattern : 7 ms
[OGL LOG] matrix not stored update host matrix
[OGL LOG] update_host_mtx : 3 ms
[OGL LOG] matrix is not yet sorted, sorting host matrix
[OGL LOG] sort_host_mtx_sparsity_pattern : 5 ms
[OGL LOG] sort_host_mtx : 2 ms
[OGL LOG] init_preconditioner : 0 ms
[OGL LOG] solve : 220 ms
BJompGKOBiCGStab:  Solving for p, Initial residual = 0.0264873, Final residual = 9.4054e-05, No Iterations 50
linear solve p 243050
time step continuity errors : sum local = 1.17016e-07, global = -8.1575e-21, cumulative = -2.02752e-20
ExecutionTime = 4.56 s  ClockTime = 4 s

Time = 0.006

Courant Number mean: 0.0352082 max: 0.243904
DILUPBiCGStab:  Solving for Ux, Initial residual = 0.0234638, Final residual = 1.11627e-09, No Iterations 5
DILUPBiCGStab:  Solving for Uy, Initial residual = 0.0364579, Final residual = 1.59089e-09, No Iterations 5
DILUPBiCGStab:  Solving for Uz, Initial residual = 0.0636809, Final residual = 5.55105e-09, No Iterations 5
linear solve U 17367
[OGL LOG] init_host_sparsity_pattern : 6 ms
[OGL LOG] matrix not stored update host matrix
[OGL LOG] update_host_mtx : 3 ms
[OGL LOG] matrix is not yet sorted, sorting host matrix
[OGL LOG] sort_host_mtx_sparsity_pattern : 5 ms
[OGL LOG] sort_host_mtx : 2 ms
[OGL LOG] init_preconditioner : 0 ms
[OGL LOG] solve : 231 ms
BJompGKOBiCGStab:  Solving for p, Initial residual = 0.0253793, Final residual = 9.11537e-05, No Iterations 52
linear solve p 253179
time step continuity errors : sum local = 1.06304e-07, global = 1.84186e-20, cumulative = -1.85666e-21
[OGL LOG] init_host_sparsity_pattern : 7 ms
[OGL LOG] matrix not stored update host matrix
[OGL LOG] update_host_mtx : 3 ms
[OGL LOG] matrix is not yet sorted, sorting host matrix
[OGL LOG] sort_host_mtx_sparsity_pattern : 5 ms
[OGL LOG] sort_host_mtx : 2 ms
[OGL LOG] init_preconditioner : 0 ms
[OGL LOG] solve : 207 ms
BJompGKOBiCGStab:  Solving for p, Initial residual = 0.0189531, Final residual = 9.42467e-05, No Iterations 47
linear solve p 229819
time step continuity errors : sum local = 1.11706e-07, global = 1.70974e-20, cumulative = 1.52408e-20
ExecutionTime = 5.08 s  ClockTime = 5 s

Time = 0.007

Courant Number mean: 0.0375047 max: 0.24826
DILUPBiCGStab:  Solving for Ux, Initial residual = 0.0185086, Final residual = 5.59001e-10, No Iterations 5
DILUPBiCGStab:  Solving for Uy, Initial residual = 0.0290165, Final residual = 1.14327e-09, No Iterations 5
DILUPBiCGStab:  Solving for Uz, Initial residual = 0.0525759, Final residual = 3.66534e-09, No Iterations 5
linear solve U 17689
[OGL LOG] init_host_sparsity_pattern : 6 ms
[OGL LOG] matrix not stored update host matrix
[OGL LOG] update_host_mtx : 3 ms
[OGL LOG] matrix is not yet sorted, sorting host matrix
[OGL LOG] sort_host_mtx_sparsity_pattern : 5 ms
[OGL LOG] sort_host_mtx : 2 ms
[OGL LOG] init_preconditioner : 0 ms
[OGL LOG] solve : 213 ms
BJompGKOBiCGStab:  Solving for p, Initial residual = 0.0197827, Final residual = 9.12902e-05, No Iterations 48
linear solve p 235563
time step continuity errors : sum local = 1.07943e-07, global = -3.36856e-20, cumulative = -1.84448e-20
[OGL LOG] init_host_sparsity_pattern : 7 ms
[OGL LOG] matrix not stored update host matrix
[OGL LOG] update_host_mtx : 3 ms
[OGL LOG] matrix is not yet sorted, sorting host matrix
[OGL LOG] sort_host_mtx_sparsity_pattern : 5 ms
[OGL LOG] sort_host_mtx : 2 ms
[OGL LOG] init_preconditioner : 0 ms
[OGL LOG] solve : 206 ms
BJompGKOBiCGStab:  Solving for p, Initial residual = 0.0148903, Final residual = 9.08877e-05, No Iterations 46
linear solve p 229496
time step continuity errors : sum local = 1.40508e-07, global = 2.72507e-20, cumulative = 8.80591e-21
ExecutionTime = 5.57 s  ClockTime = 6 s

Time = 0.008

Courant Number mean: 0.039397 max: 0.251424
DILUPBiCGStab:  Solving for Ux, Initial residual = 0.0150673, Final residual = 3.46919e-10, No Iterations 5
DILUPBiCGStab:  Solving for Uy, Initial residual = 0.0239246, Final residual = 8.32213e-10, No Iterations 5
DILUPBiCGStab:  Solving for Uz, Initial residual = 0.0445615, Final residual = 2.33033e-09, No Iterations 5
linear solve U 17250
[OGL LOG] init_host_sparsity_pattern : 6 ms
[OGL LOG] matrix not stored update host matrix
[OGL LOG] update_host_mtx : 3 ms
[OGL LOG] matrix is not yet sorted, sorting host matrix
[OGL LOG] sort_host_mtx_sparsity_pattern : 5 ms
[OGL LOG] sort_host_mtx : 2 ms
[OGL LOG] init_preconditioner : 0 ms
[OGL LOG] solve : 204 ms
BJompGKOBiCGStab:  Solving for p, Initial residual = 0.0160174, Final residual = 9.65913e-05, No Iterations 46
linear solve p 226881
time step continuity errors : sum local = 1.16691e-07, global = -6.87408e-21, cumulative = 1.93183e-21
[OGL LOG] init_host_sparsity_pattern : 7 ms
[OGL LOG] matrix not stored update host matrix
[OGL LOG] update_host_mtx : 3 ms
[OGL LOG] matrix is not yet sorted, sorting host matrix
[OGL LOG] sort_host_mtx_sparsity_pattern : 5 ms
[OGL LOG] sort_host_mtx : 2 ms
[OGL LOG] init_preconditioner : 0 ms
[OGL LOG] solve : 202 ms
BJompGKOBiCGStab:  Solving for p, Initial residual = 0.0120822, Final residual = 9.63227e-05, No Iterations 46
linear solve p 225220
time step continuity errors : sum local = 1.06302e-07, global = -2.55427e-20, cumulative = -2.36109e-20
ExecutionTime = 6.05 s  ClockTime = 6 s

Time = 0.009

Courant Number mean: 0.0410392 max: 0.253855
DILUPBiCGStab:  Solving for Ux, Initial residual = 0.01263, Final residual = 2.45437e-10, No Iterations 5
DILUPBiCGStab:  Solving for Uy, Initial residual = 0.0201519, Final residual = 6.24401e-10, No Iterations 5
DILUPBiCGStab:  Solving for Uz, Initial residual = 0.0381555, Final residual = 1.53005e-09, No Iterations 5
linear solve U 17554
[OGL LOG] init_host_sparsity_pattern : 6 ms
[OGL LOG] matrix not stored update host matrix
[OGL LOG] update_host_mtx : 3 ms
[OGL LOG] matrix is not yet sorted, sorting host matrix
[OGL LOG] sort_host_mtx_sparsity_pattern : 5 ms
[OGL LOG] sort_host_mtx : 2 ms
[OGL LOG] init_preconditioner : 0 ms
[OGL LOG] solve : 209 ms
BJompGKOBiCGStab:  Solving for p, Initial residual = 0.0131284, Final residual = 9.92252e-05, No Iterations 47
linear solve p 231258
time step continuity errors : sum local = 1.15463e-07, global = 3.81962e-20, cumulative = 1.45853e-20
[OGL LOG] init_host_sparsity_pattern : 7 ms
[OGL LOG] matrix not stored update host matrix
[OGL LOG] update_host_mtx : 3 ms
[OGL LOG] matrix is not yet sorted, sorting host matrix
[OGL LOG] sort_host_mtx_sparsity_pattern : 5 ms
[OGL LOG] sort_host_mtx : 2 ms
[OGL LOG] init_preconditioner : 0 ms
[OGL LOG] solve : 198 ms
BJompGKOBiCGStab:  Solving for p, Initial residual = 0.00999748, Final residual = 5.75124e-05, No Iterations 45
linear solve p 220927
time step continuity errors : sum local = 7.35474e-08, global = 1.20352e-20, cumulative = 2.66205e-20
ExecutionTime = 6.53 s  ClockTime = 6 s

Time = 0.01

Courant Number mean: 0.0424706 max: 0.255787
DILUPBiCGStab:  Solving for Ux, Initial residual = 0.0107654, Final residual = 1.86717e-10, No Iterations 5
DILUPBiCGStab:  Solving for Uy, Initial residual = 0.0172853, Final residual = 4.82006e-10, No Iterations 5
DILUPBiCGStab:  Solving for Uz, Initial residual = 0.0332115, Final residual = 1.07084e-09, No Iterations 5
linear solve U 17574
[OGL LOG] init_host_sparsity_pattern : 7 ms
[OGL LOG] matrix not stored update host matrix
[OGL LOG] update_host_mtx : 4 ms
[OGL LOG] matrix is not yet sorted, sorting host matrix
[OGL LOG] sort_host_mtx_sparsity_pattern : 5 ms
[OGL LOG] sort_host_mtx : 2 ms
[OGL LOG] init_preconditioner : 0 ms
[OGL LOG] solve : 213 ms
BJompGKOBiCGStab:  Solving for p, Initial residual = 0.0112019, Final residual = 9.00656e-05, No Iterations 48
linear solve p 236352
time step continuity errors : sum local = 1.03391e-07, global = 1.34744e-20, cumulative = 4.00949e-20
[OGL LOG] init_host_sparsity_pattern : 7 ms
[OGL LOG] matrix not stored update host matrix
[OGL LOG] update_host_mtx : 3 ms
[OGL LOG] matrix is not yet sorted, sorting host matrix
[OGL LOG] sort_host_mtx_sparsity_pattern : 5 ms
[OGL LOG] sort_host_mtx : 2 ms
[OGL LOG] init_preconditioner : 0 ms
[OGL LOG] solve : 196 ms
BJompGKOBiCGStab:  Solving for p, Initial residual = 0.00857976, Final residual = 7.23639e-05, No Iterations 44
linear solve p 219026
time step continuity errors : sum local = 1.43467e-07, global = 1.64526e-21, cumulative = 4.17402e-20
ExecutionTime = 7.02 s  ClockTime = 7 s

End

