/*---------------------------------------------------------------------------*\
  =========                 |
  \\      /  F ield         | OpenFOAM: The Open Source CFD Toolbox
   \\    /   O peration     | Website:  https://openfoam.org
    \\  /    A nd           | Version:  8
     \\/     M anipulation  |
\*---------------------------------------------------------------------------*/
Build  : 8-14d69e1ee166
Exec   : icoFoam
Date   : Jul 28 2021
Time   : 16:23:31
Host   : "guyot.icl.utk.edu"
PID    : 20284
I/O    : uncollated
Case   : /home/greole/code/OBR/lidDrivenCavity3D/Variation_mesh/60/Variation_matrix_solver/BiCGStab_NoPrecond_Serial/base
nProcs : 1
sigFpe : Enabling floating point exception trapping (FOAM_SIGFPE).
fileModificationChecking : Monitoring run-time modified files using timeStampMaster (fileModificationSkew 10)
allowSystemOperations : Allowing user-supplied system call operations

// * * * * * * * * * * * * * * * * * * * * * * * * * * * * * * * * * * * * * //
Create time

Create mesh for time = 0

Reading transportProperties

Reading field p

Reading field U

Reading/calculating face flux field phi


Starting time loop

Time = 0.001

Courant Number mean: 0 max: 0
DILUPBiCGStab:  Solving for Ux, Initial residual = 1, Final residual = 0.000527977, No Iterations 5
DILUPBiCGStab:  Solving for Uy:  solution singularity
DILUPBiCGStab:  Solving for Uz:  solution singularity
linear solve U 84274
nonePBiCGStab:  Solving for p, Initial residual = 1, Final residual = 9.87538e-05, No Iterations 378
linear solve p 1794968
time step continuity errors : sum local = 1.15688e-07, global = -2.37194e-21, cumulative = -2.37194e-21
nonePBiCGStab:  Solving for p, Initial residual = 0.695855, Final residual = 9.47827e-05, No Iterations 393
linear solve p 1857364
time step continuity errors : sum local = 1.51589e-07, global = 3.52643e-21, cumulative = 1.15449e-21
ExecutionTime = 4.76 s  ClockTime = 5 s

Time = 0.002

Courant Number mean: 0.0335014 max: 0.423482
DILUPBiCGStab:  Solving for Ux, Initial residual = 0.158215, Final residual = 0.000145643, No Iterations 5
DILUPBiCGStab:  Solving for Uy, Initial residual = 0.338999, Final residual = 0.000249797, No Iterations 5
DILUPBiCGStab:  Solving for Uz, Initial residual = 0.973361, Final residual = 0.000959596, No Iterations 5
linear solve U 158364
nonePBiCGStab:  Solving for p, Initial residual = 0.615539, Final residual = 9.51856e-05, No Iterations 349
linear solve p 1640050
time step continuity errors : sum local = 1.57116e-07, global = -1.45488e-20, cumulative = -1.33943e-20
nonePBiCGStab:  Solving for p, Initial residual = 0.535476, Final residual = 9.51297e-05, No Iterations 348
linear solve p 1648427
time step continuity errors : sum local = 1.61348e-07, global = -9.96249e-22, cumulative = -1.43905e-20
ExecutionTime = 8.29 s  ClockTime = 9 s

Time = 0.003

Courant Number mean: 0.0503052 max: 0.512879
DILUPBiCGStab:  Solving for Ux, Initial residual = 0.0503195, Final residual = 3.2963e-05, No Iterations 5
DILUPBiCGStab:  Solving for Uy, Initial residual = 0.104456, Final residual = 7.0106e-05, No Iterations 5
DILUPBiCGStab:  Solving for Uz, Initial residual = 0.343143, Final residual = 0.000400391, No Iterations 5
linear solve U 158237
nonePBiCGStab:  Solving for p, Initial residual = 0.475193, Final residual = 9.9959e-05, No Iterations 294
linear solve p 1399883
time step continuity errors : sum local = 1.08767e-07, global = 1.93652e-20, cumulative = 4.97471e-21
nonePBiCGStab:  Solving for p, Initial residual = 0.418438, Final residual = 9.58027e-05, No Iterations 290
linear solve p 1373671
time step continuity errors : sum local = 1.06001e-07, global = -4.6454e-21, cumulative = 3.29307e-22
ExecutionTime = 11.3 s  ClockTime = 12 s

Time = 0.004

Courant Number mean: 0.0595758 max: 0.529581
DILUPBiCGStab:  Solving for Ux, Initial residual = 0.0302354, Final residual = 2.04406e-05, No Iterations 5
DILUPBiCGStab:  Solving for Uy, Initial residual = 0.067098, Final residual = 2.43153e-05, No Iterations 5
DILUPBiCGStab:  Solving for Uz, Initial residual = 0.207632, Final residual = 0.000181094, No Iterations 5
linear solve U 158761
nonePBiCGStab:  Solving for p, Initial residual = 0.2556, Final residual = 5.46728e-05, No Iterations 364
linear solve p 1710632
time step continuity errors : sum local = 3.37176e-08, global = 1.20921e-21, cumulative = 1.53851e-21
nonePBiCGStab:  Solving for p, Initial residual = 0.208666, Final residual = 9.41104e-05, No Iterations 327
linear solve p 1527897
time step continuity errors : sum local = 8.52026e-08, global = -4.28178e-21, cumulative = -2.74327e-21
ExecutionTime = 14.79 s  ClockTime = 15 s

Time = 0.005

Courant Number mean: 0.0665889 max: 0.539168
DILUPBiCGStab:  Solving for Ux, Initial residual = 0.0211249, Final residual = 6.83156e-06, No Iterations 5
DILUPBiCGStab:  Solving for Uy, Initial residual = 0.0446026, Final residual = 1.78251e-05, No Iterations 5
DILUPBiCGStab:  Solving for Uz, Initial residual = 0.0909832, Final residual = 6.04992e-05, No Iterations 5
linear solve U 160939
nonePBiCGStab:  Solving for p, Initial residual = 0.157429, Final residual = 8.95176e-05, No Iterations 327
linear solve p 1540553
time step continuity errors : sum local = 5.92327e-08, global = 1.61342e-20, cumulative = 1.3391e-20
nonePBiCGStab:  Solving for p, Initial residual = 0.130522, Final residual = 8.94622e-05, No Iterations 301
linear solve p 1452657
time step continuity errors : sum local = 8.48561e-08, global = 2.49858e-21, cumulative = 1.58895e-20
ExecutionTime = 18.02 s  ClockTime = 18 s

Time = 0.006

Courant Number mean: 0.0720455 max: 0.544954
DILUPBiCGStab:  Solving for Ux, Initial residual = 0.0161052, Final residual = 7.1646e-06, No Iterations 5
DILUPBiCGStab:  Solving for Uy, Initial residual = 0.0337767, Final residual = 6.12778e-06, No Iterations 5
DILUPBiCGStab:  Solving for Uz, Initial residual = 0.0759316, Final residual = 5.45196e-05, No Iterations 5
linear solve U 158334
nonePBiCGStab:  Solving for p, Initial residual = 0.0930266, Final residual = 6.78251e-05, No Iterations 316
linear solve p 1492457
time step continuity errors : sum local = 3.60703e-08, global = -6.3267e-21, cumulative = 9.56285e-21
nonePBiCGStab:  Solving for p, Initial residual = 0.0761438, Final residual = 7.30806e-05, No Iterations 351
linear solve p 1661482
time step continuity errors : sum local = 4.23334e-08, global = -2.31846e-20, cumulative = -1.36217e-20
ExecutionTime = 21.42 s  ClockTime = 22 s

Time = 0.007

Courant Number mean: 0.0764988 max: 0.548958
DILUPBiCGStab:  Solving for Ux, Initial residual = 0.0127226, Final residual = 2.16959e-06, No Iterations 5
DILUPBiCGStab:  Solving for Uy, Initial residual = 0.0271486, Final residual = 6.59574e-06, No Iterations 5
DILUPBiCGStab:  Solving for Uz, Initial residual = 0.0594422, Final residual = 3.37507e-05, No Iterations 5
linear solve U 155703
nonePBiCGStab:  Solving for p, Initial residual = 0.0594214, Final residual = 9.53049e-05, No Iterations 288
linear solve p 1380072
time step continuity errors : sum local = 7.18289e-08, global = -9.51416e-21, cumulative = -2.31359e-20
nonePBiCGStab:  Solving for p, Initial residual = 0.0493995, Final residual = 8.86389e-05, No Iterations 126
linear solve p 598369
time step continuity errors : sum local = 5.26732e-08, global = 9.17007e-21, cumulative = -1.39658e-20
ExecutionTime = 23.64 s  ClockTime = 24 s

Time = 0.008

Courant Number mean: 0.0802507 max: 0.551954
DILUPBiCGStab:  Solving for Ux, Initial residual = 0.0105015, Final residual = 1.90808e-06, No Iterations 5
DILUPBiCGStab:  Solving for Uy, Initial residual = 0.0222869, Final residual = 2.51171e-06, No Iterations 5
DILUPBiCGStab:  Solving for Uz, Initial residual = 0.0490688, Final residual = 2.85495e-05, No Iterations 5
linear solve U 160634
nonePBiCGStab:  Solving for p, Initial residual = 0.0399602, Final residual = 9.9577e-05, No Iterations 283
linear solve p 1325449
time step continuity errors : sum local = 7.84311e-08, global = 4.55449e-21, cumulative = -9.41133e-21
nonePBiCGStab:  Solving for p, Initial residual = 0.0336726, Final residual = 9.84554e-05, No Iterations 137
linear solve p 654362
time step continuity errors : sum local = 6.9066e-08, global = 1.75215e-20, cumulative = 8.11015e-21
ExecutionTime = 25.87 s  ClockTime = 26 s

Time = 0.009

Courant Number mean: 0.0834519 max: 0.554251
DILUPBiCGStab:  Solving for Ux, Initial residual = 0.00876298, Final residual = 1.43504e-06, No Iterations 5
DILUPBiCGStab:  Solving for Uy, Initial residual = 0.0192082, Final residual = 3.02012e-06, No Iterations 5
DILUPBiCGStab:  Solving for Uz, Initial residual = 0.0472343, Final residual = 3.17229e-05, No Iterations 5
linear solve U 155675
nonePBiCGStab:  Solving for p, Initial residual = 0.0304521, Final residual = 6.9683e-05, No Iterations 256
linear solve p 1224002
time step continuity errors : sum local = 6.13805e-08, global = -1.08006e-20, cumulative = -2.69045e-21
nonePBiCGStab:  Solving for p, Initial residual = 0.0264916, Final residual = 9.94686e-05, No Iterations 255
linear solve p 1208952
time step continuity errors : sum local = 9.07656e-08, global = 1.00389e-20, cumulative = 7.34847e-21
ExecutionTime = 28.54 s  ClockTime = 29 s

Time = 0.01

Courant Number mean: 0.0862286 max: 0.556119
DILUPBiCGStab:  Solving for Ux, Initial residual = 0.00770939, Final residual = 1.37869e-06, No Iterations 5
DILUPBiCGStab:  Solving for Uy, Initial residual = 0.0162125, Final residual = 2.81331e-06, No Iterations 5
DILUPBiCGStab:  Solving for Uz, Initial residual = 0.0452822, Final residual = 3.19575e-05, No Iterations 5
linear solve U 160925
nonePBiCGStab:  Solving for p, Initial residual = 0.0242659, Final residual = 7.66544e-05, No Iterations 326
linear solve p 1529732
time step continuity errors : sum local = 3.97191e-08, global = 1.00848e-20, cumulative = 1.74333e-20
nonePBiCGStab:  Solving for p, Initial residual = 0.0216939, Final residual = 9.8419e-05, No Iterations 280
linear solve p 1336672
time step continuity errors : sum local = 8.07363e-08, global = 8.02831e-21, cumulative = 2.54616e-20
ExecutionTime = 31.65 s  ClockTime = 32 s

End

