/*---------------------------------------------------------------------------*\
  =========                 |
  \\      /  F ield         | OpenFOAM: The Open Source CFD Toolbox
   \\    /   O peration     | Website:  https://openfoam.org
    \\  /    A nd           | Version:  8
     \\/     M anipulation  |
\*---------------------------------------------------------------------------*/
Build  : 8-ef60d22ea792
Exec   : icoFoam
Date   : Jul 29 2021
Time   : 03:35:11
Host   : "uc2n414.localdomain"
PID    : 2863736
I/O    : uncollated
Case   : /pfs/data5/home/kit/scc/nq7776/code/OBR/lidDrivenCavity3D/Variation_mesh/30/Variation_matrix_solver/IR_NoPrecond_OMP/base
nProcs : 1
sigFpe : Enabling floating point exception trapping (FOAM_SIGFPE).
fileModificationChecking : Monitoring run-time modified files using timeStampMaster (fileModificationSkew 10)
allowSystemOperations : Allowing user-supplied system call operations

// * * * * * * * * * * * * * * * * * * * * * * * * * * * * * * * * * * * * * //
Create time

Create mesh for time = 0

Reading transportProperties

Reading field p

Reading field U

Reading/calculating face flux field phi


Starting time loop

Time = 0.001

Courant Number mean: 0 max: 0
DILUPBiCGStab:  Solving for Ux, Initial residual = 1, Final residual = 2.30612e-07, No Iterations 5
DILUPBiCGStab:  Solving for Uy:  solution singularity
DILUPBiCGStab:  Solving for Uz:  solution singularity
linear solve U 9603
[OGL LOG] init_host_sparsity_pattern : 7 ms
[OGL LOG] matrix not stored update host matrix
[OGL LOG] update_host_mtx : 3 ms
[OGL LOG] matrix is not yet sorted, compute sorting idxs
[OGL LOG] compute_sort : 190 ms
[OGL LOG] matrix is not yet sorted, sorting host matrix
[OGL LOG] sort_host_mtx_sparsity_pattern : 5 ms
[OGL LOG] sort_host_mtx : 3 ms
[OGL LOG] init_preconditioner : 0 ms
[OGL LOG] solve : 221 ms
noneompGKOIR:  Solving for p, Initial residual = 1, Final residual = 7.59352e-06, No Iterations 3
linear solve p 438445
time step continuity errors : sum local = 4.10066e-09, global = 8.09732e-21, cumulative = 8.09732e-21
[OGL LOG] init_host_sparsity_pattern : 7 ms
[OGL LOG] matrix not stored update host matrix
[OGL LOG] update_host_mtx : 3 ms
[OGL LOG] matrix is not yet sorted, sorting host matrix
[OGL LOG] sort_host_mtx_sparsity_pattern : 5 ms
[OGL LOG] sort_host_mtx : 2 ms
[OGL LOG] init_preconditioner : 0 ms
[OGL LOG] solve : 219 ms
noneompGKOIR:  Solving for p, Initial residual = 0.533758, Final residual = 2.2758e-06, No Iterations 3
linear solve p 242535
time step continuity errors : sum local = 1.915e-09, global = -1.01703e-20, cumulative = -2.07301e-21
ExecutionTime = 0.83 s  ClockTime = 1 s

Time = 0.002

Courant Number mean: 0.0151361 max: 0.148264
DILUPBiCGStab:  Solving for Ux, Initial residual = 0.196126, Final residual = 3.64367e-08, No Iterations 5
DILUPBiCGStab:  Solving for Uy, Initial residual = 0.280248, Final residual = 4.08022e-08, No Iterations 5
DILUPBiCGStab:  Solving for Uz, Initial residual = 0.925466, Final residual = 1.58535e-07, No Iterations 5
linear solve U 17513
[OGL LOG] init_host_sparsity_pattern : 7 ms
[OGL LOG] matrix not stored update host matrix
[OGL LOG] update_host_mtx : 3 ms
[OGL LOG] matrix is not yet sorted, sorting host matrix
[OGL LOG] sort_host_mtx_sparsity_pattern : 5 ms
[OGL LOG] sort_host_mtx : 2 ms
[OGL LOG] init_preconditioner : 0 ms
[OGL LOG] solve : 224 ms
noneompGKOIR:  Solving for p, Initial residual = 0.352711, Final residual = 8.38508e-07, No Iterations 3
linear solve p 246600
time step continuity errors : sum local = 6.60641e-10, global = 6.24379e-21, cumulative = 4.17078e-21
[OGL LOG] init_host_sparsity_pattern : 6 ms
[OGL LOG] matrix not stored update host matrix
[OGL LOG] update_host_mtx : 3 ms
[OGL LOG] matrix is not yet sorted, sorting host matrix
[OGL LOG] sort_host_mtx_sparsity_pattern : 5 ms
[OGL LOG] sort_host_mtx : 2 ms
[OGL LOG] init_preconditioner : 0 ms
[OGL LOG] solve : 173 ms
noneompGKOIR:  Solving for p, Initial residual = 0.253674, Final residual = 6.38233e-05, No Iterations 2
linear solve p 195066
time step continuity errors : sum local = 5.29023e-08, global = -9.5772e-22, cumulative = 3.21306e-21
ExecutionTime = 1.3 s  ClockTime = 2 s

Time = 0.003

Courant Number mean: 0.0235106 max: 0.204199
DILUPBiCGStab:  Solving for Ux, Initial residual = 0.0796159, Final residual = 1.29716e-08, No Iterations 5
DILUPBiCGStab:  Solving for Uy, Initial residual = 0.116242, Final residual = 1.13662e-08, No Iterations 5
DILUPBiCGStab:  Solving for Uz, Initial residual = 0.202326, Final residual = 3.46799e-08, No Iterations 5
linear solve U 17388
[OGL LOG] init_host_sparsity_pattern : 6 ms
[OGL LOG] matrix not stored update host matrix
[OGL LOG] update_host_mtx : 3 ms
[OGL LOG] matrix is not yet sorted, sorting host matrix
[OGL LOG] sort_host_mtx_sparsity_pattern : 5 ms
[OGL LOG] sort_host_mtx : 2 ms
[OGL LOG] init_preconditioner : 0 ms
[OGL LOG] solve : 174 ms
noneompGKOIR:  Solving for p, Initial residual = 0.112494, Final residual = 2.46422e-05, No Iterations 2
linear solve p 196167
time step continuity errors : sum local = 1.80256e-08, global = -9.19642e-21, cumulative = -5.98336e-21
[OGL LOG] init_host_sparsity_pattern : 6 ms
[OGL LOG] matrix not stored update host matrix
[OGL LOG] update_host_mtx : 3 ms
[OGL LOG] matrix is not yet sorted, sorting host matrix
[OGL LOG] sort_host_mtx_sparsity_pattern : 5 ms
[OGL LOG] sort_host_mtx : 2 ms
[OGL LOG] init_preconditioner : 0 ms
[OGL LOG] solve : 177 ms
noneompGKOIR:  Solving for p, Initial residual = 0.0832892, Final residual = 1.56051e-05, No Iterations 2
linear solve p 198554
time step continuity errors : sum local = 1.1631e-08, global = -3.37051e-20, cumulative = -3.96885e-20
ExecutionTime = 1.72 s  ClockTime = 2 s

Time = 0.004

Courant Number mean: 0.0286421 max: 0.226394
DILUPBiCGStab:  Solving for Ux, Initial residual = 0.0460395, Final residual = 6.36573e-09, No Iterations 5
DILUPBiCGStab:  Solving for Uy, Initial residual = 0.070005, Final residual = 4.32918e-09, No Iterations 5
DILUPBiCGStab:  Solving for Uz, Initial residual = 0.109804, Final residual = 1.40845e-08, No Iterations 5
linear solve U 17289
[OGL LOG] init_host_sparsity_pattern : 6 ms
[OGL LOG] matrix not stored update host matrix
[OGL LOG] update_host_mtx : 3 ms
[OGL LOG] matrix is not yet sorted, sorting host matrix
[OGL LOG] sort_host_mtx_sparsity_pattern : 5 ms
[OGL LOG] sort_host_mtx : 2 ms
[OGL LOG] init_preconditioner : 0 ms
[OGL LOG] solve : 173 ms
noneompGKOIR:  Solving for p, Initial residual = 0.0570732, Final residual = 1.47016e-05, No Iterations 2
linear solve p 195745
time step continuity errors : sum local = 1.07838e-08, global = 3.38831e-21, cumulative = -3.63002e-20
[OGL LOG] init_host_sparsity_pattern : 7 ms
[OGL LOG] matrix not stored update host matrix
[OGL LOG] update_host_mtx : 3 ms
[OGL LOG] matrix is not yet sorted, sorting host matrix
[OGL LOG] sort_host_mtx_sparsity_pattern : 5 ms
[OGL LOG] sort_host_mtx : 2 ms
[OGL LOG] init_preconditioner : 0 ms
[OGL LOG] solve : 177 ms
noneompGKOIR:  Solving for p, Initial residual = 0.0419722, Final residual = 8.77118e-06, No Iterations 2
linear solve p 200121
time step continuity errors : sum local = 6.54027e-09, global = -1.39e-20, cumulative = -5.02002e-20
ExecutionTime = 2.15 s  ClockTime = 3 s

Time = 0.005

Courant Number mean: 0.0323427 max: 0.237404
DILUPBiCGStab:  Solving for Ux, Initial residual = 0.0314345, Final residual = 2.99119e-09, No Iterations 5
DILUPBiCGStab:  Solving for Uy, Initial residual = 0.048219, Final residual = 2.4184e-09, No Iterations 5
DILUPBiCGStab:  Solving for Uz, Initial residual = 0.0799244, Final residual = 8.32452e-09, No Iterations 5
linear solve U 17258
[OGL LOG] init_host_sparsity_pattern : 6 ms
[OGL LOG] matrix not stored update host matrix
[OGL LOG] update_host_mtx : 3 ms
[OGL LOG] matrix is not yet sorted, sorting host matrix
[OGL LOG] sort_host_mtx_sparsity_pattern : 5 ms
[OGL LOG] sort_host_mtx : 2 ms
[OGL LOG] init_preconditioner : 0 ms
[OGL LOG] solve : 173 ms
noneompGKOIR:  Solving for p, Initial residual = 0.0353474, Final residual = 7.97234e-06, No Iterations 2
linear solve p 195251
time step continuity errors : sum local = 5.9508e-09, global = -3.86478e-21, cumulative = -5.40649e-20
[OGL LOG] init_host_sparsity_pattern : 7 ms
[OGL LOG] matrix not stored update host matrix
[OGL LOG] update_host_mtx : 3 ms
[OGL LOG] matrix is not yet sorted, sorting host matrix
[OGL LOG] sort_host_mtx_sparsity_pattern : 5 ms
[OGL LOG] sort_host_mtx : 2 ms
[OGL LOG] init_preconditioner : 0 ms
[OGL LOG] solve : 173 ms
noneompGKOIR:  Solving for p, Initial residual = 0.0261775, Final residual = 4.91388e-06, No Iterations 2
linear solve p 195346
time step continuity errors : sum local = 3.69985e-09, global = -2.10479e-20, cumulative = -7.51128e-20
ExecutionTime = 2.57 s  ClockTime = 3 s

Time = 0.006

Courant Number mean: 0.0352087 max: 0.243905
DILUPBiCGStab:  Solving for Ux, Initial residual = 0.0234911, Final residual = 1.11409e-09, No Iterations 5
DILUPBiCGStab:  Solving for Uy, Initial residual = 0.0364182, Final residual = 1.59035e-09, No Iterations 5
DILUPBiCGStab:  Solving for Uz, Initial residual = 0.0634279, Final residual = 5.54292e-09, No Iterations 5
linear solve U 17345
[OGL LOG] init_host_sparsity_pattern : 7 ms
[OGL LOG] matrix not stored update host matrix
[OGL LOG] update_host_mtx : 3 ms
[OGL LOG] matrix is not yet sorted, sorting host matrix
[OGL LOG] sort_host_mtx_sparsity_pattern : 5 ms
[OGL LOG] sort_host_mtx : 2 ms
[OGL LOG] init_preconditioner : 0 ms
[OGL LOG] solve : 173 ms
noneompGKOIR:  Solving for p, Initial residual = 0.0251922, Final residual = 5.32573e-06, No Iterations 2
linear solve p 195581
time step continuity errors : sum local = 4.02169e-09, global = -2.1881e-21, cumulative = -7.73009e-20
[OGL LOG] init_host_sparsity_pattern : 7 ms
[OGL LOG] matrix not stored update host matrix
[OGL LOG] update_host_mtx : 3 ms
[OGL LOG] matrix is not yet sorted, sorting host matrix
[OGL LOG] sort_host_mtx_sparsity_pattern : 5 ms
[OGL LOG] sort_host_mtx : 2 ms
[OGL LOG] init_preconditioner : 0 ms
[OGL LOG] solve : 174 ms
noneompGKOIR:  Solving for p, Initial residual = 0.0187608, Final residual = 3.33598e-06, No Iterations 2
linear solve p 196916
time step continuity errors : sum local = 2.53427e-09, global = 1.40286e-20, cumulative = -6.32723e-20
ExecutionTime = 2.99 s  ClockTime = 3 s

Time = 0.007

Courant Number mean: 0.0375052 max: 0.24826
DILUPBiCGStab:  Solving for Ux, Initial residual = 0.018539, Final residual = 5.57357e-10, No Iterations 5
DILUPBiCGStab:  Solving for Uy, Initial residual = 0.0289663, Final residual = 1.14274e-09, No Iterations 5
DILUPBiCGStab:  Solving for Uz, Initial residual = 0.0523542, Final residual = 3.58321e-09, No Iterations 5
linear solve U 17248
[OGL LOG] init_host_sparsity_pattern : 6 ms
[OGL LOG] matrix not stored update host matrix
[OGL LOG] update_host_mtx : 3 ms
[OGL LOG] matrix is not yet sorted, sorting host matrix
[OGL LOG] sort_host_mtx_sparsity_pattern : 5 ms
[OGL LOG] sort_host_mtx : 2 ms
[OGL LOG] init_preconditioner : 0 ms
[OGL LOG] solve : 175 ms
noneompGKOIR:  Solving for p, Initial residual = 0.0195504, Final residual = 4.08332e-06, No Iterations 2
linear solve p 196882
time step continuity errors : sum local = 3.11069e-09, global = -2.41709e-20, cumulative = -8.74432e-20
[OGL LOG] init_host_sparsity_pattern : 7 ms
[OGL LOG] matrix not stored update host matrix
[OGL LOG] update_host_mtx : 3 ms
[OGL LOG] matrix is not yet sorted, sorting host matrix
[OGL LOG] sort_host_mtx_sparsity_pattern : 5 ms
[OGL LOG] sort_host_mtx : 2 ms
[OGL LOG] init_preconditioner : 0 ms
[OGL LOG] solve : 175 ms
noneompGKOIR:  Solving for p, Initial residual = 0.0146668, Final residual = 2.79006e-06, No Iterations 2
linear solve p 197772
time step continuity errors : sum local = 2.13431e-09, global = -3.45085e-20, cumulative = -1.21952e-19
ExecutionTime = 3.42 s  ClockTime = 4 s

Time = 0.008

Courant Number mean: 0.0393976 max: 0.251424
DILUPBiCGStab:  Solving for Ux, Initial residual = 0.0151132, Final residual = 3.45476e-10, No Iterations 5
DILUPBiCGStab:  Solving for Uy, Initial residual = 0.0238477, Final residual = 8.31492e-10, No Iterations 5
DILUPBiCGStab:  Solving for Uz, Initial residual = 0.0442507, Final residual = 2.31173e-09, No Iterations 5
linear solve U 17471
[OGL LOG] init_host_sparsity_pattern : 7 ms
[OGL LOG] matrix not stored update host matrix
[OGL LOG] update_host_mtx : 3 ms
[OGL LOG] matrix is not yet sorted, sorting host matrix
[OGL LOG] sort_host_mtx_sparsity_pattern : 5 ms
[OGL LOG] sort_host_mtx : 2 ms
[OGL LOG] init_preconditioner : 0 ms
[OGL LOG] solve : 175 ms
noneompGKOIR:  Solving for p, Initial residual = 0.0157288, Final residual = 3.23068e-06, No Iterations 2
linear solve p 198300
time step continuity errors : sum local = 2.47798e-09, global = 2.20372e-20, cumulative = -9.99144e-20
[OGL LOG] init_host_sparsity_pattern : 7 ms
[OGL LOG] matrix not stored update host matrix
[OGL LOG] update_host_mtx : 3 ms
[OGL LOG] matrix is not yet sorted, sorting host matrix
[OGL LOG] sort_host_mtx_sparsity_pattern : 5 ms
[OGL LOG] sort_host_mtx : 2 ms
[OGL LOG] init_preconditioner : 0 ms
[OGL LOG] solve : 177 ms
noneompGKOIR:  Solving for p, Initial residual = 0.0118792, Final residual = 1.9731e-06, No Iterations 2
linear solve p 199785
time step continuity errors : sum local = 1.51799e-09, global = -2.83612e-20, cumulative = -1.28276e-19
ExecutionTime = 3.84 s  ClockTime = 4 s

Time = 0.009

Courant Number mean: 0.0410397 max: 0.253855
DILUPBiCGStab:  Solving for Ux, Initial residual = 0.0126625, Final residual = 2.44246e-10, No Iterations 5
DILUPBiCGStab:  Solving for Uy, Initial residual = 0.0201045, Final residual = 6.2323e-10, No Iterations 5
DILUPBiCGStab:  Solving for Uz, Initial residual = 0.0380281, Final residual = 1.54185e-09, No Iterations 5
linear solve U 17519
[OGL LOG] init_host_sparsity_pattern : 6 ms
[OGL LOG] matrix not stored update host matrix
[OGL LOG] update_host_mtx : 3 ms
[OGL LOG] matrix is not yet sorted, sorting host matrix
[OGL LOG] sort_host_mtx_sparsity_pattern : 5 ms
[OGL LOG] sort_host_mtx : 2 ms
[OGL LOG] init_preconditioner : 0 ms
[OGL LOG] solve : 177 ms
noneompGKOIR:  Solving for p, Initial residual = 0.0130901, Final residual = 2.50233e-06, No Iterations 2
linear solve p 199750
time step continuity errors : sum local = 1.92912e-09, global = 1.45614e-20, cumulative = -1.13714e-19
[OGL LOG] init_host_sparsity_pattern : 7 ms
[OGL LOG] matrix not stored update host matrix
[OGL LOG] update_host_mtx : 3 ms
[OGL LOG] matrix is not yet sorted, sorting host matrix
[OGL LOG] sort_host_mtx_sparsity_pattern : 5 ms
[OGL LOG] sort_host_mtx : 2 ms
[OGL LOG] init_preconditioner : 0 ms
[OGL LOG] solve : 178 ms
noneompGKOIR:  Solving for p, Initial residual = 0.00992437, Final residual = 1.43774e-06, No Iterations 2
linear solve p 200234
time step continuity errors : sum local = 1.11127e-09, global = -2.66149e-20, cumulative = -1.40329e-19
ExecutionTime = 4.27 s  ClockTime = 5 s

Time = 0.01

Courant Number mean: 0.042471 max: 0.255787
DILUPBiCGStab:  Solving for Ux, Initial residual = 0.010788, Final residual = 1.85942e-10, No Iterations 5
DILUPBiCGStab:  Solving for Uy, Initial residual = 0.0172474, Final residual = 4.81238e-10, No Iterations 5
DILUPBiCGStab:  Solving for Uz, Initial residual = 0.033102, Final residual = 1.07262e-09, No Iterations 5
linear solve U 17593
[OGL LOG] init_host_sparsity_pattern : 6 ms
[OGL LOG] matrix not stored update host matrix
[OGL LOG] update_host_mtx : 3 ms
[OGL LOG] matrix is not yet sorted, sorting host matrix
[OGL LOG] sort_host_mtx_sparsity_pattern : 5 ms
[OGL LOG] sort_host_mtx : 2 ms
[OGL LOG] init_preconditioner : 0 ms
[OGL LOG] solve : 177 ms
noneompGKOIR:  Solving for p, Initial residual = 0.0110835, Final residual = 1.92215e-06, No Iterations 2
linear solve p 199815
time step continuity errors : sum local = 1.48824e-09, global = -3.76252e-20, cumulative = -1.77954e-19
[OGL LOG] init_host_sparsity_pattern : 7 ms
[OGL LOG] matrix not stored update host matrix
[OGL LOG] update_host_mtx : 3 ms
[OGL LOG] matrix is not yet sorted, sorting host matrix
[OGL LOG] sort_host_mtx_sparsity_pattern : 5 ms
[OGL LOG] sort_host_mtx : 2 ms
[OGL LOG] init_preconditioner : 0 ms
[OGL LOG] solve : 177 ms
noneompGKOIR:  Solving for p, Initial residual = 0.0084371, Final residual = 1.27444e-06, No Iterations 2
linear solve p 199465
time step continuity errors : sum local = 9.88858e-10, global = 1.07337e-20, cumulative = -1.67221e-19
ExecutionTime = 4.7 s  ClockTime = 5 s

End

