/*---------------------------------------------------------------------------*\
  =========                 |
  \\      /  F ield         | OpenFOAM: The Open Source CFD Toolbox
   \\    /   O peration     | Website:  https://openfoam.org
    \\  /    A nd           | Version:  8
     \\/     M anipulation  |
\*---------------------------------------------------------------------------*/
Build  : 8-40a5a48f630f
Exec   : icoFoam
Date   : Jul 28 2021
Time   : 13:37:35
Host   : "uc2n449.localdomain"
PID    : 1433671
I/O    : uncollated
Case   : /pfs/data5/home/kit/scc/nq7776/code/OBR/lidDrivenCavity3D/Variation_mesh/30/Variation_matrix_solver/IR_NoPrecond_OMP/base
nProcs : 1
sigFpe : Enabling floating point exception trapping (FOAM_SIGFPE).
fileModificationChecking : Monitoring run-time modified files using timeStampMaster (fileModificationSkew 10)
allowSystemOperations : Allowing user-supplied system call operations

// * * * * * * * * * * * * * * * * * * * * * * * * * * * * * * * * * * * * * //
Create time

Create mesh for time = 0

Reading transportProperties

Reading field p

Reading field U

Reading/calculating face flux field phi


Starting time loop

Time = 0.001

Courant Number mean: 0 max: 0
nonePBiCGStab:  Solving for Ux, Initial residual = 1, Final residual = 0.00734209, No Iterations 5
nonePBiCGStab:  Solving for Uy, Initial residual = 0, Final residual = 0, No Iterations 0
nonePBiCGStab:  Solving for Uz, Initial residual = 0, Final residual = 0, No Iterations 0
linear solve U 5
[OGL LOG] init_host_sparsity_pattern : 7 ms
[OGL LOG] matrix not stored update host matrix
[OGL LOG] update_host_mtx : 4 ms
[OGL LOG] matrix is not yet sorted, compute sorting idxs
[OGL LOG] compute_sort : 190 ms
[OGL LOG] matrix is not yet sorted, sorting host matrix
[OGL LOG] sort_host_mtx_sparsity_pattern : 5 ms
[OGL LOG] sort_host_mtx : 3 ms
[OGL LOG] init_preconditioner : 0 ms
[OGL LOG] solve : 153 ms
noneompGKOIR:  Solving for p, Initial residual = 1, Final residual = 7.92978e-06, No Iterations 3
linear solve p 389
time step continuity errors : sum local = 4.22378e-09, global = -1.27842e-20, cumulative = -1.27842e-20
[OGL LOG] init_host_sparsity_pattern : 8 ms
[OGL LOG] matrix not stored update host matrix
[OGL LOG] update_host_mtx : 4 ms
[OGL LOG] matrix is not yet sorted, sorting host matrix
[OGL LOG] sort_host_mtx_sparsity_pattern : 5 ms
[OGL LOG] sort_host_mtx : 2 ms
[OGL LOG] init_preconditioner : 0 ms
[OGL LOG] solve : 94 ms
noneompGKOIR:  Solving for p, Initial residual = 0.531088, Final residual = 2.45327e-06, No Iterations 3
linear solve p 119
time step continuity errors : sum local = 2.04596e-09, global = 9.35483e-22, cumulative = -1.18487e-20
ExecutionTime = 10.14 s  ClockTime = 1 s

Time = 0.002

Courant Number mean: 0.015082 max: 0.148277
nonePBiCGStab:  Solving for Ux, Initial residual = 0.195864, Final residual = 0.00210031, No Iterations 5
nonePBiCGStab:  Solving for Uy, Initial residual = 0.281603, Final residual = 0.00191331, No Iterations 5
nonePBiCGStab:  Solving for Uz, Initial residual = 0.925318, Final residual = 0.0100566, No Iterations 5
linear solve U 10
[OGL LOG] init_host_sparsity_pattern : 7 ms
[OGL LOG] matrix not stored update host matrix
[OGL LOG] update_host_mtx : 3 ms
[OGL LOG] matrix is not yet sorted, sorting host matrix
[OGL LOG] sort_host_mtx_sparsity_pattern : 5 ms
[OGL LOG] sort_host_mtx : 2 ms
[OGL LOG] init_preconditioner : 0 ms
[OGL LOG] solve : 95 ms
noneompGKOIR:  Solving for p, Initial residual = 0.350897, Final residual = 8.58822e-07, No Iterations 3
linear solve p 117
time step continuity errors : sum local = 6.74954e-10, global = 2.76472e-20, cumulative = 1.57986e-20
[OGL LOG] init_host_sparsity_pattern : 7 ms
[OGL LOG] matrix not stored update host matrix
[OGL LOG] update_host_mtx : 3 ms
[OGL LOG] matrix is not yet sorted, sorting host matrix
[OGL LOG] sort_host_mtx_sparsity_pattern : 5 ms
[OGL LOG] sort_host_mtx : 2 ms
[OGL LOG] init_preconditioner : 0 ms
[OGL LOG] solve : 73 ms
noneompGKOIR:  Solving for p, Initial residual = 0.251239, Final residual = 7.09195e-05, No Iterations 2
linear solve p 96
time step continuity errors : sum local = 5.86209e-08, global = 9.00257e-22, cumulative = 1.66988e-20
ExecutionTime = 17.49 s  ClockTime = 1 s

Time = 0.003

Courant Number mean: 0.0234541 max: 0.204101
nonePBiCGStab:  Solving for Ux, Initial residual = 0.0796785, Final residual = 0.000580144, No Iterations 5
nonePBiCGStab:  Solving for Uy, Initial residual = 0.116757, Final residual = 0.000486154, No Iterations 5
nonePBiCGStab:  Solving for Uz, Initial residual = 0.20944, Final residual = 0.00162381, No Iterations 5
linear solve U 10
[OGL LOG] init_host_sparsity_pattern : 7 ms
[OGL LOG] matrix not stored update host matrix
[OGL LOG] update_host_mtx : 3 ms
[OGL LOG] matrix is not yet sorted, sorting host matrix
[OGL LOG] sort_host_mtx_sparsity_pattern : 5 ms
[OGL LOG] sort_host_mtx : 2 ms
[OGL LOG] init_preconditioner : 0 ms
[OGL LOG] solve : 74 ms
noneompGKOIR:  Solving for p, Initial residual = 0.110585, Final residual = 2.47195e-05, No Iterations 2
linear solve p 96
time step continuity errors : sum local = 1.80496e-08, global = -2.03718e-20, cumulative = -3.67296e-21
[OGL LOG] init_host_sparsity_pattern : 7 ms
[OGL LOG] matrix not stored update host matrix
[OGL LOG] update_host_mtx : 3 ms
[OGL LOG] matrix is not yet sorted, sorting host matrix
[OGL LOG] sort_host_mtx_sparsity_pattern : 5 ms
[OGL LOG] sort_host_mtx : 2 ms
[OGL LOG] init_preconditioner : 0 ms
[OGL LOG] solve : 73 ms
noneompGKOIR:  Solving for p, Initial residual = 0.0812294, Final residual = 1.6437e-05, No Iterations 2
linear solve p 95
time step continuity errors : sum local = 1.22267e-08, global = 3.76756e-21, cumulative = 9.46052e-23
ExecutionTime = 23.97 s  ClockTime = 1 s

Time = 0.004

Courant Number mean: 0.028581 max: 0.226294
nonePBiCGStab:  Solving for Ux, Initial residual = 0.0461252, Final residual = 0.000145536, No Iterations 5
nonePBiCGStab:  Solving for Uy, Initial residual = 0.0702953, Final residual = 0.000144939, No Iterations 5
nonePBiCGStab:  Solving for Uz, Initial residual = 0.11334, Final residual = 0.00065335, No Iterations 5
linear solve U 10
[OGL LOG] init_host_sparsity_pattern : 7 ms
[OGL LOG] matrix not stored update host matrix
[OGL LOG] update_host_mtx : 3 ms
[OGL LOG] matrix is not yet sorted, sorting host matrix
[OGL LOG] sort_host_mtx_sparsity_pattern : 5 ms
[OGL LOG] sort_host_mtx : 2 ms
[OGL LOG] init_preconditioner : 0 ms
[OGL LOG] solve : 73 ms
noneompGKOIR:  Solving for p, Initial residual = 0.0567803, Final residual = 1.55602e-05, No Iterations 2
linear solve p 95
time step continuity errors : sum local = 1.14081e-08, global = -5.85728e-22, cumulative = -4.91123e-22
[OGL LOG] init_host_sparsity_pattern : 7 ms
[OGL LOG] matrix not stored update host matrix
[OGL LOG] update_host_mtx : 3 ms
[OGL LOG] matrix is not yet sorted, sorting host matrix
[OGL LOG] sort_host_mtx_sparsity_pattern : 5 ms
[OGL LOG] sort_host_mtx : 2 ms
[OGL LOG] init_preconditioner : 0 ms
[OGL LOG] solve : 74 ms
noneompGKOIR:  Solving for p, Initial residual = 0.0415743, Final residual = 8.56544e-06, No Iterations 2
linear solve p 96
time step continuity errors : sum local = 6.38457e-09, global = 4.00437e-21, cumulative = 3.51325e-21
ExecutionTime = 30.44 s  ClockTime = 2 s

Time = 0.005

Courant Number mean: 0.0322797 max: 0.237314
nonePBiCGStab:  Solving for Ux, Initial residual = 0.0315198, Final residual = 6.67358e-05, No Iterations 5
nonePBiCGStab:  Solving for Uy, Initial residual = 0.0484214, Final residual = 7.36368e-05, No Iterations 5
nonePBiCGStab:  Solving for Uz, Initial residual = 0.0821973, Final residual = 0.000332795, No Iterations 5
linear solve U 10
[OGL LOG] init_host_sparsity_pattern : 7 ms
[OGL LOG] matrix not stored update host matrix
[OGL LOG] update_host_mtx : 3 ms
[OGL LOG] matrix is not yet sorted, sorting host matrix
[OGL LOG] sort_host_mtx_sparsity_pattern : 5 ms
[OGL LOG] sort_host_mtx : 2 ms
[OGL LOG] init_preconditioner : 0 ms
[OGL LOG] solve : 74 ms
noneompGKOIR:  Solving for p, Initial residual = 0.0352014, Final residual = 7.92657e-06, No Iterations 2
linear solve p 95
time step continuity errors : sum local = 5.91506e-09, global = 3.0469e-20, cumulative = 3.39823e-20
[OGL LOG] init_host_sparsity_pattern : 7 ms
[OGL LOG] matrix not stored update host matrix
[OGL LOG] update_host_mtx : 3 ms
[OGL LOG] matrix is not yet sorted, sorting host matrix
[OGL LOG] sort_host_mtx_sparsity_pattern : 5 ms
[OGL LOG] sort_host_mtx : 2 ms
[OGL LOG] init_preconditioner : 0 ms
[OGL LOG] solve : 73 ms
noneompGKOIR:  Solving for p, Initial residual = 0.0259848, Final residual = 5.22512e-06, No Iterations 2
linear solve p 95
time step continuity errors : sum local = 3.93327e-09, global = 4.37903e-21, cumulative = 3.83613e-20
ExecutionTime = 36.94 s  ClockTime = 2 s

Time = 0.006

Courant Number mean: 0.0351495 max: 0.243824
nonePBiCGStab:  Solving for Ux, Initial residual = 0.0235743, Final residual = 3.63164e-05, No Iterations 5
nonePBiCGStab:  Solving for Uy, Initial residual = 0.036575, Final residual = 4.2995e-05, No Iterations 5
nonePBiCGStab:  Solving for Uz, Initial residual = 0.0649286, Final residual = 0.000192255, No Iterations 5
linear solve U 10
[OGL LOG] init_host_sparsity_pattern : 7 ms
[OGL LOG] matrix not stored update host matrix
[OGL LOG] update_host_mtx : 3 ms
[OGL LOG] matrix is not yet sorted, sorting host matrix
[OGL LOG] sort_host_mtx_sparsity_pattern : 5 ms
[OGL LOG] sort_host_mtx : 2 ms
[OGL LOG] init_preconditioner : 0 ms
[OGL LOG] solve : 73 ms
noneompGKOIR:  Solving for p, Initial residual = 0.0251425, Final residual = 5.84432e-06, No Iterations 2
linear solve p 95
time step continuity errors : sum local = 4.41234e-09, global = -1.65388e-20, cumulative = 2.18226e-20
[OGL LOG] init_host_sparsity_pattern : 7 ms
[OGL LOG] matrix not stored update host matrix
[OGL LOG] update_host_mtx : 3 ms
[OGL LOG] matrix is not yet sorted, sorting host matrix
[OGL LOG] sort_host_mtx_sparsity_pattern : 5 ms
[OGL LOG] sort_host_mtx : 2 ms
[OGL LOG] init_preconditioner : 0 ms
[OGL LOG] solve : 82 ms
noneompGKOIR:  Solving for p, Initial residual = 0.0186855, Final residual = 3.62764e-06, No Iterations 2
linear solve p 107
time step continuity errors : sum local = 2.75548e-09, global = -2.49787e-20, cumulative = -3.15611e-21
ExecutionTime = 43.89 s  ClockTime = 2 s

Time = 0.007

Courant Number mean: 0.0374505 max: 0.248188
nonePBiCGStab:  Solving for Ux, Initial residual = 0.0186123, Final residual = 2.12642e-05, No Iterations 5
nonePBiCGStab:  Solving for Uy, Initial residual = 0.0290919, Final residual = 2.68849e-05, No Iterations 5
nonePBiCGStab:  Solving for Uz, Initial residual = 0.0533901, Final residual = 0.000118607, No Iterations 5
linear solve U 9
[OGL LOG] init_host_sparsity_pattern : 6 ms
[OGL LOG] matrix not stored update host matrix
[OGL LOG] update_host_mtx : 3 ms
[OGL LOG] matrix is not yet sorted, sorting host matrix
[OGL LOG] sort_host_mtx_sparsity_pattern : 5 ms
[OGL LOG] sort_host_mtx : 2 ms
[OGL LOG] init_preconditioner : 0 ms
[OGL LOG] solve : 74 ms
noneompGKOIR:  Solving for p, Initial residual = 0.0195443, Final residual = 3.54618e-06, No Iterations 2
linear solve p 99
time step continuity errors : sum local = 2.70119e-09, global = 3.27546e-20, cumulative = 2.95985e-20
[OGL LOG] init_host_sparsity_pattern : 7 ms
[OGL LOG] matrix not stored update host matrix
[OGL LOG] update_host_mtx : 3 ms
[OGL LOG] matrix is not yet sorted, sorting host matrix
[OGL LOG] sort_host_mtx_sparsity_pattern : 5 ms
[OGL LOG] sort_host_mtx : 2 ms
[OGL LOG] init_preconditioner : 0 ms
[OGL LOG] solve : 75 ms
noneompGKOIR:  Solving for p, Initial residual = 0.0146366, Final residual = 2.40904e-06, No Iterations 2
linear solve p 98
time step continuity errors : sum local = 1.84257e-09, global = 1.50263e-20, cumulative = 4.46248e-20
ExecutionTime = 50.33 s  ClockTime = 2 s

Time = 0.008

Courant Number mean: 0.0393461 max: 0.25136
nonePBiCGStab:  Solving for Ux, Initial residual = 0.0151767, Final residual = 1.24728e-05, No Iterations 5
nonePBiCGStab:  Solving for Uy, Initial residual = 0.0239509, Final residual = 1.76564e-05, No Iterations 5
nonePBiCGStab:  Solving for Uz, Initial residual = 0.0450036, Final residual = 7.77283e-05, No Iterations 5
linear solve U 9
[OGL LOG] init_host_sparsity_pattern : 7 ms
[OGL LOG] matrix not stored update host matrix
[OGL LOG] update_host_mtx : 3 ms
[OGL LOG] matrix is not yet sorted, sorting host matrix
[OGL LOG] sort_host_mtx_sparsity_pattern : 5 ms
[OGL LOG] sort_host_mtx : 2 ms
[OGL LOG] init_preconditioner : 0 ms
[OGL LOG] solve : 74 ms
noneompGKOIR:  Solving for p, Initial residual = 0.0157421, Final residual = 3.27294e-06, No Iterations 2
linear solve p 97
time step continuity errors : sum local = 2.51003e-09, global = 2.02211e-20, cumulative = 6.48459e-20
[OGL LOG] init_host_sparsity_pattern : 7 ms
[OGL LOG] matrix not stored update host matrix
[OGL LOG] update_host_mtx : 3 ms
[OGL LOG] matrix is not yet sorted, sorting host matrix
[OGL LOG] sort_host_mtx_sparsity_pattern : 5 ms
[OGL LOG] sort_host_mtx : 2 ms
[OGL LOG] init_preconditioner : 0 ms
[OGL LOG] solve : 75 ms
noneompGKOIR:  Solving for p, Initial residual = 0.0118754, Final residual = 2.08861e-06, No Iterations 2
linear solve p 98
time step continuity errors : sum local = 1.60669e-09, global = 4.96855e-20, cumulative = 1.14531e-19
ExecutionTime = 56.87 s  ClockTime = 3 s

Time = 0.009

Courant Number mean: 0.0409907 max: 0.253798
nonePBiCGStab:  Solving for Ux, Initial residual = 0.0127176, Final residual = 8.20566e-06, No Iterations 5
nonePBiCGStab:  Solving for Uy, Initial residual = 0.0201905, Final residual = 1.22231e-05, No Iterations 5
nonePBiCGStab:  Solving for Uz, Initial residual = 0.0385964, Final residual = 5.62302e-05, No Iterations 5
linear solve U 9
[OGL LOG] init_host_sparsity_pattern : 7 ms
[OGL LOG] matrix not stored update host matrix
[OGL LOG] update_host_mtx : 3 ms
[OGL LOG] matrix is not yet sorted, sorting host matrix
[OGL LOG] sort_host_mtx_sparsity_pattern : 5 ms
[OGL LOG] sort_host_mtx : 2 ms
[OGL LOG] init_preconditioner : 0 ms
[OGL LOG] solve : 75 ms
noneompGKOIR:  Solving for p, Initial residual = 0.0131113, Final residual = 2.48312e-06, No Iterations 2
linear solve p 98
time step continuity errors : sum local = 1.91409e-09, global = 1.86295e-20, cumulative = 1.33161e-19
[OGL LOG] init_host_sparsity_pattern : 7 ms
[OGL LOG] matrix not stored update host matrix
[OGL LOG] update_host_mtx : 4 ms
[OGL LOG] matrix is not yet sorted, sorting host matrix
[OGL LOG] sort_host_mtx_sparsity_pattern : 5 ms
[OGL LOG] sort_host_mtx : 2 ms
[OGL LOG] init_preconditioner : 0 ms
[OGL LOG] solve : 75 ms
noneompGKOIR:  Solving for p, Initial residual = 0.00993003, Final residual = 1.44849e-06, No Iterations 2
linear solve p 98
time step continuity errors : sum local = 1.11946e-09, global = 2.82534e-20, cumulative = 1.61414e-19
ExecutionTime = 63.49 s  ClockTime = 3 s

Time = 0.01

Courant Number mean: 0.0424257 max: 0.255737
nonePBiCGStab:  Solving for Ux, Initial residual = 0.0108357, Final residual = 5.67581e-06, No Iterations 5
nonePBiCGStab:  Solving for Uy, Initial residual = 0.0173201, Final residual = 8.91066e-06, No Iterations 5
nonePBiCGStab:  Solving for Uz, Initial residual = 0.0335456, Final residual = 4.31345e-05, No Iterations 5
linear solve U 10
[OGL LOG] init_host_sparsity_pattern : 7 ms
[OGL LOG] matrix not stored update host matrix
[OGL LOG] update_host_mtx : 4 ms
[OGL LOG] matrix is not yet sorted, sorting host matrix
[OGL LOG] sort_host_mtx_sparsity_pattern : 5 ms
[OGL LOG] sort_host_mtx : 2 ms
[OGL LOG] init_preconditioner : 0 ms
[OGL LOG] solve : 75 ms
noneompGKOIR:  Solving for p, Initial residual = 0.0111046, Final residual = 1.93062e-06, No Iterations 2
linear solve p 98
time step continuity errors : sum local = 1.49464e-09, global = 3.98955e-21, cumulative = 1.65404e-19
[OGL LOG] init_host_sparsity_pattern : 7 ms
[OGL LOG] matrix not stored update host matrix
[OGL LOG] update_host_mtx : 4 ms
[OGL LOG] matrix is not yet sorted, sorting host matrix
[OGL LOG] sort_host_mtx_sparsity_pattern : 5 ms
[OGL LOG] sort_host_mtx : 2 ms
[OGL LOG] init_preconditioner : 0 ms
[OGL LOG] solve : 75 ms
noneompGKOIR:  Solving for p, Initial residual = 0.00844614, Final residual = 1.29492e-06, No Iterations 2
linear solve p 99
time step continuity errors : sum local = 1.00464e-09, global = -1.99153e-20, cumulative = 1.45489e-19
ExecutionTime = 70.06 s  ClockTime = 3 s

End

