/*---------------------------------------------------------------------------*\
  =========                 |
  \\      /  F ield         | OpenFOAM: The Open Source CFD Toolbox
   \\    /   O peration     | Website:  https://openfoam.org
    \\  /    A nd           | Version:  8
     \\/     M anipulation  |
\*---------------------------------------------------------------------------*/
Build  : 8-14d69e1ee166
Exec   : icoFoam
Date   : Jul 29 2021
Time   : 06:50:01
Host   : "guyot.icl.utk.edu"
PID    : 193592
I/O    : uncollated
Case   : /home/greole/code/OBR/lidDrivenCavity3D/Variation_mesh/85/Variation_matrix_solver/BiCGStab_NoPrecond_CUDA/base
nProcs : 1
sigFpe : Enabling floating point exception trapping (FOAM_SIGFPE).
fileModificationChecking : Monitoring run-time modified files using timeStampMaster (fileModificationSkew 10)
allowSystemOperations : Allowing user-supplied system call operations

// * * * * * * * * * * * * * * * * * * * * * * * * * * * * * * * * * * * * * //
Create time

Create mesh for time = 0

Reading transportProperties

Reading field p

Reading field U

Reading/calculating face flux field phi


Starting time loop

Time = 0.001

Courant Number mean: 0 max: 0
DILUPBiCGStab:  Solving for Ux, Initial residual = 1, Final residual = 0.00382019, No Iterations 5
DILUPBiCGStab:  Solving for Uy:  solution singularity
DILUPBiCGStab:  Solving for Uz:  solution singularity
linear solve U 239257
[OGL LOG] init_host_sparsity_pattern : 280 ms
[OGL LOG] matrix not stored update host matrix
[OGL LOG] update_host_mtx : 140 ms
[OGL LOG] matrix is not yet sorted, compute sorting idxs
[OGL LOG] compute_sort : 6396 ms
[OGL LOG] matrix is not yet sorted, sorting host matrix
[OGL LOG] sort_host_mtx_sparsity_pattern : 117 ms
[OGL LOG] sort_host_mtx : 74 ms
[OGL LOG] init_preconditioner : 0 ms
[OGL LOG] solve : 1720 ms
nonecudaGKOBiCGStab:  Solving for p, Initial residual = 1, Final residual = 1.0187e-05, No Iterations 618
linear solve p 10448213
time step continuity errors : sum local = 0.00106126, global = -1.08199e-18, cumulative = -1.08199e-18
[OGL LOG] init_host_sparsity_pattern : 271 ms
[OGL LOG] matrix not stored update host matrix
[OGL LOG] update_host_mtx : 139 ms
[OGL LOG] matrix is not yet sorted, sorting host matrix
[OGL LOG] sort_host_mtx_sparsity_pattern : 105 ms
[OGL LOG] sort_host_mtx : 68 ms
[OGL LOG] init_preconditioner : 0 ms
[OGL LOG] solve : 528 ms
nonecudaGKOBiCGStab:  Solving for p, Initial residual = 0.915808, Final residual = 9.78886e-05, No Iterations 219
linear solve p 1153798
time step continuity errors : sum local = 8.09645e-07, global = -2.13477e-21, cumulative = -1.08412e-18
ExecutionTime = 14.6 s  ClockTime = 15 s

Time = 0.002

Courant Number mean: 0.0479895 max: 0.663657
DILUPBiCGStab:  Solving for Ux, Initial residual = 0.144912, Final residual = 0.00148648, No Iterations 5
DILUPBiCGStab:  Solving for Uy, Initial residual = 0.398622, Final residual = 0.00366726, No Iterations 5
DILUPBiCGStab:  Solving for Uz, Initial residual = 0.888933, Final residual = 0.0148062, No Iterations 5
linear solve U 513417
[OGL LOG] init_host_sparsity_pattern : 269 ms
[OGL LOG] matrix not stored update host matrix
[OGL LOG] update_host_mtx : 142 ms
[OGL LOG] matrix is not yet sorted, sorting host matrix
[OGL LOG] sort_host_mtx_sparsity_pattern : 112 ms
[OGL LOG] sort_host_mtx : 70 ms
[OGL LOG] init_preconditioner : 0 ms
[OGL LOG] solve : 1141 ms
nonecudaGKOBiCGStab:  Solving for p, Initial residual = 0.963848, Final residual = 7.89799e-05, No Iterations 482
linear solve p 1776678
time step continuity errors : sum local = 0.00646976, global = -3.81874e-19, cumulative = -1.466e-18
[OGL LOG] init_host_sparsity_pattern : 270 ms
[OGL LOG] matrix not stored update host matrix
[OGL LOG] update_host_mtx : 139 ms
[OGL LOG] matrix is not yet sorted, sorting host matrix
[OGL LOG] sort_host_mtx_sparsity_pattern : 107 ms
[OGL LOG] sort_host_mtx : 66 ms
[OGL LOG] init_preconditioner : 0 ms
[OGL LOG] solve : 544 ms
nonecudaGKOBiCGStab:  Solving for p, Initial residual = 0.780807, Final residual = 9.81113e-05, No Iterations 228
linear solve p 1167924
time step continuity errors : sum local = 2.92931e-06, global = -4.66323e-23, cumulative = -1.46604e-18
ExecutionTime = 18.41 s  ClockTime = 19 s

Time = 0.003

Courant Number mean: 0.0758142 max: 0.850734
DILUPBiCGStab:  Solving for Ux, Initial residual = 0.0622286, Final residual = 0.000481058, No Iterations 5
DILUPBiCGStab:  Solving for Uy, Initial residual = 0.21495, Final residual = 0.00253431, No Iterations 5
DILUPBiCGStab:  Solving for Uz, Initial residual = 0.844797, Final residual = 0.0141968, No Iterations 5
linear solve U 522891
[OGL LOG] init_host_sparsity_pattern : 264 ms
[OGL LOG] matrix not stored update host matrix
[OGL LOG] update_host_mtx : 139 ms
[OGL LOG] matrix is not yet sorted, sorting host matrix
[OGL LOG] sort_host_mtx_sparsity_pattern : 114 ms
[OGL LOG] sort_host_mtx : 69 ms
[OGL LOG] init_preconditioner : 0 ms
[OGL LOG] solve : 1110 ms
nonecudaGKOBiCGStab:  Solving for p, Initial residual = 0.99201, Final residual = 8.83857e-05, No Iterations 471
linear solve p 1737166
time step continuity errors : sum local = 0.0199827, global = 1.69748e-18, cumulative = 2.31433e-19
[OGL LOG] init_host_sparsity_pattern : 270 ms
[OGL LOG] matrix not stored update host matrix
[OGL LOG] update_host_mtx : 139 ms
[OGL LOG] matrix is not yet sorted, sorting host matrix
[OGL LOG] sort_host_mtx_sparsity_pattern : 114 ms
[OGL LOG] sort_host_mtx : 66 ms
[OGL LOG] init_preconditioner : 0 ms
[OGL LOG] solve : 570 ms
nonecudaGKOBiCGStab:  Solving for p, Initial residual = 0.785883, Final residual = 9.88017e-05, No Iterations 240
linear solve p 1201261
time step continuity errors : sum local = 1.62323e-05, global = -7.75265e-20, cumulative = 1.53907e-19
ExecutionTime = 22.23 s  ClockTime = 22 s

Time = 0.004

Courant Number mean: 0.108921 max: 1.77456
DILUPBiCGStab:  Solving for Ux, Initial residual = 0.102359, Final residual = 0.000989428, No Iterations 5
DILUPBiCGStab:  Solving for Uy, Initial residual = 0.376431, Final residual = 0.00564628, No Iterations 5
DILUPBiCGStab:  Solving for Uz, Initial residual = 0.835734, Final residual = 0.0130623, No Iterations 5
linear solve U 515058
[OGL LOG] init_host_sparsity_pattern : 271 ms
[OGL LOG] matrix not stored update host matrix
[OGL LOG] update_host_mtx : 139 ms
[OGL LOG] matrix is not yet sorted, sorting host matrix
[OGL LOG] sort_host_mtx_sparsity_pattern : 113 ms
[OGL LOG] sort_host_mtx : 68 ms
[OGL LOG] init_preconditioner : 0 ms
[OGL LOG] solve : 1202 ms
nonecudaGKOBiCGStab:  Solving for p, Initial residual = 0.991638, Final residual = 8.54865e-05, No Iterations 505
linear solve p 1833211
time step continuity errors : sum local = 0.0414071, global = 7.75275e-17, cumulative = 7.76814e-17
[OGL LOG] init_host_sparsity_pattern : 270 ms
[OGL LOG] matrix not stored update host matrix
[OGL LOG] update_host_mtx : 139 ms
[OGL LOG] matrix is not yet sorted, sorting host matrix
[OGL LOG] sort_host_mtx_sparsity_pattern : 109 ms
[OGL LOG] sort_host_mtx : 68 ms
[OGL LOG] init_preconditioner : 0 ms
[OGL LOG] solve : 1133 ms
nonecudaGKOBiCGStab:  Solving for p, Initial residual = 0.809893, Final residual = 9.04583e-05, No Iterations 478
linear solve p 1761740
time step continuity errors : sum local = 0.178568, global = 5.32051e-18, cumulative = 8.30019e-17
ExecutionTime = 26.69 s  ClockTime = 27 s

Time = 0.005

Courant Number mean: 0.267273 max: 11.3142
DILUPBiCGStab:  Solving for Ux, Initial residual = 0.273671, Final residual = 0.00295821, No Iterations 5
DILUPBiCGStab:  Solving for Uy, Initial residual = 0.5998, Final residual = 0.014967, No Iterations 5
DILUPBiCGStab:  Solving for Uz, Initial residual = 0.746497, Final residual = 0.0140471, No Iterations 5
linear solve U 519538
[OGL LOG] init_host_sparsity_pattern : 270 ms
[OGL LOG] matrix not stored update host matrix
[OGL LOG] update_host_mtx : 141 ms
[OGL LOG] matrix is not yet sorted, sorting host matrix
[OGL LOG] sort_host_mtx_sparsity_pattern : 110 ms
[OGL LOG] sort_host_mtx : 72 ms
[OGL LOG] init_preconditioner : 0 ms
[OGL LOG] solve : 1040 ms
nonecudaGKOBiCGStab:  Solving for p, Initial residual = 0.901034, Final residual = 9.82776e-05, No Iterations 440
linear solve p 1676133
time step continuity errors : sum local = 0.150003, global = -1.44583e-16, cumulative = -6.15811e-17
[OGL LOG] init_host_sparsity_pattern : 264 ms
[OGL LOG] matrix not stored update host matrix
[OGL LOG] update_host_mtx : 139 ms
[OGL LOG] matrix is not yet sorted, sorting host matrix
[OGL LOG] sort_host_mtx_sparsity_pattern : 111 ms
[OGL LOG] sort_host_mtx : 66 ms
[OGL LOG] init_preconditioner : 0 ms
[OGL LOG] solve : 442 ms
nonecudaGKOBiCGStab:  Solving for p, Initial residual = 0.781927, Final residual = 9.87166e-05, No Iterations 186
linear solve p 1065126
time step continuity errors : sum local = 0.000247136, global = 6.68058e-19, cumulative = -6.09131e-17
ExecutionTime = 30.31 s  ClockTime = 31 s

Time = 0.006

Courant Number mean: 1.27994 max: 19.7165
DILUPBiCGStab:  Solving for Ux, Initial residual = 0.730347, Final residual = 0.0100362, No Iterations 5
DILUPBiCGStab:  Solving for Uy, Initial residual = 0.821501, Final residual = 0.0113969, No Iterations 5
DILUPBiCGStab:  Solving for Uz, Initial residual = 0.679886, Final residual = 0.0100216, No Iterations 5
linear solve U 518887
[OGL LOG] init_host_sparsity_pattern : 264 ms
[OGL LOG] matrix not stored update host matrix
[OGL LOG] update_host_mtx : 139 ms
[OGL LOG] matrix is not yet sorted, sorting host matrix
[OGL LOG] sort_host_mtx_sparsity_pattern : 123 ms
[OGL LOG] sort_host_mtx : 71 ms
[OGL LOG] init_preconditioner : 0 ms
[OGL LOG] solve : 1223 ms
nonecudaGKOBiCGStab:  Solving for p, Initial residual = 0.966042, Final residual = 5.1192e-05, No Iterations 518
linear solve p 1862471
time step continuity errors : sum local = 2.17503, global = 1.82046e-15, cumulative = 1.75955e-15
[OGL LOG] init_host_sparsity_pattern : 265 ms
[OGL LOG] matrix not stored update host matrix
[OGL LOG] update_host_mtx : 141 ms
[OGL LOG] matrix is not yet sorted, sorting host matrix
[OGL LOG] sort_host_mtx_sparsity_pattern : 113 ms
[OGL LOG] sort_host_mtx : 67 ms
[OGL LOG] init_preconditioner : 0 ms
[OGL LOG] solve : 1165 ms
nonecudaGKOBiCGStab:  Solving for p, Initial residual = 0.990048, Final residual = 9.82954e-05, No Iterations 498
linear solve p 1791049
time step continuity errors : sum local = 0.000565771, global = -2.23839e-18, cumulative = 1.75731e-15
ExecutionTime = 34.83 s  ClockTime = 35 s

Time = 0.007

Courant Number mean: 1.023 max: 44.6685
DILUPBiCGStab:  Solving for Ux, Initial residual = 0.737825, Final residual = 0.00811478, No Iterations 5
DILUPBiCGStab:  Solving for Uy, Initial residual = 0.777684, Final residual = 0.0128698, No Iterations 5
DILUPBiCGStab:  Solving for Uz, Initial residual = 0.88187, Final residual = 0.01456, No Iterations 5
linear solve U 515409
[OGL LOG] init_host_sparsity_pattern : 264 ms
[OGL LOG] matrix not stored update host matrix
[OGL LOG] update_host_mtx : 139 ms
[OGL LOG] matrix is not yet sorted, sorting host matrix
[OGL LOG] sort_host_mtx_sparsity_pattern : 103 ms
[OGL LOG] sort_host_mtx : 70 ms
[OGL LOG] init_preconditioner : 0 ms
[OGL LOG] solve : 1098 ms
nonecudaGKOBiCGStab:  Solving for p, Initial residual = 0.991813, Final residual = 9.88427e-05, No Iterations 462
linear solve p 1716898
time step continuity errors : sum local = 0.596348, global = -3.5416e-16, cumulative = 1.40315e-15
[OGL LOG] init_host_sparsity_pattern : 271 ms
[OGL LOG] matrix not stored update host matrix
[OGL LOG] update_host_mtx : 140 ms
[OGL LOG] matrix is not yet sorted, sorting host matrix
[OGL LOG] sort_host_mtx_sparsity_pattern : 105 ms
[OGL LOG] sort_host_mtx : 68 ms
[OGL LOG] init_preconditioner : 0 ms
[OGL LOG] solve : 484 ms
nonecudaGKOBiCGStab:  Solving for p, Initial residual = 0.871733, Final residual = 9.67085e-05, No Iterations 200
linear solve p 1111537
time step continuity errors : sum local = 0.00147611, global = 5.05223e-18, cumulative = 1.4082e-15
ExecutionTime = 38.53 s  ClockTime = 39 s

Time = 0.008

Courant Number mean: 11.0473 max: 143.079
DILUPBiCGStab:  Solving for Ux, Initial residual = 0.820663, Final residual = 0.0963096, No Iterations 5
DILUPBiCGStab:  Solving for Uy, Initial residual = 0.799622, Final residual = 0.0741148, No Iterations 5
DILUPBiCGStab:  Solving for Uz, Initial residual = 0.821523, Final residual = 0.0760854, No Iterations 5
linear solve U 518653
[OGL LOG] init_host_sparsity_pattern : 271 ms
[OGL LOG] matrix not stored update host matrix
[OGL LOG] update_host_mtx : 139 ms
[OGL LOG] matrix is not yet sorted, sorting host matrix
[OGL LOG] sort_host_mtx_sparsity_pattern : 112 ms
[OGL LOG] sort_host_mtx : 68 ms
[OGL LOG] init_preconditioner : 0 ms
[OGL LOG] solve : 1319 ms
nonecudaGKOBiCGStab:  Solving for p, Initial residual = 0.914615, Final residual = 6.61624e-05, No Iterations 550
linear solve p 1951455
time step continuity errors : sum local = 16.1897, global = 1.46439e-14, cumulative = 1.60521e-14
[OGL LOG] init_host_sparsity_pattern : 271 ms
[OGL LOG] matrix not stored update host matrix
[OGL LOG] update_host_mtx : 139 ms
[OGL LOG] matrix is not yet sorted, sorting host matrix
[OGL LOG] sort_host_mtx_sparsity_pattern : 105 ms
[OGL LOG] sort_host_mtx : 70 ms
[OGL LOG] init_preconditioner : 0 ms
[OGL LOG] solve : 442 ms
nonecudaGKOBiCGStab:  Solving for p, Initial residual = 0.910223, Final residual = 9.64287e-05, No Iterations 183
linear solve p 1067965
time step continuity errors : sum local = 0.00409336, global = -4.02337e-17, cumulative = 1.60119e-14
ExecutionTime = 42.42 s  ClockTime = 43 s

Time = 0.009

Courant Number mean: 17.2208 max: 448.512
DILUPBiCGStab:  Solving for Ux, Initial residual = 0.629724, Final residual = 0.20316, No Iterations 5
DILUPBiCGStab:  Solving for Uy, Initial residual = 0.638039, Final residual = 0.248202, No Iterations 5
DILUPBiCGStab:  Solving for Uz, Initial residual = 0.776124, Final residual = 1.11737, No Iterations 5
linear solve U 521924
[OGL LOG] init_host_sparsity_pattern : 271 ms
[OGL LOG] matrix not stored update host matrix
[OGL LOG] update_host_mtx : 140 ms
[OGL LOG] matrix is not yet sorted, sorting host matrix
[OGL LOG] sort_host_mtx_sparsity_pattern : 111 ms
[OGL LOG] sort_host_mtx : 66 ms
[OGL LOG] init_preconditioner : 0 ms
[OGL LOG] solve : 1248 ms
nonecudaGKOBiCGStab:  Solving for p, Initial residual = 0.880517, Final residual = 8.05423e-05, No Iterations 523
linear solve p 1877250
time step continuity errors : sum local = 52.7572, global = -1.6591e-13, cumulative = -1.49898e-13
[OGL LOG] init_host_sparsity_pattern : 270 ms
[OGL LOG] matrix not stored update host matrix
[OGL LOG] update_host_mtx : 139 ms
[OGL LOG] matrix is not yet sorted, sorting host matrix
[OGL LOG] sort_host_mtx_sparsity_pattern : 103 ms
[OGL LOG] sort_host_mtx : 68 ms
[OGL LOG] init_preconditioner : 0 ms
[OGL LOG] solve : 525 ms
nonecudaGKOBiCGStab:  Solving for p, Initial residual = 0.884392, Final residual = 9.8774e-05, No Iterations 219
linear solve p 1147094
time step continuity errors : sum local = 0.0186803, global = -1.07371e-16, cumulative = -1.50005e-13
ExecutionTime = 46.33 s  ClockTime = 47 s

Time = 0.01

Courant Number mean: 192.561 max: 9591.15
DILUPBiCGStab:  Solving for Ux, Initial residual = 0.956114, Final residual = 425.38, No Iterations 5
DILUPBiCGStab:  Solving for Uy, Initial residual = 0.95364, Final residual = 109.154, No Iterations 5
DILUPBiCGStab:  Solving for Uz, Initial residual = 0.935994, Final residual = 78.4373, No Iterations 5
linear solve U 514931
[OGL LOG] init_host_sparsity_pattern : 263 ms
[OGL LOG] matrix not stored update host matrix
[OGL LOG] update_host_mtx : 141 ms
[OGL LOG] matrix is not yet sorted, sorting host matrix
[OGL LOG] sort_host_mtx_sparsity_pattern : 116 ms
[OGL LOG] sort_host_mtx : 68 ms
[OGL LOG] init_preconditioner : 0 ms
[OGL LOG] solve : 1250 ms
nonecudaGKOBiCGStab:  Solving for p, Initial residual = 0.999583, Final residual = 6.89624e-05, No Iterations 527
linear solve p 1880880
time step continuity errors : sum local = 54589.8, global = -3.58583e-11, cumulative = -3.60083e-11
[OGL LOG] init_host_sparsity_pattern : 270 ms
[OGL LOG] matrix not stored update host matrix
[OGL LOG] update_host_mtx : 140 ms
[OGL LOG] matrix is not yet sorted, sorting host matrix
[OGL LOG] sort_host_mtx_sparsity_pattern : 114 ms
[OGL LOG] sort_host_mtx : 67 ms
[OGL LOG] init_preconditioner : 0 ms
[OGL LOG] solve : 566 ms
nonecudaGKOBiCGStab:  Solving for p, Initial residual = 0.844407, Final residual = 9.28787e-05, No Iterations 238
linear solve p 1197454
time step continuity errors : sum local = 101.034, global = -1.02085e-12, cumulative = -3.70291e-11
ExecutionTime = 50.26 s  ClockTime = 50 s

End

