/*---------------------------------------------------------------------------*\
  =========                 |
  \\      /  F ield         | OpenFOAM: The Open Source CFD Toolbox
   \\    /   O peration     | Website:  https://openfoam.org
    \\  /    A nd           | Version:  8
     \\/     M anipulation  |
\*---------------------------------------------------------------------------*/
Build  : 8-ef60d22ea792
Exec   : icoFoam
Date   : Jul 28 2021
Time   : 22:11:04
Host   : "uc2n471.localdomain"
PID    : 2664232
I/O    : uncollated
Case   : /pfs/data5/home/kit/scc/nq7776/code/OBR/lidDrivenCavity3D/Variation_mesh/15/Variation_matrix_solver/IR_NoPrecond_OMP/base
nProcs : 1
sigFpe : Enabling floating point exception trapping (FOAM_SIGFPE).
fileModificationChecking : Monitoring run-time modified files using timeStampMaster (fileModificationSkew 10)
allowSystemOperations : Allowing user-supplied system call operations

// * * * * * * * * * * * * * * * * * * * * * * * * * * * * * * * * * * * * * //
Create time

Create mesh for time = 0

Reading transportProperties

Reading field p

Reading field U

Reading/calculating face flux field phi


Starting time loop

Time = 0.001

Courant Number mean: 0 max: 0
DILUPBiCGStab:  Solving for Ux, Initial residual = 1, Final residual = 1.1028e-13, No Iterations 5
DILUPBiCGStab:  Solving for Uy:  solution singularity
DILUPBiCGStab:  Solving for Uz:  solution singularity
linear solve U 1264
[OGL LOG] init_host_sparsity_pattern : 1 ms
[OGL LOG] matrix not stored update host matrix
[OGL LOG] update_host_mtx : 0 ms
[OGL LOG] matrix is not yet sorted, compute sorting idxs
[OGL LOG] compute_sort : 21 ms
[OGL LOG] matrix is not yet sorted, sorting host matrix
[OGL LOG] sort_host_mtx_sparsity_pattern : 0 ms
[OGL LOG] sort_host_mtx : 0 ms
[OGL LOG] init_preconditioner : 0 ms
[OGL LOG] solve : 10 ms
noneompGKOIR:  Solving for p, Initial residual = 1, Final residual = 5.13105e-06, No Iterations 3
linear solve p 37620
time step continuity errors : sum local = 2.17277e-09, global = -8.0894e-21, cumulative = -8.0894e-21
[OGL LOG] init_host_sparsity_pattern : 0 ms
[OGL LOG] matrix not stored update host matrix
[OGL LOG] update_host_mtx : 0 ms
[OGL LOG] matrix is not yet sorted, sorting host matrix
[OGL LOG] sort_host_mtx_sparsity_pattern : 0 ms
[OGL LOG] sort_host_mtx : 0 ms
[OGL LOG] init_preconditioner : 0 ms
[OGL LOG] solve : 7 ms
noneompGKOIR:  Solving for p, Initial residual = 0.31681, Final residual = 9.42366e-05, No Iterations 2
linear solve p 10796
time step continuity errors : sum local = 6.95178e-08, global = -8.22311e-21, cumulative = -1.63125e-20
ExecutionTime = 0.26 s  ClockTime = 0 s

Time = 0.002

Courant Number mean: 0.00559442 max: 0.0357001
DILUPBiCGStab:  Solving for Ux, Initial residual = 0.242389, Final residual = 1.13977e-14, No Iterations 5
DILUPBiCGStab:  Solving for Uy, Initial residual = 0.296216, Final residual = 1.12428e-14, No Iterations 5
DILUPBiCGStab:  Solving for Uz, Initial residual = 0.685396, Final residual = 3.44223e-14, No Iterations 5
linear solve U 2064
[OGL LOG] init_host_sparsity_pattern : 0 ms
[OGL LOG] matrix not stored update host matrix
[OGL LOG] update_host_mtx : 0 ms
[OGL LOG] matrix is not yet sorted, sorting host matrix
[OGL LOG] sort_host_mtx_sparsity_pattern : 0 ms
[OGL LOG] sort_host_mtx : 0 ms
[OGL LOG] init_preconditioner : 0 ms
[OGL LOG] solve : 7 ms
noneompGKOIR:  Solving for p, Initial residual = 0.156956, Final residual = 2.8182e-05, No Iterations 2
linear solve p 10849
time step continuity errors : sum local = 2.02677e-08, global = 9.17447e-21, cumulative = -7.13804e-21
[OGL LOG] init_host_sparsity_pattern : 0 ms
[OGL LOG] matrix not stored update host matrix
[OGL LOG] update_host_mtx : 0 ms
[OGL LOG] matrix is not yet sorted, sorting host matrix
[OGL LOG] sort_host_mtx_sparsity_pattern : 0 ms
[OGL LOG] sort_host_mtx : 0 ms
[OGL LOG] init_preconditioner : 0 ms
[OGL LOG] solve : 7 ms
noneompGKOIR:  Solving for p, Initial residual = 0.0605722, Final residual = 9.43334e-06, No Iterations 2
linear solve p 10773
time step continuity errors : sum local = 7.37881e-09, global = -7.2255e-21, cumulative = -1.43635e-20
ExecutionTime = 0.45 s  ClockTime = 0 s

Time = 0.003

Courant Number mean: 0.00940319 max: 0.0587296
DILUPBiCGStab:  Solving for Ux, Initial residual = 0.117976, Final residual = 5.34392e-15, No Iterations 5
DILUPBiCGStab:  Solving for Uy, Initial residual = 0.148709, Final residual = 5.34838e-15, No Iterations 5
DILUPBiCGStab:  Solving for Uz, Initial residual = 0.319335, Final residual = 1.47691e-14, No Iterations 5
linear solve U 2016
[OGL LOG] init_host_sparsity_pattern : 0 ms
[OGL LOG] matrix not stored update host matrix
[OGL LOG] update_host_mtx : 0 ms
[OGL LOG] matrix is not yet sorted, sorting host matrix
[OGL LOG] sort_host_mtx_sparsity_pattern : 0 ms
[OGL LOG] sort_host_mtx : 0 ms
[OGL LOG] init_preconditioner : 0 ms
[OGL LOG] solve : 7 ms
noneompGKOIR:  Solving for p, Initial residual = 0.0758588, Final residual = 1.49881e-05, No Iterations 2
linear solve p 10840
time step continuity errors : sum local = 1.20652e-08, global = 4.13127e-20, cumulative = 2.69492e-20
[OGL LOG] init_host_sparsity_pattern : 0 ms
[OGL LOG] matrix not stored update host matrix
[OGL LOG] update_host_mtx : 0 ms
[OGL LOG] matrix is not yet sorted, sorting host matrix
[OGL LOG] sort_host_mtx_sparsity_pattern : 0 ms
[OGL LOG] sort_host_mtx : 0 ms
[OGL LOG] init_preconditioner : 0 ms
[OGL LOG] solve : 7 ms
noneompGKOIR:  Solving for p, Initial residual = 0.0340446, Final residual = 5.63859e-06, No Iterations 2
linear solve p 10672
time step continuity errors : sum local = 4.72915e-09, global = 2.19971e-21, cumulative = 2.91489e-20
ExecutionTime = 0.64 s  ClockTime = 0 s

Time = 0.004

Courant Number mean: 0.0121906 max: 0.0737269
DILUPBiCGStab:  Solving for Ux, Initial residual = 0.0723351, Final residual = 2.98997e-15, No Iterations 5
DILUPBiCGStab:  Solving for Uy, Initial residual = 0.0916574, Final residual = 3.02128e-15, No Iterations 5
DILUPBiCGStab:  Solving for Uz, Initial residual = 0.182423, Final residual = 7.95987e-15, No Iterations 5
linear solve U 2068
[OGL LOG] init_host_sparsity_pattern : 0 ms
[OGL LOG] matrix not stored update host matrix
[OGL LOG] update_host_mtx : 0 ms
[OGL LOG] matrix is not yet sorted, sorting host matrix
[OGL LOG] sort_host_mtx_sparsity_pattern : 0 ms
[OGL LOG] sort_host_mtx : 0 ms
[OGL LOG] init_preconditioner : 0 ms
[OGL LOG] solve : 8 ms
noneompGKOIR:  Solving for p, Initial residual = 0.0491798, Final residual = 9.25327e-06, No Iterations 2
linear solve p 11081
time step continuity errors : sum local = 7.92519e-09, global = -1.21772e-20, cumulative = 1.69717e-20
[OGL LOG] init_host_sparsity_pattern : 0 ms
[OGL LOG] matrix not stored update host matrix
[OGL LOG] update_host_mtx : 0 ms
[OGL LOG] matrix is not yet sorted, sorting host matrix
[OGL LOG] sort_host_mtx_sparsity_pattern : 0 ms
[OGL LOG] sort_host_mtx : 0 ms
[OGL LOG] init_preconditioner : 0 ms
[OGL LOG] solve : 8 ms
noneompGKOIR:  Solving for p, Initial residual = 0.0220767, Final residual = 3.34927e-06, No Iterations 2
linear solve p 11119
time step continuity errors : sum local = 2.93318e-09, global = -1.73402e-20, cumulative = -3.68488e-22
ExecutionTime = 0.83 s  ClockTime = 0 s

Time = 0.005

Courant Number mean: 0.014306 max: 0.0838051
DILUPBiCGStab:  Solving for Ux, Initial residual = 0.0485644, Final residual = 1.79908e-15, No Iterations 5
DILUPBiCGStab:  Solving for Uy, Initial residual = 0.0627369, Final residual = 1.74758e-15, No Iterations 5
DILUPBiCGStab:  Solving for Uz, Initial residual = 0.129737, Final residual = 5.48077e-15, No Iterations 5
linear solve U 2062
[OGL LOG] init_host_sparsity_pattern : 0 ms
[OGL LOG] matrix not stored update host matrix
[OGL LOG] update_host_mtx : 0 ms
[OGL LOG] matrix is not yet sorted, sorting host matrix
[OGL LOG] sort_host_mtx_sparsity_pattern : 0 ms
[OGL LOG] sort_host_mtx : 0 ms
[OGL LOG] init_preconditioner : 0 ms
[OGL LOG] solve : 7 ms
noneompGKOIR:  Solving for p, Initial residual = 0.0359197, Final residual = 6.47904e-06, No Iterations 2
linear solve p 10939
time step continuity errors : sum local = 5.7711e-09, global = -3.36248e-21, cumulative = -3.73096e-21
[OGL LOG] init_host_sparsity_pattern : 0 ms
[OGL LOG] matrix not stored update host matrix
[OGL LOG] update_host_mtx : 0 ms
[OGL LOG] matrix is not yet sorted, sorting host matrix
[OGL LOG] sort_host_mtx_sparsity_pattern : 0 ms
[OGL LOG] sort_host_mtx : 0 ms
[OGL LOG] init_preconditioner : 0 ms
[OGL LOG] solve : 7 ms
noneompGKOIR:  Solving for p, Initial residual = 0.0152276, Final residual = 2.3252e-06, No Iterations 2
linear solve p 10888
time step continuity errors : sum local = 2.10248e-09, global = -5.1813e-21, cumulative = -8.91227e-21
ExecutionTime = 1.03 s  ClockTime = 0 s

Time = 0.006

Courant Number mean: 0.0159484 max: 0.0908032
DILUPBiCGStab:  Solving for Ux, Initial residual = 0.0353498, Final residual = 1.17442e-15, No Iterations 5
DILUPBiCGStab:  Solving for Uy, Initial residual = 0.0460969, Final residual = 1.06313e-15, No Iterations 5
DILUPBiCGStab:  Solving for Uz, Initial residual = 0.099425, Final residual = 3.99311e-15, No Iterations 5
linear solve U 2067
[OGL LOG] init_host_sparsity_pattern : 0 ms
[OGL LOG] matrix not stored update host matrix
[OGL LOG] update_host_mtx : 0 ms
[OGL LOG] matrix is not yet sorted, sorting host matrix
[OGL LOG] sort_host_mtx_sparsity_pattern : 0 ms
[OGL LOG] sort_host_mtx : 0 ms
[OGL LOG] init_preconditioner : 0 ms
[OGL LOG] solve : 8 ms
noneompGKOIR:  Solving for p, Initial residual = 0.0288126, Final residual = 4.96081e-06, No Iterations 2
linear solve p 11467
time step continuity errors : sum local = 4.56101e-09, global = -1.53325e-20, cumulative = -2.42447e-20
[OGL LOG] init_host_sparsity_pattern : 0 ms
[OGL LOG] matrix not stored update host matrix
[OGL LOG] update_host_mtx : 0 ms
[OGL LOG] matrix is not yet sorted, sorting host matrix
[OGL LOG] sort_host_mtx_sparsity_pattern : 0 ms
[OGL LOG] sort_host_mtx : 0 ms
[OGL LOG] init_preconditioner : 0 ms
[OGL LOG] solve : 8 ms
noneompGKOIR:  Solving for p, Initial residual = 0.0109993, Final residual = 1.69454e-06, No Iterations 2
linear solve p 11016
time step continuity errors : sum local = 1.57906e-09, global = -1.78066e-21, cumulative = -2.60254e-20
ExecutionTime = 1.23 s  ClockTime = 0 s

Time = 0.007

Courant Number mean: 0.0172719 max: 0.0958251
DILUPBiCGStab:  Solving for Ux, Initial residual = 0.0271635, Final residual = 8.7084e-16, No Iterations 5
DILUPBiCGStab:  Solving for Uy, Initial residual = 0.0356259, Final residual = 7.40809e-16, No Iterations 5
DILUPBiCGStab:  Solving for Uz, Initial residual = 0.0794056, Final residual = 3.117e-15, No Iterations 5
linear solve U 2198
[OGL LOG] init_host_sparsity_pattern : 0 ms
[OGL LOG] matrix not stored update host matrix
[OGL LOG] update_host_mtx : 0 ms
[OGL LOG] matrix is not yet sorted, sorting host matrix
[OGL LOG] sort_host_mtx_sparsity_pattern : 0 ms
[OGL LOG] sort_host_mtx : 0 ms
[OGL LOG] init_preconditioner : 0 ms
[OGL LOG] solve : 8 ms
noneompGKOIR:  Solving for p, Initial residual = 0.0217358, Final residual = 3.47464e-06, No Iterations 2
linear solve p 11061
time step continuity errors : sum local = 3.27393e-09, global = 2.46111e-20, cumulative = -1.41429e-21
[OGL LOG] init_host_sparsity_pattern : 0 ms
[OGL LOG] matrix not stored update host matrix
[OGL LOG] update_host_mtx : 0 ms
[OGL LOG] matrix is not yet sorted, sorting host matrix
[OGL LOG] sort_host_mtx_sparsity_pattern : 0 ms
[OGL LOG] sort_host_mtx : 0 ms
[OGL LOG] init_preconditioner : 0 ms
[OGL LOG] solve : 7 ms
noneompGKOIR:  Solving for p, Initial residual = 0.00859426, Final residual = 1.11001e-06, No Iterations 2
linear solve p 10942
time step continuity errors : sum local = 1.05596e-09, global = -1.34455e-20, cumulative = -1.48597e-20
ExecutionTime = 1.42 s  ClockTime = 0 s

Time = 0.008

Courant Number mean: 0.0183555 max: 0.0995502
DILUPBiCGStab:  Solving for Ux, Initial residual = 0.0216576, Final residual = 6.38776e-16, No Iterations 5
DILUPBiCGStab:  Solving for Uy, Initial residual = 0.0286128, Final residual = 5.78977e-16, No Iterations 5
DILUPBiCGStab:  Solving for Uz, Initial residual = 0.0649491, Final residual = 2.45056e-15, No Iterations 5
linear solve U 2081
[OGL LOG] init_host_sparsity_pattern : 0 ms
[OGL LOG] matrix not stored update host matrix
[OGL LOG] update_host_mtx : 0 ms
[OGL LOG] matrix is not yet sorted, sorting host matrix
[OGL LOG] sort_host_mtx_sparsity_pattern : 0 ms
[OGL LOG] sort_host_mtx : 0 ms
[OGL LOG] init_preconditioner : 0 ms
[OGL LOG] solve : 8 ms
noneompGKOIR:  Solving for p, Initial residual = 0.0162662, Final residual = 2.70488e-06, No Iterations 2
linear solve p 10994
time step continuity errors : sum local = 2.59545e-09, global = 3.53439e-20, cumulative = 2.04842e-20
[OGL LOG] init_host_sparsity_pattern : 0 ms
[OGL LOG] matrix not stored update host matrix
[OGL LOG] update_host_mtx : 0 ms
[OGL LOG] matrix is not yet sorted, sorting host matrix
[OGL LOG] sort_host_mtx_sparsity_pattern : 0 ms
[OGL LOG] sort_host_mtx : 0 ms
[OGL LOG] init_preconditioner : 0 ms
[OGL LOG] solve : 2 ms
noneompGKOIR:  Solving for p, Initial residual = 0.00660545, Final residual = 9.66991e-05, No Iterations 1
linear solve p 5566
time step continuity errors : sum local = 1.13474e-07, global = 8.35556e-22, cumulative = 2.13197e-20
ExecutionTime = 1.57 s  ClockTime = 0 s

Time = 0.009

Courant Number mean: 0.0192552 max: 0.102395
DILUPBiCGStab:  Solving for Ux, Initial residual = 0.0176784, Final residual = 4.37129e-16, No Iterations 5
DILUPBiCGStab:  Solving for Uy, Initial residual = 0.0236275, Final residual = 4.82773e-16, No Iterations 5
DILUPBiCGStab:  Solving for Uz, Initial residual = 0.0543692, Final residual = 1.95083e-15, No Iterations 5
linear solve U 2084
[OGL LOG] init_host_sparsity_pattern : 0 ms
[OGL LOG] matrix not stored update host matrix
[OGL LOG] update_host_mtx : 0 ms
[OGL LOG] matrix is not yet sorted, sorting host matrix
[OGL LOG] sort_host_mtx_sparsity_pattern : 0 ms
[OGL LOG] sort_host_mtx : 0 ms
[OGL LOG] init_preconditioner : 0 ms
[OGL LOG] solve : 7 ms
noneompGKOIR:  Solving for p, Initial residual = 0.0133018, Final residual = 2.46894e-06, No Iterations 2
linear solve p 10927
time step continuity errors : sum local = 2.4066e-09, global = -2.68375e-20, cumulative = -5.51781e-21
[OGL LOG] init_host_sparsity_pattern : 0 ms
[OGL LOG] matrix not stored update host matrix
[OGL LOG] update_host_mtx : 0 ms
[OGL LOG] matrix is not yet sorted, sorting host matrix
[OGL LOG] sort_host_mtx_sparsity_pattern : 0 ms
[OGL LOG] sort_host_mtx : 0 ms
[OGL LOG] init_preconditioner : 0 ms
[OGL LOG] solve : 2 ms
noneompGKOIR:  Solving for p, Initial residual = 0.00539432, Final residual = 8.3196e-05, No Iterations 1
linear solve p 5433
time step continuity errors : sum local = 9.09954e-08, global = -1.78626e-20, cumulative = -2.33804e-20
ExecutionTime = 1.71 s  ClockTime = 0 s

Time = 0.01

Courant Number mean: 0.0200142 max: 0.104627
DILUPBiCGStab:  Solving for Ux, Initial residual = 0.0147299, Final residual = 2.84314e-16, No Iterations 5
DILUPBiCGStab:  Solving for Uy, Initial residual = 0.0199286, Final residual = 4.01575e-16, No Iterations 5
DILUPBiCGStab:  Solving for Uz, Initial residual = 0.0462898, Final residual = 1.5645e-15, No Iterations 5
linear solve U 2064
[OGL LOG] init_host_sparsity_pattern : 0 ms
[OGL LOG] matrix not stored update host matrix
[OGL LOG] update_host_mtx : 0 ms
[OGL LOG] matrix is not yet sorted, sorting host matrix
[OGL LOG] sort_host_mtx_sparsity_pattern : 0 ms
[OGL LOG] sort_host_mtx : 0 ms
[OGL LOG] init_preconditioner : 0 ms
[OGL LOG] solve : 8 ms
noneompGKOIR:  Solving for p, Initial residual = 0.0111356, Final residual = 1.80256e-06, No Iterations 2
linear solve p 11011
time step continuity errors : sum local = 1.78154e-09, global = 2.94123e-20, cumulative = 6.03193e-21
[OGL LOG] init_host_sparsity_pattern : 0 ms
[OGL LOG] matrix not stored update host matrix
[OGL LOG] update_host_mtx : 0 ms
[OGL LOG] matrix is not yet sorted, sorting host matrix
[OGL LOG] sort_host_mtx_sparsity_pattern : 0 ms
[OGL LOG] sort_host_mtx : 0 ms
[OGL LOG] init_preconditioner : 0 ms
[OGL LOG] solve : 2 ms
noneompGKOIR:  Solving for p, Initial residual = 0.00446765, Final residual = 6.69579e-05, No Iterations 1
linear solve p 5568
time step continuity errors : sum local = 7.83989e-08, global = 5.91165e-21, cumulative = 1.19436e-20
ExecutionTime = 1.87 s  ClockTime = 0 s

End

