/*---------------------------------------------------------------------------*\
  =========                 |
  \\      /  F ield         | OpenFOAM: The Open Source CFD Toolbox
   \\    /   O peration     | Website:  https://openfoam.org
    \\  /    A nd           | Version:  8
     \\/     M anipulation  |
\*---------------------------------------------------------------------------*/
Build  : 8-40a5a48f630f
Exec   : icoFoam
Date   : Jul 28 2021
Time   : 12:30:04
Host   : "uc2n449.localdomain"
PID    : 1420747
I/O    : uncollated
Case   : /pfs/data5/home/kit/scc/nq7776/code/OBR/lidDrivenCavity3D/Variation_mesh/40/Variation_matrix_solver/BiCGStab_BJ_OMP/base
nProcs : 1
sigFpe : Enabling floating point exception trapping (FOAM_SIGFPE).
fileModificationChecking : Monitoring run-time modified files using timeStampMaster (fileModificationSkew 10)
allowSystemOperations : Allowing user-supplied system call operations

// * * * * * * * * * * * * * * * * * * * * * * * * * * * * * * * * * * * * * //
Create time

Create mesh for time = 0

Reading transportProperties

Reading field p

Reading field U

Reading/calculating face flux field phi


Starting time loop

Time = 0.001

Courant Number mean: 0 max: 0
nonePBiCGStab:  Solving for Ux, Initial residual = 1, Final residual = 0.0197517, No Iterations 5
nonePBiCGStab:  Solving for Uy, Initial residual = 0, Final residual = 0, No Iterations 0
nonePBiCGStab:  Solving for Uz, Initial residual = 0, Final residual = 0, No Iterations 0
linear solve U 14
[OGL LOG] init_host_sparsity_pattern : 18 ms
[OGL LOG] matrix not stored update host matrix
[OGL LOG] update_host_mtx : 9 ms
[OGL LOG] matrix is not yet sorted, compute sorting idxs
[OGL LOG] compute_sort : 481 ms
[OGL LOG] matrix is not yet sorted, sorting host matrix
[OGL LOG] sort_host_mtx_sparsity_pattern : 12 ms
[OGL LOG] sort_host_mtx : 7 ms
[OGL LOG] init_preconditioner : 15 ms
[OGL LOG] solve : 452 ms
BJompGKOBiCGStab:  Solving for p, Initial residual = 1, Final residual = 8.62669e-05, No Iterations 202
linear solve p 1035
time step continuity errors : sum local = 7.58634e-07, global = -2.38071e-20, cumulative = -2.38071e-20
[OGL LOG] init_host_sparsity_pattern : 18 ms
[OGL LOG] matrix not stored update host matrix
[OGL LOG] update_host_mtx : 9 ms
[OGL LOG] matrix is not yet sorted, sorting host matrix
[OGL LOG] sort_host_mtx_sparsity_pattern : 12 ms
[OGL LOG] sort_host_mtx : 6 ms
[OGL LOG] init_preconditioner : 0 ms
[OGL LOG] solve : 354 ms
BJompGKOBiCGStab:  Solving for p, Initial residual = 0.598926, Final residual = 7.95043e-05, No Iterations 211
linear solve p 410
time step continuity errors : sum local = 5.95318e-07, global = 3.56215e-21, cumulative = -2.02449e-20
ExecutionTime = 32.27 s  ClockTime = 2 s

Time = 0.002

Courant Number mean: 0.0210254 max: 0.237019
nonePBiCGStab:  Solving for Ux, Initial residual = 0.177631, Final residual = 0.00671082, No Iterations 5
nonePBiCGStab:  Solving for Uy, Initial residual = 0.294187, Final residual = 0.00788577, No Iterations 5
nonePBiCGStab:  Solving for Uz, Initial residual = 0.939724, Final residual = 0.0369012, No Iterations 5
linear solve U 27
[OGL LOG] init_host_sparsity_pattern : 18 ms
[OGL LOG] matrix not stored update host matrix
[OGL LOG] update_host_mtx : 9 ms
[OGL LOG] matrix is not yet sorted, sorting host matrix
[OGL LOG] sort_host_mtx_sparsity_pattern : 12 ms
[OGL LOG] sort_host_mtx : 6 ms
[OGL LOG] init_preconditioner : 0 ms
[OGL LOG] solve : 298 ms
BJompGKOBiCGStab:  Solving for p, Initial residual = 0.457977, Final residual = 9.87318e-05, No Iterations 169
linear solve p 354
time step continuity errors : sum local = 1.89948e-07, global = -3.78135e-21, cumulative = -2.40263e-20
[OGL LOG] init_host_sparsity_pattern : 18 ms
[OGL LOG] matrix not stored update host matrix
[OGL LOG] update_host_mtx : 9 ms
[OGL LOG] matrix is not yet sorted, sorting host matrix
[OGL LOG] sort_host_mtx_sparsity_pattern : 13 ms
[OGL LOG] sort_host_mtx : 6 ms
[OGL LOG] init_preconditioner : 0 ms
[OGL LOG] solve : 155 ms
BJompGKOBiCGStab:  Solving for p, Initial residual = 0.361386, Final residual = 9.92453e-05, No Iterations 94
linear solve p 213
time step continuity errors : sum local = 1.42727e-07, global = 1.80874e-20, cumulative = -5.93885e-21
ExecutionTime = 51.11 s  ClockTime = 2 s

Time = 0.003

Courant Number mean: 0.0321011 max: 0.305898
nonePBiCGStab:  Solving for Ux, Initial residual = 0.0656441, Final residual = 0.00124462, No Iterations 5
nonePBiCGStab:  Solving for Uy, Initial residual = 0.107903, Final residual = 0.00171195, No Iterations 5
nonePBiCGStab:  Solving for Uz, Initial residual = 0.181101, Final residual = 0.00677157, No Iterations 5
linear solve U 27
[OGL LOG] init_host_sparsity_pattern : 18 ms
[OGL LOG] matrix not stored update host matrix
[OGL LOG] update_host_mtx : 9 ms
[OGL LOG] matrix is not yet sorted, sorting host matrix
[OGL LOG] sort_host_mtx_sparsity_pattern : 12 ms
[OGL LOG] sort_host_mtx : 6 ms
[OGL LOG] init_preconditioner : 0 ms
[OGL LOG] solve : 284 ms
BJompGKOBiCGStab:  Solving for p, Initial residual = 0.164156, Final residual = 3.81606e-05, No Iterations 172
linear solve p 340
time step continuity errors : sum local = 9.35344e-06, global = -1.66167e-20, cumulative = -2.25555e-20
[OGL LOG] init_host_sparsity_pattern : 18 ms
[OGL LOG] matrix not stored update host matrix
[OGL LOG] update_host_mtx : 9 ms
[OGL LOG] matrix is not yet sorted, sorting host matrix
[OGL LOG] sort_host_mtx_sparsity_pattern : 12 ms
[OGL LOG] sort_host_mtx : 6 ms
[OGL LOG] init_preconditioner : 0 ms
[OGL LOG] solve : 296 ms
BJompGKOBiCGStab:  Solving for p, Initial residual = 0.141129, Final residual = 8.75143e-05, No Iterations 179
linear solve p 352
time step continuity errors : sum local = 8.84076e-07, global = 1.85658e-20, cumulative = -3.98974e-21
ExecutionTime = 75.06 s  ClockTime = 3 s

Time = 0.004

Courant Number mean: 0.038677 max: 0.327551
nonePBiCGStab:  Solving for Ux, Initial residual = 0.038829, Final residual = 0.000826837, No Iterations 5
nonePBiCGStab:  Solving for Uy, Initial residual = 0.0673365, Final residual = 0.000946344, No Iterations 5
nonePBiCGStab:  Solving for Uz, Initial residual = 0.123591, Final residual = 0.0052869, No Iterations 5
linear solve U 27
[OGL LOG] init_host_sparsity_pattern : 18 ms
[OGL LOG] matrix not stored update host matrix
[OGL LOG] update_host_mtx : 9 ms
[OGL LOG] matrix is not yet sorted, sorting host matrix
[OGL LOG] sort_host_mtx_sparsity_pattern : 12 ms
[OGL LOG] sort_host_mtx : 6 ms
[OGL LOG] init_preconditioner : 0 ms
[OGL LOG] solve : 267 ms
BJompGKOBiCGStab:  Solving for p, Initial residual = 0.0889208, Final residual = 9.40225e-05, No Iterations 161
linear solve p 323
time step continuity errors : sum local = 1.41589e-07, global = 4.81261e-21, cumulative = 8.2287e-22
[OGL LOG] init_host_sparsity_pattern : 19 ms
[OGL LOG] matrix not stored update host matrix
[OGL LOG] update_host_mtx : 9 ms
[OGL LOG] matrix is not yet sorted, sorting host matrix
[OGL LOG] sort_host_mtx_sparsity_pattern : 12 ms
[OGL LOG] sort_host_mtx : 6 ms
[OGL LOG] init_preconditioner : 0 ms
[OGL LOG] solve : 111 ms
BJompGKOBiCGStab:  Solving for p, Initial residual = 0.0671708, Final residual = 9.34064e-05, No Iterations 67
linear solve p 168
time step continuity errors : sum local = 7.32951e-08, global = -7.37341e-21, cumulative = -6.55054e-21
ExecutionTime = 90.94 s  ClockTime = 3 s

Time = 0.005

Courant Number mean: 0.0434757 max: 0.337861
nonePBiCGStab:  Solving for Ux, Initial residual = 0.0269639, Final residual = 0.000383431, No Iterations 5
nonePBiCGStab:  Solving for Uy, Initial residual = 0.0467499, Final residual = 0.000459802, No Iterations 5
nonePBiCGStab:  Solving for Uz, Initial residual = 0.0866519, Final residual = 0.00219395, No Iterations 5
linear solve U 27
[OGL LOG] init_host_sparsity_pattern : 18 ms
[OGL LOG] matrix not stored update host matrix
[OGL LOG] update_host_mtx : 9 ms
[OGL LOG] matrix is not yet sorted, sorting host matrix
[OGL LOG] sort_host_mtx_sparsity_pattern : 12 ms
[OGL LOG] sort_host_mtx : 6 ms
[OGL LOG] init_preconditioner : 0 ms
[OGL LOG] solve : 112 ms
BJompGKOBiCGStab:  Solving for p, Initial residual = 0.0449491, Final residual = 8.95634e-05, No Iterations 68
linear solve p 168
time step continuity errors : sum local = 1.04383e-07, global = 1.07921e-20, cumulative = 4.24152e-21
[OGL LOG] init_host_sparsity_pattern : 18 ms
[OGL LOG] matrix not stored update host matrix
[OGL LOG] update_host_mtx : 9 ms
[OGL LOG] matrix is not yet sorted, sorting host matrix
[OGL LOG] sort_host_mtx_sparsity_pattern : 12 ms
[OGL LOG] sort_host_mtx : 6 ms
[OGL LOG] init_preconditioner : 0 ms
[OGL LOG] solve : 114 ms
BJompGKOBiCGStab:  Solving for p, Initial residual = 0.0357678, Final residual = 9.98545e-05, No Iterations 67
linear solve p 170
time step continuity errors : sum local = 9.94596e-08, global = -8.54387e-23, cumulative = 4.15608e-21
ExecutionTime = 100.77 s  ClockTime = 4 s

Time = 0.006

Courant Number mean: 0.0471949 max: 0.344024
nonePBiCGStab:  Solving for Ux, Initial residual = 0.0204432, Final residual = 0.00021534, No Iterations 5
nonePBiCGStab:  Solving for Uy, Initial residual = 0.0356188, Final residual = 0.000236754, No Iterations 5
nonePBiCGStab:  Solving for Uz, Initial residual = 0.0654103, Final residual = 0.000925432, No Iterations 5
linear solve U 28
[OGL LOG] init_host_sparsity_pattern : 19 ms
[OGL LOG] matrix not stored update host matrix
[OGL LOG] update_host_mtx : 9 ms
[OGL LOG] matrix is not yet sorted, sorting host matrix
[OGL LOG] sort_host_mtx_sparsity_pattern : 13 ms
[OGL LOG] sort_host_mtx : 6 ms
[OGL LOG] init_preconditioner : 0 ms
[OGL LOG] solve : 110 ms
BJompGKOBiCGStab:  Solving for p, Initial residual = 0.0299034, Final residual = 8.23886e-05, No Iterations 66
linear solve p 170
time step continuity errors : sum local = 1.08649e-07, global = -2.09656e-20, cumulative = -1.68095e-20
[OGL LOG] init_host_sparsity_pattern : 18 ms
[OGL LOG] matrix not stored update host matrix
[OGL LOG] update_host_mtx : 9 ms
[OGL LOG] matrix is not yet sorted, sorting host matrix
[OGL LOG] sort_host_mtx_sparsity_pattern : 12 ms
[OGL LOG] sort_host_mtx : 6 ms
[OGL LOG] init_preconditioner : 0 ms
[OGL LOG] solve : 100 ms
BJompGKOBiCGStab:  Solving for p, Initial residual = 0.0243627, Final residual = 9.30709e-05, No Iterations 60
linear solve p 155
time step continuity errors : sum local = 9.29659e-08, global = 1.47136e-21, cumulative = -1.53381e-20
ExecutionTime = 110.01 s  ClockTime = 4 s

Time = 0.007

Courant Number mean: 0.0502277 max: 0.348252
nonePBiCGStab:  Solving for Ux, Initial residual = 0.0161719, Final residual = 0.000132433, No Iterations 5
nonePBiCGStab:  Solving for Uy, Initial residual = 0.0286312, Final residual = 0.000170924, No Iterations 5
nonePBiCGStab:  Solving for Uz, Initial residual = 0.0525838, Final residual = 0.000832163, No Iterations 5
linear solve U 27
[OGL LOG] init_host_sparsity_pattern : 17 ms
[OGL LOG] matrix not stored update host matrix
[OGL LOG] update_host_mtx : 9 ms
[OGL LOG] matrix is not yet sorted, sorting host matrix
[OGL LOG] sort_host_mtx_sparsity_pattern : 12 ms
[OGL LOG] sort_host_mtx : 6 ms
[OGL LOG] init_preconditioner : 0 ms
[OGL LOG] solve : 113 ms
BJompGKOBiCGStab:  Solving for p, Initial residual = 0.023667, Final residual = 6.87769e-05, No Iterations 68
linear solve p 168
time step continuity errors : sum local = 1.04925e-07, global = 2.23804e-22, cumulative = -1.51143e-20
[OGL LOG] init_host_sparsity_pattern : 18 ms
[OGL LOG] matrix not stored update host matrix
[OGL LOG] update_host_mtx : 9 ms
[OGL LOG] matrix is not yet sorted, sorting host matrix
[OGL LOG] sort_host_mtx_sparsity_pattern : 12 ms
[OGL LOG] sort_host_mtx : 6 ms
[OGL LOG] init_preconditioner : 0 ms
[OGL LOG] solve : 97 ms
BJompGKOBiCGStab:  Solving for p, Initial residual = 0.0197712, Final residual = 8.62076e-05, No Iterations 58
linear solve p 153
time step continuity errors : sum local = 9.87382e-08, global = -8.30008e-21, cumulative = -2.34144e-20
ExecutionTime = 119.19 s  ClockTime = 5 s

Time = 0.008

Courant Number mean: 0.0527974 max: 0.351366
nonePBiCGStab:  Solving for Ux, Initial residual = 0.0132959, Final residual = 9.80192e-05, No Iterations 5
nonePBiCGStab:  Solving for Uy, Initial residual = 0.0235942, Final residual = 9.54386e-05, No Iterations 5
nonePBiCGStab:  Solving for Uz, Initial residual = 0.0444694, Final residual = 0.00039314, No Iterations 5
linear solve U 27
[OGL LOG] init_host_sparsity_pattern : 18 ms
[OGL LOG] matrix not stored update host matrix
[OGL LOG] update_host_mtx : 9 ms
[OGL LOG] matrix is not yet sorted, sorting host matrix
[OGL LOG] sort_host_mtx_sparsity_pattern : 12 ms
[OGL LOG] sort_host_mtx : 6 ms
[OGL LOG] init_preconditioner : 0 ms
[OGL LOG] solve : 107 ms
BJompGKOBiCGStab:  Solving for p, Initial residual = 0.0184032, Final residual = 9.90254e-05, No Iterations 65
linear solve p 163
time step continuity errors : sum local = 8.14704e-08, global = -1.10817e-20, cumulative = -3.44961e-20
[OGL LOG] init_host_sparsity_pattern : 18 ms
[OGL LOG] matrix not stored update host matrix
[OGL LOG] update_host_mtx : 9 ms
[OGL LOG] matrix is not yet sorted, sorting host matrix
[OGL LOG] sort_host_mtx_sparsity_pattern : 12 ms
[OGL LOG] sort_host_mtx : 6 ms
[OGL LOG] init_preconditioner : 0 ms
[OGL LOG] solve : 101 ms
BJompGKOBiCGStab:  Solving for p, Initial residual = 0.0155329, Final residual = 8.64018e-05, No Iterations 60
linear solve p 156
time step continuity errors : sum local = 9.22614e-08, global = -1.88854e-20, cumulative = -5.33815e-20
ExecutionTime = 128.28 s  ClockTime = 5 s

Time = 0.009

Courant Number mean: 0.054985 max: 0.353777
nonePBiCGStab:  Solving for Ux, Initial residual = 0.0111645, Final residual = 6.94925e-05, No Iterations 5
nonePBiCGStab:  Solving for Uy, Initial residual = 0.0199509, Final residual = 8.41523e-05, No Iterations 5
nonePBiCGStab:  Solving for Uz, Initial residual = 0.0380162, Final residual = 0.000414401, No Iterations 5
linear solve U 28
[OGL LOG] init_host_sparsity_pattern : 18 ms
[OGL LOG] matrix not stored update host matrix
[OGL LOG] update_host_mtx : 9 ms
[OGL LOG] matrix is not yet sorted, sorting host matrix
[OGL LOG] sort_host_mtx_sparsity_pattern : 12 ms
[OGL LOG] sort_host_mtx : 6 ms
[OGL LOG] init_preconditioner : 0 ms
[OGL LOG] solve : 116 ms
BJompGKOBiCGStab:  Solving for p, Initial residual = 0.0155741, Final residual = 6.19173e-05, No Iterations 70
linear solve p 172
time step continuity errors : sum local = 9.01672e-08, global = -3.03155e-20, cumulative = -8.3697e-20
[OGL LOG] init_host_sparsity_pattern : 18 ms
[OGL LOG] matrix not stored update host matrix
[OGL LOG] update_host_mtx : 9 ms
[OGL LOG] matrix is not yet sorted, sorting host matrix
[OGL LOG] sort_host_mtx_sparsity_pattern : 12 ms
[OGL LOG] sort_host_mtx : 6 ms
[OGL LOG] init_preconditioner : 0 ms
[OGL LOG] solve : 96 ms
BJompGKOBiCGStab:  Solving for p, Initial residual = 0.0132073, Final residual = 9.26357e-05, No Iterations 58
linear solve p 152
time step continuity errors : sum local = 8.26569e-08, global = 3.75459e-20, cumulative = -4.61511e-20
ExecutionTime = 137.55 s  ClockTime = 5 s

Time = 0.01

Courant Number mean: 0.0568677 max: 0.355705
nonePBiCGStab:  Solving for Ux, Initial residual = 0.00954572, Final residual = 4.55041e-05, No Iterations 5
nonePBiCGStab:  Solving for Uy, Initial residual = 0.0171082, Final residual = 5.93036e-05, No Iterations 5
nonePBiCGStab:  Solving for Uz, Initial residual = 0.0331088, Final residual = 0.000277931, No Iterations 5
linear solve U 27
[OGL LOG] init_host_sparsity_pattern : 18 ms
[OGL LOG] matrix not stored update host matrix
[OGL LOG] update_host_mtx : 9 ms
[OGL LOG] matrix is not yet sorted, sorting host matrix
[OGL LOG] sort_host_mtx_sparsity_pattern : 12 ms
[OGL LOG] sort_host_mtx : 6 ms
[OGL LOG] init_preconditioner : 0 ms
[OGL LOG] solve : 99 ms
BJompGKOBiCGStab:  Solving for p, Initial residual = 0.0131128, Final residual = 8.17902e-05, No Iterations 60
linear solve p 155
time step continuity errors : sum local = 7.11119e-08, global = -1.96565e-20, cumulative = -6.58076e-20
[OGL LOG] init_host_sparsity_pattern : 18 ms
[OGL LOG] matrix not stored update host matrix
[OGL LOG] update_host_mtx : 9 ms
[OGL LOG] matrix is not yet sorted, sorting host matrix
[OGL LOG] sort_host_mtx_sparsity_pattern : 12 ms
[OGL LOG] sort_host_mtx : 6 ms
[OGL LOG] init_preconditioner : 0 ms
[OGL LOG] solve : 92 ms
BJompGKOBiCGStab:  Solving for p, Initial residual = 0.0111354, Final residual = 9.96266e-05, No Iterations 55
linear solve p 148
time step continuity errors : sum local = 9.68356e-08, global = -1.65359e-21, cumulative = -6.74612e-20
ExecutionTime = 145.98 s  ClockTime = 6 s

End

