/*---------------------------------------------------------------------------*\
  =========                 |
  \\      /  F ield         | OpenFOAM: The Open Source CFD Toolbox
   \\    /   O peration     | Website:  https://openfoam.org
    \\  /    A nd           | Version:  8
     \\/     M anipulation  |
\*---------------------------------------------------------------------------*/
Build  : 8-14d69e1ee166
Exec   : icoFoam
Date   : Jul 29 2021
Time   : 05:29:39
Host   : "guyot.icl.utk.edu"
PID    : 32227
I/O    : uncollated
Case   : /home/greole/code/OBR/lidDrivenCavity3D/Variation_mesh/100/Variation_matrix_solver/BiCGStab_DIC_Serial/base
nProcs : 1
sigFpe : Enabling floating point exception trapping (FOAM_SIGFPE).
fileModificationChecking : Monitoring run-time modified files using timeStampMaster (fileModificationSkew 10)
allowSystemOperations : Allowing user-supplied system call operations

// * * * * * * * * * * * * * * * * * * * * * * * * * * * * * * * * * * * * * //
Create time

Create mesh for time = 0

Reading transportProperties

Reading field p

Reading field U

Reading/calculating face flux field phi


Starting time loop

Time = 0.001

Courant Number mean: 0 max: 0
DILUPBiCGStab:  Solving for Ux, Initial residual = 1, Final residual = 0.00717233, No Iterations 5
DILUPBiCGStab:  Solving for Uy:  solution singularity
DILUPBiCGStab:  Solving for Uz:  solution singularity
linear solve U 391755
DICPBiCGStab:  Solving for p, Initial residual = 1, Final residual = 3.77035e-05, No Iterations 191
linear solve p 8101674
time step continuity errors : sum local = 2.34741e-08, global = 1.43979e-20, cumulative = 1.43979e-20
DICPBiCGStab:  Solving for p, Initial residual = 0.777313, Final residual = 5.38619e-05, No Iterations 186
linear solve p 7819453
time step continuity errors : sum local = 4.61757e-08, global = 3.95425e-21, cumulative = 1.83522e-20
ExecutionTime = 20.55 s  ClockTime = 21 s

Time = 0.002

Courant Number mean: 0.0560718 max: 0.805495
DILUPBiCGStab:  Solving for Ux, Initial residual = 0.13827, Final residual = 0.00318976, No Iterations 5
DILUPBiCGStab:  Solving for Uy, Initial residual = 0.43054, Final residual = 0.00909599, No Iterations 5
DILUPBiCGStab:  Solving for Uz, Initial residual = 0.989596, Final residual = 0.0225421, No Iterations 5
linear solve U 775997
DICPBiCGStab:  Solving for p, Initial residual = 0.799859, Final residual = 7.87686e-05, No Iterations 180
linear solve p 7591057
time step continuity errors : sum local = 1.6121e-07, global = -3.63255e-21, cumulative = 1.47196e-20
DICPBiCGStab:  Solving for p, Initial residual = 0.740479, Final residual = 7.47761e-05, No Iterations 177
linear solve p 7438159
time step continuity errors : sum local = 1.31737e-07, global = 3.45192e-21, cumulative = 1.81715e-20
ExecutionTime = 36.8 s  ClockTime = 37 s

Time = 0.003

Courant Number mean: 0.0852791 max: 0.943642
DILUPBiCGStab:  Solving for Ux, Initial residual = 0.065433, Final residual = 0.00115132, No Iterations 5
DILUPBiCGStab:  Solving for Uy, Initial residual = 0.226212, Final residual = 0.00289282, No Iterations 5
DILUPBiCGStab:  Solving for Uz, Initial residual = 0.800972, Final residual = 0.0171357, No Iterations 5
linear solve U 776733
DICPBiCGStab:  Solving for p, Initial residual = 0.833686, Final residual = 9.13793e-05, No Iterations 191
linear solve p 8031133
time step continuity errors : sum local = 9.90043e-08, global = 8.15039e-21, cumulative = 2.63219e-20
DICPBiCGStab:  Solving for p, Initial residual = 0.80177, Final residual = 9.86623e-05, No Iterations 166
linear solve p 7034595
time step continuity errors : sum local = 1.50425e-07, global = 4.13104e-21, cumulative = 3.0453e-20
ExecutionTime = 53.08 s  ClockTime = 53 s

Time = 0.004

Courant Number mean: 0.0982491 max: 0.926436
DILUPBiCGStab:  Solving for Ux, Initial residual = 0.0388955, Final residual = 0.000823947, No Iterations 5
DILUPBiCGStab:  Solving for Uy, Initial residual = 0.17046, Final residual = 0.00322684, No Iterations 5
DILUPBiCGStab:  Solving for Uz, Initial residual = 0.638561, Final residual = 0.0114791, No Iterations 5
linear solve U 779193
DICPBiCGStab:  Solving for p, Initial residual = 0.751622, Final residual = 2.89237e-05, No Iterations 199
linear solve p 8388258
time step continuity errors : sum local = 3.3012e-08, global = 3.04929e-21, cumulative = 3.35023e-20
DICPBiCGStab:  Solving for p, Initial residual = 0.686294, Final residual = 9.73584e-05, No Iterations 178
linear solve p 7498374
time step continuity errors : sum local = 1.27844e-07, global = -2.46948e-21, cumulative = 3.10328e-20
ExecutionTime = 70.2 s  ClockTime = 71 s

Time = 0.005

Courant Number mean: 0.110637 max: 0.944591
DILUPBiCGStab:  Solving for Ux, Initial residual = 0.0311162, Final residual = 0.000627863, No Iterations 5
DILUPBiCGStab:  Solving for Uy, Initial residual = 0.0996992, Final residual = 0.00198939, No Iterations 5
DILUPBiCGStab:  Solving for Uz, Initial residual = 0.607469, Final residual = 0.0105337, No Iterations 5
linear solve U 772341
DICPBiCGStab:  Solving for p, Initial residual = 0.760172, Final residual = 9.8887e-05, No Iterations 180
linear solve p 7607614
time step continuity errors : sum local = 8.73767e-08, global = 1.17558e-20, cumulative = 4.27886e-20
DICPBiCGStab:  Solving for p, Initial residual = 0.710683, Final residual = 9.93753e-05, No Iterations 165
linear solve p 6948585
time step continuity errors : sum local = 1.06325e-07, global = -5.12707e-21, cumulative = 3.76615e-20
ExecutionTime = 85.97 s  ClockTime = 86 s

Time = 0.006

Courant Number mean: 0.119025 max: 0.945057
DILUPBiCGStab:  Solving for Ux, Initial residual = 0.0205765, Final residual = 0.000424541, No Iterations 5
DILUPBiCGStab:  Solving for Uy, Initial residual = 0.0840575, Final residual = 0.0016775, No Iterations 5
DILUPBiCGStab:  Solving for Uz, Initial residual = 0.468047, Final residual = 0.00817229, No Iterations 5
linear solve U 773447
DICPBiCGStab:  Solving for p, Initial residual = 0.666487, Final residual = 5.45548e-05, No Iterations 199
linear solve p 8417948
time step continuity errors : sum local = 4.57962e-08, global = -6.31171e-22, cumulative = 3.70304e-20
DICPBiCGStab:  Solving for p, Initial residual = 0.604401, Final residual = 9.39948e-05, No Iterations 182
linear solve p 7655619
time step continuity errors : sum local = 9.42512e-08, global = 1.42559e-20, cumulative = 5.12862e-20
ExecutionTime = 103.26 s  ClockTime = 104 s

Time = 0.007

Courant Number mean: 0.126648 max: 0.948018
DILUPBiCGStab:  Solving for Ux, Initial residual = 0.0183401, Final residual = 0.000370042, No Iterations 5
DILUPBiCGStab:  Solving for Uy, Initial residual = 0.0572131, Final residual = 0.00126604, No Iterations 5
DILUPBiCGStab:  Solving for Uz, Initial residual = 0.424, Final residual = 0.00740809, No Iterations 5
linear solve U 773541
DICPBiCGStab:  Solving for p, Initial residual = 0.664927, Final residual = 7.58816e-05, No Iterations 190
linear solve p 8009319
time step continuity errors : sum local = 4.7767e-08, global = -1.57006e-21, cumulative = 4.97162e-20
DICPBiCGStab:  Solving for p, Initial residual = 0.606161, Final residual = 9.035e-05, No Iterations 184
linear solve p 7750237
time step continuity errors : sum local = 1.04637e-07, global = 3.40089e-22, cumulative = 5.00563e-20
ExecutionTime = 120.23 s  ClockTime = 121 s

Time = 0.008

Courant Number mean: 0.132674 max: 0.952129
DILUPBiCGStab:  Solving for Ux, Initial residual = 0.0134339, Final residual = 0.000266505, No Iterations 5
DILUPBiCGStab:  Solving for Uy, Initial residual = 0.0489817, Final residual = 0.0010172, No Iterations 5
DILUPBiCGStab:  Solving for Uz, Initial residual = 0.326737, Final residual = 0.00557362, No Iterations 5
linear solve U 773458
DICPBiCGStab:  Solving for p, Initial residual = 0.572907, Final residual = 9.96226e-05, No Iterations 88
linear solve p 3739814
time step continuity errors : sum local = 1.03719e-07, global = -8.22726e-21, cumulative = 4.1829e-20
DICPBiCGStab:  Solving for p, Initial residual = 0.515295, Final residual = 8.51497e-05, No Iterations 81
linear solve p 3423039
time step continuity errors : sum local = 7.39298e-08, global = 6.05142e-21, cumulative = 4.78804e-20
ExecutionTime = 128.61 s  ClockTime = 129 s

Time = 0.009

Courant Number mean: 0.138068 max: 0.953519
DILUPBiCGStab:  Solving for Ux, Initial residual = 0.0117032, Final residual = 0.000218289, No Iterations 5
DILUPBiCGStab:  Solving for Uy, Initial residual = 0.0368499, Final residual = 0.000806888, No Iterations 5
DILUPBiCGStab:  Solving for Uz, Initial residual = 0.277786, Final residual = 0.00464545, No Iterations 5
linear solve U 773131
DICPBiCGStab:  Solving for p, Initial residual = 0.563258, Final residual = 9.36517e-05, No Iterations 167
linear solve p 7038542
time step continuity errors : sum local = 9.27679e-08, global = 1.41484e-20, cumulative = 6.20289e-20
DICPBiCGStab:  Solving for p, Initial residual = 0.502671, Final residual = 2.88463e-05, No Iterations 164
linear solve p 6905641
time step continuity errors : sum local = 2.86044e-08, global = 8.57832e-21, cumulative = 7.06072e-20
ExecutionTime = 143.77 s  ClockTime = 144 s

Time = 0.01

Courant Number mean: 0.142671 max: 0.95589
DILUPBiCGStab:  Solving for Ux, Initial residual = 0.00933384, Final residual = 0.000167917, No Iterations 5
DILUPBiCGStab:  Solving for Uy, Initial residual = 0.0319677, Final residual = 0.000652857, No Iterations 5
DILUPBiCGStab:  Solving for Uz, Initial residual = 0.217637, Final residual = 0.0034747, No Iterations 5
linear solve U 773823
DICPBiCGStab:  Solving for p, Initial residual = 0.484934, Final residual = 9.33672e-05, No Iterations 193
linear solve p 8173583
time step continuity errors : sum local = 4.56469e-08, global = 8.3438e-21, cumulative = 7.8951e-20
DICPBiCGStab:  Solving for p, Initial residual = 0.431516, Final residual = 9.87537e-05, No Iterations 166
linear solve p 6978083
time step continuity errors : sum local = 5.20162e-08, global = 2.90036e-21, cumulative = 8.18514e-20
ExecutionTime = 160.14 s  ClockTime = 160 s

End

