/*---------------------------------------------------------------------------*\
  =========                 |
  \\      /  F ield         | OpenFOAM: The Open Source CFD Toolbox
   \\    /   O peration     | Website:  https://openfoam.org
    \\  /    A nd           | Version:  8
     \\/     M anipulation  |
\*---------------------------------------------------------------------------*/
Build  : 8-40a5a48f630f
Exec   : icoFoam
Date   : Jul 28 2021
Time   : 12:05:02
Host   : "uc2n374.localdomain"
PID    : 2699693
I/O    : uncollated
Case   : /pfs/data5/home/kit/scc/nq7776/code/OBR/lidDrivenCavity3D/Variation_mesh/90/Variation_matrix_solver/BiCGStab_BJ_OMP/base
nProcs : 1
sigFpe : Enabling floating point exception trapping (FOAM_SIGFPE).
fileModificationChecking : Monitoring run-time modified files using timeStampMaster (fileModificationSkew 10)
allowSystemOperations : Allowing user-supplied system call operations

// * * * * * * * * * * * * * * * * * * * * * * * * * * * * * * * * * * * * * //
Create time

Create mesh for time = 0

Reading transportProperties

Reading field p

Reading field U

Reading/calculating face flux field phi


Starting time loop

Time = 0.001

Courant Number mean: 0 max: 0
nonePBiCGStab:  Solving for Ux, Initial residual = 1, Final residual = 0.0756268, No Iterations 5
nonePBiCGStab:  Solving for Uy, Initial residual = 0, Final residual = 0, No Iterations 0
nonePBiCGStab:  Solving for Uz, Initial residual = 0, Final residual = 0, No Iterations 0
linear solve U 203
[OGL LOG] init_host_sparsity_pattern : 239 ms
[OGL LOG] matrix not stored update host matrix
[OGL LOG] update_host_mtx : 124 ms
[OGL LOG] matrix is not yet sorted, compute sorting idxs
[OGL LOG] compute_sort : 7549 ms
[OGL LOG] matrix is not yet sorted, sorting host matrix
[OGL LOG] sort_host_mtx_sparsity_pattern : 174 ms
[OGL LOG] sort_host_mtx : 103 ms
[OGL LOG] init_preconditioner : 31 ms
[OGL LOG] solve : 11660 ms
BJompGKOBiCGStab:  Solving for p, Initial residual = 1, Final residual = 8.64788e-05, No Iterations 485
linear solve p 20093
time step continuity errors : sum local = 6.75104e-08, global = -7.35084e-21, cumulative = -7.35084e-21
[OGL LOG] init_host_sparsity_pattern : 248 ms
[OGL LOG] matrix not stored update host matrix
[OGL LOG] update_host_mtx : 128 ms
[OGL LOG] matrix is not yet sorted, sorting host matrix
[OGL LOG] sort_host_mtx_sparsity_pattern : 196 ms
[OGL LOG] sort_host_mtx : 106 ms
[OGL LOG] init_preconditioner : 0 ms
[OGL LOG] solve : 10640 ms
BJompGKOBiCGStab:  Solving for p, Initial residual = 0.701132, Final residual = 9.69855e-05, No Iterations 448
linear solve p 11482
time step continuity errors : sum local = 2.75973e-07, global = 5.07747e-22, cumulative = -6.8431e-21
ExecutionTime = 722.15 s  ClockTime = 35 s

Time = 0.002

Courant Number mean: 0.040101 max: 0.699777
nonePBiCGStab:  Solving for Ux, Initial residual = 0.140413, Final residual = 0.0352799, No Iterations 5
nonePBiCGStab:  Solving for Uy, Initial residual = 0.42867, Final residual = 0.104907, No Iterations 5
nonePBiCGStab:  Solving for Uz, Initial residual = 0.977805, Final residual = 0.282125, No Iterations 5
linear solve U 415
[OGL LOG] init_host_sparsity_pattern : 233 ms
[OGL LOG] matrix not stored update host matrix
[OGL LOG] update_host_mtx : 125 ms
[OGL LOG] matrix is not yet sorted, sorting host matrix
[OGL LOG] sort_host_mtx_sparsity_pattern : 179 ms
[OGL LOG] sort_host_mtx : 101 ms
[OGL LOG] init_preconditioner : 0 ms
[OGL LOG] solve : 12726 ms
BJompGKOBiCGStab:  Solving for p, Initial residual = 0.76428, Final residual = 9.3304e-05, No Iterations 426
linear solve p 13505
time step continuity errors : sum local = 2.77068e-05, global = -1.02848e-20, cumulative = -1.71279e-20
[OGL LOG] init_host_sparsity_pattern : 238 ms
[OGL LOG] matrix not stored update host matrix
[OGL LOG] update_host_mtx : 128 ms
[OGL LOG] matrix is not yet sorted, sorting host matrix
[OGL LOG] sort_host_mtx_sparsity_pattern : 186 ms
[OGL LOG] sort_host_mtx : 106 ms
[OGL LOG] init_preconditioner : 0 ms
[OGL LOG] solve : 14941 ms
BJompGKOBiCGStab:  Solving for p, Initial residual = 0.691268, Final residual = 7.98211e-05, No Iterations 460
linear solve p 15744
time step continuity errors : sum local = 6.72558e-06, global = 3.02447e-21, cumulative = -1.41035e-20
ExecutionTime = 1591.63 s  ClockTime = 66 s

Time = 0.003

Courant Number mean: 0.0633503 max: 0.801226
nonePBiCGStab:  Solving for Ux, Initial residual = 0.0598406, Final residual = 0.0146028, No Iterations 5
nonePBiCGStab:  Solving for Uy, Initial residual = 0.18601, Final residual = 0.0557425, No Iterations 5
nonePBiCGStab:  Solving for Uz, Initial residual = 0.702109, Final residual = 0.256353, No Iterations 5
linear solve U 427
[OGL LOG] init_host_sparsity_pattern : 240 ms
[OGL LOG] matrix not stored update host matrix
[OGL LOG] update_host_mtx : 129 ms
[OGL LOG] matrix is not yet sorted, sorting host matrix
[OGL LOG] sort_host_mtx_sparsity_pattern : 187 ms
[OGL LOG] sort_host_mtx : 105 ms
[OGL LOG] init_preconditioner : 0 ms
[OGL LOG] solve : 11346 ms
BJompGKOBiCGStab:  Solving for p, Initial residual = 0.761957, Final residual = 9.80832e-05, No Iterations 438
linear solve p 12141
time step continuity errors : sum local = 4.04358e-07, global = 5.94993e-21, cumulative = -8.15353e-21
[OGL LOG] init_host_sparsity_pattern : 232 ms
[OGL LOG] matrix not stored update host matrix
[OGL LOG] update_host_mtx : 129 ms
[OGL LOG] matrix is not yet sorted, sorting host matrix
[OGL LOG] sort_host_mtx_sparsity_pattern : 180 ms
[OGL LOG] sort_host_mtx : 105 ms
[OGL LOG] init_preconditioner : 0 ms
[OGL LOG] solve : 25503 ms
BJompGKOBiCGStab:  Solving for p, Initial residual = 0.689733, Final residual = 8.78541e-05, No Iterations 192
linear solve p 26279
time step continuity errors : sum local = 1.62227e-07, global = 1.60665e-21, cumulative = -6.54688e-21
ExecutionTime = 2674.47 s  ClockTime = 105 s

Time = 0.004

Courant Number mean: 0.0758658 max: 0.816569
nonePBiCGStab:  Solving for Ux, Initial residual = 0.0376008, Final residual = 0.00884339, No Iterations 5
nonePBiCGStab:  Solving for Uy, Initial residual = 0.129764, Final residual = 0.0360692, No Iterations 5
nonePBiCGStab:  Solving for Uz, Initial residual = 0.476499, Final residual = 0.141072, No Iterations 5
linear solve U 435
[OGL LOG] init_host_sparsity_pattern : 241 ms
[OGL LOG] matrix not stored update host matrix
[OGL LOG] update_host_mtx : 129 ms
[OGL LOG] matrix is not yet sorted, sorting host matrix
[OGL LOG] sort_host_mtx_sparsity_pattern : 185 ms
[OGL LOG] sort_host_mtx : 105 ms
[OGL LOG] init_preconditioner : 0 ms
[OGL LOG] solve : 11664 ms
BJompGKOBiCGStab:  Solving for p, Initial residual = 0.665613, Final residual = 9.11049e-05, No Iterations 433
linear solve p 12462
time step continuity errors : sum local = 1.46454e-07, global = 5.22401e-21, cumulative = -1.32287e-21
[OGL LOG] init_host_sparsity_pattern : 234 ms
[OGL LOG] matrix not stored update host matrix
[OGL LOG] update_host_mtx : 128 ms
[OGL LOG] matrix is not yet sorted, sorting host matrix
[OGL LOG] sort_host_mtx_sparsity_pattern : 180 ms
[OGL LOG] sort_host_mtx : 105 ms
[OGL LOG] init_preconditioner : 0 ms
[OGL LOG] solve : 11141 ms
BJompGKOBiCGStab:  Solving for p, Initial residual = 0.568743, Final residual = 9.74962e-05, No Iterations 426
linear solve p 11910
time step continuity errors : sum local = 1.12344e-07, global = -1.22223e-21, cumulative = -2.5451e-21
ExecutionTime = 3403.32 s  ClockTime = 130 s

Time = 0.005

Courant Number mean: 0.0861393 max: 0.82892
nonePBiCGStab:  Solving for Ux, Initial residual = 0.0279879, Final residual = 0.00625201, No Iterations 5
nonePBiCGStab:  Solving for Uy, Initial residual = 0.0832777, Final residual = 0.0268977, No Iterations 5
nonePBiCGStab:  Solving for Uz, Initial residual = 0.30823, Final residual = 0.080631, No Iterations 5
linear solve U 420
[OGL LOG] init_host_sparsity_pattern : 240 ms
[OGL LOG] matrix not stored update host matrix
[OGL LOG] update_host_mtx : 129 ms
[OGL LOG] matrix is not yet sorted, sorting host matrix
[OGL LOG] sort_host_mtx_sparsity_pattern : 179 ms
[OGL LOG] sort_host_mtx : 106 ms
[OGL LOG] init_preconditioner : 0 ms
[OGL LOG] solve : 9042 ms
BJompGKOBiCGStab:  Solving for p, Initial residual = 0.694523, Final residual = 7.47721e-05, No Iterations 352
linear solve p 9817
time step continuity errors : sum local = 4.95564e-08, global = -9.18816e-21, cumulative = -1.17333e-20
[OGL LOG] init_host_sparsity_pattern : 237 ms
[OGL LOG] matrix not stored update host matrix
[OGL LOG] update_host_mtx : 129 ms
[OGL LOG] matrix is not yet sorted, sorting host matrix
[OGL LOG] sort_host_mtx_sparsity_pattern : 186 ms
[OGL LOG] sort_host_mtx : 105 ms
[OGL LOG] init_preconditioner : 0 ms
[OGL LOG] solve : 5164 ms
BJompGKOBiCGStab:  Solving for p, Initial residual = 0.608539, Final residual = 9.42526e-05, No Iterations 195
linear solve p 5960
time step continuity errors : sum local = 1.20792e-07, global = 8.40743e-21, cumulative = -3.32583e-21
ExecutionTime = 3859.28 s  ClockTime = 147 s

Time = 0.006

Courant Number mean: 0.0942089 max: 0.835555
nonePBiCGStab:  Solving for Ux, Initial residual = 0.0219652, Final residual = 0.00481181, No Iterations 5
nonePBiCGStab:  Solving for Uy, Initial residual = 0.066178, Final residual = 0.0193294, No Iterations 5
nonePBiCGStab:  Solving for Uz, Initial residual = 0.247485, Final residual = 0.0735957, No Iterations 5
linear solve U 421
[OGL LOG] init_host_sparsity_pattern : 239 ms
[OGL LOG] matrix not stored update host matrix
[OGL LOG] update_host_mtx : 127 ms
[OGL LOG] matrix is not yet sorted, sorting host matrix
[OGL LOG] sort_host_mtx_sparsity_pattern : 184 ms
[OGL LOG] sort_host_mtx : 114 ms
[OGL LOG] init_preconditioner : 0 ms
[OGL LOG] solve : 10008 ms
BJompGKOBiCGStab:  Solving for p, Initial residual = 0.61987, Final residual = 2.28362e-05, No Iterations 384
linear solve p 10796
time step continuity errors : sum local = 4.46769e-06, global = -4.49886e-21, cumulative = -7.82469e-21
[OGL LOG] init_host_sparsity_pattern : 232 ms
[OGL LOG] matrix not stored update host matrix
[OGL LOG] update_host_mtx : 129 ms
[OGL LOG] matrix is not yet sorted, sorting host matrix
[OGL LOG] sort_host_mtx_sparsity_pattern : 180 ms
[OGL LOG] sort_host_mtx : 106 ms
[OGL LOG] init_preconditioner : 0 ms
[OGL LOG] solve : 14003 ms
BJompGKOBiCGStab:  Solving for p, Initial residual = 0.529514, Final residual = 6.70088e-05, No Iterations 452
linear solve p 14778
time step continuity errors : sum local = 8.1755e-08, global = 1.1467e-20, cumulative = 3.64234e-21
ExecutionTime = 4621.13 s  ClockTime = 174 s

Time = 0.007

Courant Number mean: 0.101169 max: 0.84099
nonePBiCGStab:  Solving for Ux, Initial residual = 0.0179533, Final residual = 0.00406684, No Iterations 5
nonePBiCGStab:  Solving for Uy, Initial residual = 0.0519303, Final residual = 0.0168156, No Iterations 5
nonePBiCGStab:  Solving for Uz, Initial residual = 0.234463, Final residual = 0.0769788, No Iterations 5
linear solve U 427
[OGL LOG] init_host_sparsity_pattern : 245 ms
[OGL LOG] matrix not stored update host matrix
[OGL LOG] update_host_mtx : 129 ms
[OGL LOG] matrix is not yet sorted, sorting host matrix
[OGL LOG] sort_host_mtx_sparsity_pattern : 186 ms
[OGL LOG] sort_host_mtx : 105 ms
[OGL LOG] init_preconditioner : 0 ms
[OGL LOG] solve : 17350 ms
BJompGKOBiCGStab:  Solving for p, Initial residual = 0.650061, Final residual = 8.58773e-05, No Iterations 379
linear solve p 18164
time step continuity errors : sum local = 1.57262e-06, global = -1.95655e-21, cumulative = 1.68579e-21
[OGL LOG] init_host_sparsity_pattern : 244 ms
[OGL LOG] matrix not stored update host matrix
[OGL LOG] update_host_mtx : 133 ms
[OGL LOG] matrix is not yet sorted, sorting host matrix
[OGL LOG] sort_host_mtx_sparsity_pattern : 191 ms
[OGL LOG] sort_host_mtx : 109 ms
[OGL LOG] init_preconditioner : 0 ms
[OGL LOG] solve : 28901 ms
BJompGKOBiCGStab:  Solving for p, Initial residual = 0.560365, Final residual = 9.63854e-05, No Iterations 360
linear solve p 29739
time step continuity errors : sum local = 7.48093e-08, global = -1.23731e-20, cumulative = -1.06873e-20
ExecutionTime = 6036.14 s  ClockTime = 223 s

regIOobject::readIfModified() : 
    Re-reading object controlDict from file "/pfs/data5/home/kit/scc/nq7776/code/OBR/lidDrivenCavity3D/Variation_mesh/90/Variation_matrix_solver/BiCGStab_BJ_OMP/base/system/controlDict"
Time = 0.008

Courant Number mean: 0.10695 max: 0.8447
nonePBiCGStab:  Solving for Ux, Initial residual = 0.0154157, Final residual = 0.00349603, No Iterations 5
nonePBiCGStab:  Solving for Uy, Initial residual = 0.0442887, Final residual = 0.0127619, No Iterations 5
nonePBiCGStab:  Solving for Uz, Initial residual = 0.164375, Final residual = 0.0494897, No Iterations 5
linear solve U 424
[OGL LOG] init_host_sparsity_pattern : 241 ms
[OGL LOG] matrix not stored update host matrix
[OGL LOG] update_host_mtx : 130 ms
[OGL LOG] matrix is not yet sorted, sorting host matrix
[OGL LOG] sort_host_mtx_sparsity_pattern : 186 ms
[OGL LOG] sort_host_mtx : 107 ms
[OGL LOG] init_preconditioner : 0 ms
[OGL LOG] solve : 6299 ms
BJompGKOBiCGStab:  Solving for p, Initial residual = 0.593708, Final residual = 7.20108e-05, No Iterations 159
linear solve p 7102
time step continuity errors : sum local = 1.10353e-07, global = 1.56326e-20, cumulative = 4.94536e-21
[OGL LOG] init_host_sparsity_pattern : 245 ms
[OGL LOG] matrix not stored update host matrix
[OGL LOG] update_host_mtx : 133 ms
[OGL LOG] matrix is not yet sorted, sorting host matrix
[OGL LOG] sort_host_mtx_sparsity_pattern : 191 ms
[OGL LOG] sort_host_mtx : 109 ms
[OGL LOG] init_preconditioner : 0 ms
[OGL LOG] solve : 8443 ms
BJompGKOBiCGStab:  Solving for p, Initial residual = 0.504473, Final residual = 7.51002e-05, No Iterations 171
linear solve p 9271
time step continuity errors : sum local = 7.36769e-08, global = -7.25102e-21, cumulative = -2.30566e-21
ExecutionTime = 6493.5 s  ClockTime = 240 s

Time = 0.009

Courant Number mean: 0.11214 max: 0.847913
nonePBiCGStab:  Solving for Ux, Initial residual = 0.0133932, Final residual = 0.0027556, No Iterations 5
nonePBiCGStab:  Solving for Uy, Initial residual = 0.0369981, Final residual = 0.00985299, No Iterations 5
nonePBiCGStab:  Solving for Uz, Initial residual = 0.131132, Final residual = 0.0366047, No Iterations 5
linear solve U 429
[OGL LOG] init_host_sparsity_pattern : 248 ms
[OGL LOG] matrix not stored update host matrix
[OGL LOG] update_host_mtx : 133 ms
[OGL LOG] matrix is not yet sorted, sorting host matrix
[OGL LOG] sort_host_mtx_sparsity_pattern : 192 ms
[OGL LOG] sort_host_mtx : 109 ms
[OGL LOG] init_preconditioner : 0 ms
[OGL LOG] solve : 19638 ms
BJompGKOBiCGStab:  Solving for p, Initial residual = 0.617624, Final residual = 8.86304e-05, No Iterations 402
linear solve p 20463
time step continuity errors : sum local = 5.32647e-08, global = 1.0153e-20, cumulative = 7.84739e-21
[OGL LOG] init_host_sparsity_pattern : 245 ms
[OGL LOG] matrix not stored update host matrix
[OGL LOG] update_host_mtx : 133 ms
[OGL LOG] matrix is not yet sorted, sorting host matrix
[OGL LOG] sort_host_mtx_sparsity_pattern : 191 ms
[OGL LOG] sort_host_mtx : 109 ms
[OGL LOG] init_preconditioner : 0 ms
[OGL LOG] solve : 11216 ms
BJompGKOBiCGStab:  Solving for p, Initial residual = 0.527869, Final residual = 9.53654e-05, No Iterations 402
linear solve p 12039
time step continuity errors : sum local = 6.6006e-08, global = -1.56674e-20, cumulative = -7.82005e-21
ExecutionTime = 7457.91 s  ClockTime = 274 s

Time = 0.01

Courant Number mean: 0.116751 max: 0.850438
nonePBiCGStab:  Solving for Ux, Initial residual = 0.0117095, Final residual = 0.00233519, No Iterations 5
nonePBiCGStab:  Solving for Uy, Initial residual = 0.032044, Final residual = 0.00804173, No Iterations 5
nonePBiCGStab:  Solving for Uz, Initial residual = 0.120925, Final residual = 0.0328537, No Iterations 5
linear solve U 411
[OGL LOG] init_host_sparsity_pattern : 236 ms
[OGL LOG] matrix not stored update host matrix
[OGL LOG] update_host_mtx : 127 ms
[OGL LOG] matrix is not yet sorted, sorting host matrix
[OGL LOG] sort_host_mtx_sparsity_pattern : 181 ms
[OGL LOG] sort_host_mtx : 103 ms
[OGL LOG] init_preconditioner : 0 ms
[OGL LOG] solve : 10495 ms
BJompGKOBiCGStab:  Solving for p, Initial residual = 0.570946, Final residual = 9.34276e-05, No Iterations 382
linear solve p 11283
time step continuity errors : sum local = 3.2764e-07, global = -5.23532e-21, cumulative = -1.30554e-20
[OGL LOG] init_host_sparsity_pattern : 230 ms
[OGL LOG] matrix not stored update host matrix
[OGL LOG] update_host_mtx : 129 ms
[OGL LOG] matrix is not yet sorted, sorting host matrix
[OGL LOG] sort_host_mtx_sparsity_pattern : 180 ms
[OGL LOG] sort_host_mtx : 106 ms
[OGL LOG] init_preconditioner : 0 ms
[OGL LOG] solve : 12710 ms
BJompGKOBiCGStab:  Solving for p, Initial residual = 0.486381, Final residual = 8.15363e-05, No Iterations 185
linear solve p 13485
time step continuity errors : sum local = 1.60718e-07, global = -6.83032e-21, cumulative = -1.98857e-20
ExecutionTime = 8182.61 s  ClockTime = 299 s

End

