/*---------------------------------------------------------------------------*\
  =========                 |
  \\      /  F ield         | OpenFOAM: The Open Source CFD Toolbox
   \\    /   O peration     | Website:  https://openfoam.org
    \\  /    A nd           | Version:  8
     \\/     M anipulation  |
\*---------------------------------------------------------------------------*/
Build  : 8-ef60d22ea792
Exec   : icoFoam
Date   : Jul 29 2021
Time   : 07:31:50
Host   : "nla-gpu2.ianm.kit.edu"
PID    : 1955803
I/O    : uncollated
Case   : /home/greole/code/OBR/lidDrivenCavity3D/Variation_mesh/65/Variation_matrix_solver/IR_NoPrecond_HIP/base
nProcs : 1
sigFpe : Enabling floating point exception trapping (FOAM_SIGFPE).
fileModificationChecking : Monitoring run-time modified files using timeStampMaster (fileModificationSkew 10)
allowSystemOperations : Allowing user-supplied system call operations

// * * * * * * * * * * * * * * * * * * * * * * * * * * * * * * * * * * * * * //
Create time

Create mesh for time = 0

Reading transportProperties

Reading field p

Reading field U

Reading/calculating face flux field phi


Starting time loop

Time = 0.001

Courant Number mean: 0 max: 0
DILUPBiCGStab:  Solving for Ux, Initial residual = 1, Final residual = 0.0009093, No Iterations 5
DILUPBiCGStab:  Solving for Uy:  solution singularity
DILUPBiCGStab:  Solving for Uz:  solution singularity
linear solve U 112361
[OGL LOG] init_host_sparsity_pattern : 129 ms
[OGL LOG] matrix not stored update host matrix
[OGL LOG] update_host_mtx : 61 ms
[OGL LOG] matrix is not yet sorted, compute sorting idxs
[OGL LOG] compute_sort : 2635 ms
[OGL LOG] matrix is not yet sorted, sorting host matrix
[OGL LOG] sort_host_mtx_sparsity_pattern : 59 ms
[OGL LOG] sort_host_mtx : 33 ms
[OGL LOG] init_preconditioner : 0 ms
[OGL LOG] solve : 196 ms
nonehipGKOIR:  Solving for p, Initial residual = 1, Final residual = 1.10284e-05, No Iterations 3
linear solve p 3576151
time step continuity errors : sum local = 6.52514e-09, global = 1.10783e-20, cumulative = 1.10783e-20
[OGL LOG] init_host_sparsity_pattern : 123 ms
[OGL LOG] matrix not stored update host matrix
[OGL LOG] update_host_mtx : 60 ms
[OGL LOG] matrix is not yet sorted, sorting host matrix
[OGL LOG] sort_host_mtx_sparsity_pattern : 55 ms
[OGL LOG] sort_host_mtx : 33 ms
[OGL LOG] init_preconditioner : 0 ms
[OGL LOG] solve : 169 ms
nonehipGKOIR:  Solving for p, Initial residual = 0.710559, Final residual = 5.49763e-06, No Iterations 3
linear solve p 458165
time step continuity errors : sum local = 4.37988e-09, global = -2.19171e-21, cumulative = 8.88659e-21
ExecutionTime = 5.82 s  ClockTime = 5 s

Time = 0.002

Courant Number mean: 0.036459 max: 0.470838
DILUPBiCGStab:  Solving for Ux, Initial residual = 0.154387, Final residual = 0.000271565, No Iterations 5
DILUPBiCGStab:  Solving for Uy, Initial residual = 0.350437, Final residual = 0.000506096, No Iterations 5
DILUPBiCGStab:  Solving for Uz, Initial residual = 0.982791, Final residual = 0.00176911, No Iterations 5
linear solve U 214799
[OGL LOG] init_host_sparsity_pattern : 121 ms
[OGL LOG] matrix not stored update host matrix
[OGL LOG] update_host_mtx : 60 ms
[OGL LOG] matrix is not yet sorted, sorting host matrix
[OGL LOG] sort_host_mtx_sparsity_pattern : 53 ms
[OGL LOG] sort_host_mtx : 32 ms
[OGL LOG] init_preconditioner : 0 ms
[OGL LOG] solve : 167 ms
nonehipGKOIR:  Solving for p, Initial residual = 0.645931, Final residual = 3.16559e-06, No Iterations 3
linear solve p 448667
time step continuity errors : sum local = 2.67345e-09, global = 2.37538e-20, cumulative = 3.26404e-20
[OGL LOG] init_host_sparsity_pattern : 127 ms
[OGL LOG] matrix not stored update host matrix
[OGL LOG] update_host_mtx : 61 ms
[OGL LOG] matrix is not yet sorted, sorting host matrix
[OGL LOG] sort_host_mtx_sparsity_pattern : 55 ms
[OGL LOG] sort_host_mtx : 32 ms
[OGL LOG] init_preconditioner : 0 ms
[OGL LOG] solve : 167 ms
nonehipGKOIR:  Solving for p, Initial residual = 0.569369, Final residual = 2.64304e-06, No Iterations 3
linear solve p 457849
time step continuity errors : sum local = 2.28646e-09, global = -1.46691e-20, cumulative = 1.79713e-20
ExecutionTime = 7.39 s  ClockTime = 6 s

Time = 0.003

Courant Number mean: 0.0547095 max: 0.564536
DILUPBiCGStab:  Solving for Ux, Initial residual = 0.0506125, Final residual = 5.48098e-05, No Iterations 5
DILUPBiCGStab:  Solving for Uy, Initial residual = 0.109588, Final residual = 0.000120713, No Iterations 5
DILUPBiCGStab:  Solving for Uz, Initial residual = 0.38829, Final residual = 0.000649282, No Iterations 5
linear solve U 213036
[OGL LOG] init_host_sparsity_pattern : 121 ms
[OGL LOG] matrix not stored update host matrix
[OGL LOG] update_host_mtx : 60 ms
[OGL LOG] matrix is not yet sorted, sorting host matrix
[OGL LOG] sort_host_mtx_sparsity_pattern : 53 ms
[OGL LOG] sort_host_mtx : 31 ms
[OGL LOG] init_preconditioner : 0 ms
[OGL LOG] solve : 157 ms
nonehipGKOIR:  Solving for p, Initial residual = 0.547614, Final residual = 1.96395e-06, No Iterations 3
linear solve p 437311
time step continuity errors : sum local = 1.15018e-09, global = 9.0277e-21, cumulative = 2.6999e-20
[OGL LOG] init_host_sparsity_pattern : 120 ms
[OGL LOG] matrix not stored update host matrix
[OGL LOG] update_host_mtx : 60 ms
[OGL LOG] matrix is not yet sorted, sorting host matrix
[OGL LOG] sort_host_mtx_sparsity_pattern : 53 ms
[OGL LOG] sort_host_mtx : 33 ms
[OGL LOG] init_preconditioner : 0 ms
[OGL LOG] solve : 156 ms
nonehipGKOIR:  Solving for p, Initial residual = 0.491358, Final residual = 1.48565e-06, No Iterations 3
linear solve p 438614
time step continuity errors : sum local = 8.49373e-10, global = 8.54016e-21, cumulative = 3.55392e-20
ExecutionTime = 8.9 s  ClockTime = 8 s

Time = 0.004

Courant Number mean: 0.0645905 max: 0.579603
DILUPBiCGStab:  Solving for Ux, Initial residual = 0.0290686, Final residual = 3.32273e-05, No Iterations 5
DILUPBiCGStab:  Solving for Uy, Initial residual = 0.0718667, Final residual = 5.5506e-05, No Iterations 5
DILUPBiCGStab:  Solving for Uz, Initial residual = 0.208367, Final residual = 0.000261135, No Iterations 5
linear solve U 215189
[OGL LOG] init_host_sparsity_pattern : 120 ms
[OGL LOG] matrix not stored update host matrix
[OGL LOG] update_host_mtx : 60 ms
[OGL LOG] matrix is not yet sorted, sorting host matrix
[OGL LOG] sort_host_mtx_sparsity_pattern : 54 ms
[OGL LOG] sort_host_mtx : 33 ms
[OGL LOG] init_preconditioner : 0 ms
[OGL LOG] solve : 130 ms
nonehipGKOIR:  Solving for p, Initial residual = 0.316561, Final residual = 9.70106e-05, No Iterations 2
linear solve p 412892
time step continuity errors : sum local = 5.04602e-08, global = 7.16949e-22, cumulative = 3.62561e-20
[OGL LOG] init_host_sparsity_pattern : 128 ms
[OGL LOG] matrix not stored update host matrix
[OGL LOG] update_host_mtx : 61 ms
[OGL LOG] matrix is not yet sorted, sorting host matrix
[OGL LOG] sort_host_mtx_sparsity_pattern : 54 ms
[OGL LOG] sort_host_mtx : 32 ms
[OGL LOG] init_preconditioner : 0 ms
[OGL LOG] solve : 128 ms
nonehipGKOIR:  Solving for p, Initial residual = 0.261801, Final residual = 8.67279e-05, No Iterations 2
linear solve p 421658
time step continuity errors : sum local = 4.56605e-08, global = -1.17602e-20, cumulative = 2.44959e-20
ExecutionTime = 10.33 s  ClockTime = 9 s

Time = 0.005

Courant Number mean: 0.0722268 max: 0.589262
DILUPBiCGStab:  Solving for Ux, Initial residual = 0.0206455, Final residual = 1.46625e-05, No Iterations 5
DILUPBiCGStab:  Solving for Uy, Initial residual = 0.0445523, Final residual = 3.50867e-05, No Iterations 5
DILUPBiCGStab:  Solving for Uz, Initial residual = 0.0749172, Final residual = 7.55594e-05, No Iterations 5
linear solve U 214082
[OGL LOG] init_host_sparsity_pattern : 120 ms
[OGL LOG] matrix not stored update host matrix
[OGL LOG] update_host_mtx : 60 ms
[OGL LOG] matrix is not yet sorted, sorting host matrix
[OGL LOG] sort_host_mtx_sparsity_pattern : 53 ms
[OGL LOG] sort_host_mtx : 31 ms
[OGL LOG] init_preconditioner : 0 ms
[OGL LOG] solve : 130 ms
nonehipGKOIR:  Solving for p, Initial residual = 0.213939, Final residual = 5.81689e-05, No Iterations 2
linear solve p 411987
time step continuity errors : sum local = 2.64974e-08, global = -1.16646e-20, cumulative = 1.28313e-20
[OGL LOG] init_host_sparsity_pattern : 122 ms
[OGL LOG] matrix not stored update host matrix
[OGL LOG] update_host_mtx : 60 ms
[OGL LOG] matrix is not yet sorted, sorting host matrix
[OGL LOG] sort_host_mtx_sparsity_pattern : 54 ms
[OGL LOG] sort_host_mtx : 32 ms
[OGL LOG] init_preconditioner : 0 ms
[OGL LOG] solve : 128 ms
nonehipGKOIR:  Solving for p, Initial residual = 0.179724, Final residual = 4.96101e-05, No Iterations 2
linear solve p 411954
time step continuity errors : sum local = 2.24669e-08, global = -2.72197e-20, cumulative = -1.43883e-20
ExecutionTime = 11.75 s  ClockTime = 10 s

Time = 0.006

Courant Number mean: 0.0781057 max: 0.595024
DILUPBiCGStab:  Solving for Ux, Initial residual = 0.0153432, Final residual = 1.31624e-05, No Iterations 5
DILUPBiCGStab:  Solving for Uy, Initial residual = 0.0341625, Final residual = 1.47386e-05, No Iterations 5
DILUPBiCGStab:  Solving for Uz, Initial residual = 0.0669807, Final residual = 6.4985e-05, No Iterations 5
linear solve U 213847
[OGL LOG] init_host_sparsity_pattern : 124 ms
[OGL LOG] matrix not stored update host matrix
[OGL LOG] update_host_mtx : 61 ms
[OGL LOG] matrix is not yet sorted, sorting host matrix
[OGL LOG] sort_host_mtx_sparsity_pattern : 53 ms
[OGL LOG] sort_host_mtx : 32 ms
[OGL LOG] init_preconditioner : 0 ms
[OGL LOG] solve : 128 ms
nonehipGKOIR:  Solving for p, Initial residual = 0.126566, Final residual = 3.49002e-05, No Iterations 2
linear solve p 413904
time step continuity errors : sum local = 1.55913e-08, global = 4.91016e-21, cumulative = -9.47818e-21
[OGL LOG] init_host_sparsity_pattern : 124 ms
[OGL LOG] matrix not stored update host matrix
[OGL LOG] update_host_mtx : 60 ms
[OGL LOG] matrix is not yet sorted, sorting host matrix
[OGL LOG] sort_host_mtx_sparsity_pattern : 53 ms
[OGL LOG] sort_host_mtx : 32 ms
[OGL LOG] init_preconditioner : 0 ms
[OGL LOG] solve : 126 ms
nonehipGKOIR:  Solving for p, Initial residual = 0.103627, Final residual = 2.85668e-05, No Iterations 2
linear solve p 410325
time step continuity errors : sum local = 1.28007e-08, global = 6.03552e-21, cumulative = -3.44266e-21
ExecutionTime = 13.15 s  ClockTime = 11 s

Time = 0.007

Courant Number mean: 0.0829416 max: 0.598974
DILUPBiCGStab:  Solving for Ux, Initial residual = 0.0122035, Final residual = 5.65289e-06, No Iterations 5
DILUPBiCGStab:  Solving for Uy, Initial residual = 0.0269887, Final residual = 1.48976e-05, No Iterations 5
DILUPBiCGStab:  Solving for Uz, Initial residual = 0.0482186, Final residual = 4.02472e-05, No Iterations 5
linear solve U 211766
[OGL LOG] init_host_sparsity_pattern : 126 ms
[OGL LOG] matrix not stored update host matrix
[OGL LOG] update_host_mtx : 61 ms
[OGL LOG] matrix is not yet sorted, sorting host matrix
[OGL LOG] sort_host_mtx_sparsity_pattern : 54 ms
[OGL LOG] sort_host_mtx : 31 ms
[OGL LOG] init_preconditioner : 0 ms
[OGL LOG] solve : 127 ms
nonehipGKOIR:  Solving for p, Initial residual = 0.0842925, Final residual = 1.9733e-05, No Iterations 2
linear solve p 416755
time step continuity errors : sum local = 8.54647e-09, global = 8.03034e-21, cumulative = 4.58768e-21
[OGL LOG] init_host_sparsity_pattern : 124 ms
[OGL LOG] matrix not stored update host matrix
[OGL LOG] update_host_mtx : 60 ms
[OGL LOG] matrix is not yet sorted, sorting host matrix
[OGL LOG] sort_host_mtx_sparsity_pattern : 53 ms
[OGL LOG] sort_host_mtx : 32 ms
[OGL LOG] init_preconditioner : 0 ms
[OGL LOG] solve : 126 ms
nonehipGKOIR:  Solving for p, Initial residual = 0.0697607, Final residual = 1.62037e-05, No Iterations 2
linear solve p 409493
time step continuity errors : sum local = 7.01734e-09, global = -2.87345e-20, cumulative = -2.41468e-20
ExecutionTime = 14.56 s  ClockTime = 12 s

Time = 0.008

Courant Number mean: 0.0869904 max: 0.601972
DILUPBiCGStab:  Solving for Ux, Initial residual = 0.0100273, Final residual = 4.71543e-06, No Iterations 5
DILUPBiCGStab:  Solving for Uy, Initial residual = 0.0221827, Final residual = 6.39614e-06, No Iterations 5
DILUPBiCGStab:  Solving for Uz, Initial residual = 0.0413945, Final residual = 2.70821e-05, No Iterations 5
linear solve U 212520
[OGL LOG] init_host_sparsity_pattern : 123 ms
[OGL LOG] matrix not stored update host matrix
[OGL LOG] update_host_mtx : 61 ms
[OGL LOG] matrix is not yet sorted, sorting host matrix
[OGL LOG] sort_host_mtx_sparsity_pattern : 53 ms
[OGL LOG] sort_host_mtx : 32 ms
[OGL LOG] init_preconditioner : 0 ms
[OGL LOG] solve : 125 ms
nonehipGKOIR:  Solving for p, Initial residual = 0.0539735, Final residual = 1.30009e-05, No Iterations 2
linear solve p 409894
time step continuity errors : sum local = 5.5777e-09, global = -7.11475e-21, cumulative = -3.12615e-20
[OGL LOG] init_host_sparsity_pattern : 124 ms
[OGL LOG] matrix not stored update host matrix
[OGL LOG] update_host_mtx : 60 ms
[OGL LOG] matrix is not yet sorted, sorting host matrix
[OGL LOG] sort_host_mtx_sparsity_pattern : 53 ms
[OGL LOG] sort_host_mtx : 32 ms
[OGL LOG] init_preconditioner : 0 ms
[OGL LOG] solve : 128 ms
nonehipGKOIR:  Solving for p, Initial residual = 0.0448014, Final residual = 1.02825e-05, No Iterations 2
linear solve p 412226
time step continuity errors : sum local = 4.41826e-09, global = 6.34245e-21, cumulative = -2.49191e-20
ExecutionTime = 15.96 s  ClockTime = 13 s

Time = 0.009

Courant Number mean: 0.0904653 max: 0.604262
DILUPBiCGStab:  Solving for Ux, Initial residual = 0.00841019, Final residual = 2.58849e-06, No Iterations 5
DILUPBiCGStab:  Solving for Uy, Initial residual = 0.0187777, Final residual = 6.28979e-06, No Iterations 5
DILUPBiCGStab:  Solving for Uz, Initial residual = 0.0354074, Final residual = 2.01683e-05, No Iterations 5
linear solve U 212736
[OGL LOG] init_host_sparsity_pattern : 123 ms
[OGL LOG] matrix not stored update host matrix
[OGL LOG] update_host_mtx : 60 ms
[OGL LOG] matrix is not yet sorted, sorting host matrix
[OGL LOG] sort_host_mtx_sparsity_pattern : 53 ms
[OGL LOG] sort_host_mtx : 33 ms
[OGL LOG] init_preconditioner : 0 ms
[OGL LOG] solve : 130 ms
nonehipGKOIR:  Solving for p, Initial residual = 0.0383448, Final residual = 8.20425e-06, No Iterations 2
linear solve p 413894
time step continuity errors : sum local = 3.49411e-09, global = 1.34337e-20, cumulative = -1.14854e-20
[OGL LOG] init_host_sparsity_pattern : 124 ms
[OGL LOG] matrix not stored update host matrix
[OGL LOG] update_host_mtx : 61 ms
[OGL LOG] matrix is not yet sorted, sorting host matrix
[OGL LOG] sort_host_mtx_sparsity_pattern : 53 ms
[OGL LOG] sort_host_mtx : 32 ms
[OGL LOG] init_preconditioner : 0 ms
[OGL LOG] solve : 132 ms
nonehipGKOIR:  Solving for p, Initial residual = 0.0323553, Final residual = 6.40461e-06, No Iterations 2
linear solve p 416047
time step continuity errors : sum local = 2.72888e-09, global = -2.14979e-20, cumulative = -3.29833e-20
ExecutionTime = 17.38 s  ClockTime = 15 s

Time = 0.01

Courant Number mean: 0.0934678 max: 0.606124
DILUPBiCGStab:  Solving for Ux, Initial residual = 0.00720628, Final residual = 2.07673e-06, No Iterations 5
DILUPBiCGStab:  Solving for Uy, Initial residual = 0.016093, Final residual = 2.52678e-06, No Iterations 5
DILUPBiCGStab:  Solving for Uz, Initial residual = 0.0306987, Final residual = 1.48061e-05, No Iterations 5
linear solve U 213443
[OGL LOG] init_host_sparsity_pattern : 121 ms
[OGL LOG] matrix not stored update host matrix
[OGL LOG] update_host_mtx : 60 ms
[OGL LOG] matrix is not yet sorted, sorting host matrix
[OGL LOG] sort_host_mtx_sparsity_pattern : 53 ms
[OGL LOG] sort_host_mtx : 31 ms
[OGL LOG] init_preconditioner : 0 ms
[OGL LOG] solve : 130 ms
nonehipGKOIR:  Solving for p, Initial residual = 0.0268398, Final residual = 5.07434e-06, No Iterations 2
linear solve p 411448
time step continuity errors : sum local = 2.15382e-09, global = -2.56449e-21, cumulative = -3.55478e-20
[OGL LOG] init_host_sparsity_pattern : 123 ms
[OGL LOG] matrix not stored update host matrix
[OGL LOG] update_host_mtx : 62 ms
[OGL LOG] matrix is not yet sorted, sorting host matrix
[OGL LOG] sort_host_mtx_sparsity_pattern : 57 ms
[OGL LOG] sort_host_mtx : 32 ms
[OGL LOG] init_preconditioner : 0 ms
[OGL LOG] solve : 134 ms
nonehipGKOIR:  Solving for p, Initial residual = 0.0230484, Final residual = 4.23778e-06, No Iterations 2
linear solve p 426016
time step continuity errors : sum local = 1.80037e-09, global = -9.22418e-21, cumulative = -4.4772e-20
ExecutionTime = 18.8 s  ClockTime = 16 s

End

