/*---------------------------------------------------------------------------*\
  =========                 |
  \\      /  F ield         | OpenFOAM: The Open Source CFD Toolbox
   \\    /   O peration     | Website:  https://openfoam.org
    \\  /    A nd           | Version:  8
     \\/     M anipulation  |
\*---------------------------------------------------------------------------*/
Build  : 8-40a5a48f630f
Exec   : icoFoam
Date   : Jul 28 2021
Time   : 11:55:00
Host   : "uc2n449.localdomain"
PID    : 1388071
I/O    : uncollated
Case   : /pfs/data5/home/kit/scc/nq7776/code/OBR/lidDrivenCavity3D/Variation_mesh/5/Variation_matrix_solver/CG_DIC_Serial/base
nProcs : 1
sigFpe : Enabling floating point exception trapping (FOAM_SIGFPE).
fileModificationChecking : Monitoring run-time modified files using timeStampMaster (fileModificationSkew 10)
allowSystemOperations : Allowing user-supplied system call operations

// * * * * * * * * * * * * * * * * * * * * * * * * * * * * * * * * * * * * * //
Create time

Create mesh for time = 0

Reading transportProperties

Reading field p

Reading field U

Reading/calculating face flux field phi


Starting time loop

Time = 0.001

Courant Number mean: 0 max: 0
nonePBiCGStab:  Solving for Ux, Initial residual = 1, Final residual = 2.34893e-07, No Iterations 3
nonePBiCGStab:  Solving for Uy, Initial residual = 0, Final residual = 0, No Iterations 0
nonePBiCGStab:  Solving for Uz, Initial residual = 0, Final residual = 0, No Iterations 0
linear solve U 0
DICPCG:  Solving for p, Initial residual = 1, Final residual = 4.31095e-05, No Iterations 12
linear solve p 0
time step continuity errors : sum local = 8.11352e-09, global = 6.40238e-22, cumulative = 6.40238e-22
DICPCG:  Solving for p, Initial residual = 0.0544923, Final residual = 4.64552e-05, No Iterations 10
linear solve p 0
time step continuity errors : sum local = 1.73774e-08, global = -2.27888e-22, cumulative = 4.1235e-22
ExecutionTime = 0.04 s  ClockTime = 0 s

Time = 0.002

Courant Number mean: 0.000593121 max: 0.00137348
nonePBiCGStab:  Solving for Ux, Initial residual = 0.290545, Final residual = 5.20343e-07, No Iterations 3
nonePBiCGStab:  Solving for Uy, Initial residual = 0.317548, Final residual = 8.88565e-08, No Iterations 3
nonePBiCGStab:  Solving for Uz, Initial residual = 0.317759, Final residual = 1.99848e-07, No Iterations 3
linear solve U 0
DICPCG:  Solving for p, Initial residual = 0.110403, Final residual = 4.24474e-05, No Iterations 9
linear solve p 0
time step continuity errors : sum local = 1.71916e-08, global = -6.51674e-21, cumulative = -6.10439e-21
DICPCG:  Solving for p, Initial residual = 0.00288506, Final residual = 5.26078e-05, No Iterations 3
linear solve p 0
time step continuity errors : sum local = 2.80746e-08, global = -1.1014e-20, cumulative = -1.71183e-20
ExecutionTime = 0.04 s  ClockTime = 0 s

Time = 0.003

Courant Number mean: 0.00113042 max: 0.00263297
nonePBiCGStab:  Solving for Ux, Initial residual = 0.161942, Final residual = 2.72972e-07, No Iterations 3
nonePBiCGStab:  Solving for Uy, Initial residual = 0.186583, Final residual = 5.50215e-08, No Iterations 3
nonePBiCGStab:  Solving for Uz, Initial residual = 0.228346, Final residual = 1.12461e-07, No Iterations 3
linear solve U 0
DICPCG:  Solving for p, Initial residual = 0.0562095, Final residual = 7.22627e-05, No Iterations 5
linear solve p 0
time step continuity errors : sum local = 5.56989e-08, global = 2.47203e-21, cumulative = -1.46463e-20
DICPCG:  Solving for p, Initial residual = 0.00151492, Final residual = 5.76122e-05, No Iterations 3
linear solve p 0
time step continuity errors : sum local = 4.59975e-08, global = 7.57408e-21, cumulative = -7.07224e-21
ExecutionTime = 0.04 s  ClockTime = 0 s

Time = 0.004

Courant Number mean: 0.00161821 max: 0.0037912
nonePBiCGStab:  Solving for Ux, Initial residual = 0.108871, Final residual = 1.69529e-07, No Iterations 3
nonePBiCGStab:  Solving for Uy, Initial residual = 0.1291, Final residual = 8.08528e-07, No Iterations 2
nonePBiCGStab:  Solving for Uz, Initial residual = 0.177189, Final residual = 1.21625e-07, No Iterations 3
linear solve U 0
DICPCG:  Solving for p, Initial residual = 0.034665, Final residual = 3.88796e-05, No Iterations 9
linear solve p 0
time step continuity errors : sum local = 2.02378e-08, global = 4.85555e-22, cumulative = -6.58668e-21
DICPCG:  Solving for p, Initial residual = 0.00100855, Final residual = 2.56252e-05, No Iterations 3
linear solve p 0
time step continuity errors : sum local = 1.88189e-08, global = -3.19604e-21, cumulative = -9.78273e-21
ExecutionTime = 0.04 s  ClockTime = 0 s

Time = 0.005

Courant Number mean: 0.00206191 max: 0.00485793
nonePBiCGStab:  Solving for Ux, Initial residual = 0.0800467, Final residual = 1.13828e-07, No Iterations 3
nonePBiCGStab:  Solving for Uy, Initial residual = 0.0967228, Final residual = 5.81219e-07, No Iterations 2
nonePBiCGStab:  Solving for Uz, Initial residual = 0.142992, Final residual = 9.94694e-08, No Iterations 3
linear solve U 0
DICPCG:  Solving for p, Initial residual = 0.0236305, Final residual = 5.95615e-05, No Iterations 5
linear solve p 0
time step continuity errors : sum local = 5.43273e-08, global = 2.71729e-21, cumulative = -7.06544e-21
DICPCG:  Solving for p, Initial residual = 0.000760883, Final residual = 3.99909e-05, No Iterations 3
linear solve p 0
time step continuity errors : sum local = 3.99019e-08, global = 1.3292e-20, cumulative = 6.22652e-21
ExecutionTime = 0.04 s  ClockTime = 0 s

Time = 0.006

Courant Number mean: 0.00246619 max: 0.00584192
nonePBiCGStab:  Solving for Ux, Initial residual = 0.0620548, Final residual = 8.00155e-08, No Iterations 3
nonePBiCGStab:  Solving for Uy, Initial residual = 0.0759636, Final residual = 4.33807e-07, No Iterations 2
nonePBiCGStab:  Solving for Uz, Initial residual = 0.118924, Final residual = 6.96321e-08, No Iterations 3
linear solve U 0
DICPCG:  Solving for p, Initial residual = 0.017246, Final residual = 2.02539e-05, No Iterations 9
linear solve p 0
time step continuity errors : sum local = 1.14541e-08, global = -1.78688e-20, cumulative = -1.16422e-20
DICPCG:  Solving for p, Initial residual = 0.000607806, Final residual = 9.25629e-05, No Iterations 2
linear solve p 0
time step continuity errors : sum local = 5.83964e-08, global = -1.13278e-20, cumulative = -2.29701e-20
ExecutionTime = 0.05 s  ClockTime = 0 s

Time = 0.007

Courant Number mean: 0.00283513 max: 0.00675066
nonePBiCGStab:  Solving for Ux, Initial residual = 0.0497625, Final residual = 9.31913e-07, No Iterations 2
nonePBiCGStab:  Solving for Uy, Initial residual = 0.0616597, Final residual = 3.31602e-07, No Iterations 2
nonePBiCGStab:  Solving for Uz, Initial residual = 0.100836, Final residual = 8.83961e-07, No Iterations 2
linear solve U 0
DICPCG:  Solving for p, Initial residual = 0.0133283, Final residual = 8.88975e-05, No Iterations 4
linear solve p 0
time step continuity errors : sum local = 7.6302e-08, global = 3.15652e-21, cumulative = -1.98135e-20
DICPCG:  Solving for p, Initial residual = 0.000499294, Final residual = 8.30791e-05, No Iterations 2
linear solve p 0
time step continuity errors : sum local = 7.0499e-08, global = 1.2698e-20, cumulative = -7.11549e-21
ExecutionTime = 0.05 s  ClockTime = 0 s

Time = 0.008

Courant Number mean: 0.00317232 max: 0.00759078
nonePBiCGStab:  Solving for Ux, Initial residual = 0.0409163, Final residual = 7.07917e-07, No Iterations 2
nonePBiCGStab:  Solving for Uy, Initial residual = 0.0511937, Final residual = 2.59085e-07, No Iterations 2
nonePBiCGStab:  Solving for Uz, Initial residual = 0.0878288, Final residual = 7.28812e-07, No Iterations 2
linear solve U 0
DICPCG:  Solving for p, Initial residual = 0.0106153, Final residual = 7.56665e-05, No Iterations 8
linear solve p 0
time step continuity errors : sum local = 4.54168e-08, global = 1.31555e-20, cumulative = 6.04e-21
DICPCG:  Solving for p, Initial residual = 0.000458053, Final residual = 6.52055e-05, No Iterations 2
linear solve p 0
time step continuity errors : sum local = 4.44224e-08, global = 8.37934e-22, cumulative = 6.87793e-21
ExecutionTime = 0.05 s  ClockTime = 0 s

Time = 0.009

Courant Number mean: 0.00348091 max: 0.00836824
nonePBiCGStab:  Solving for Ux, Initial residual = 0.0342282, Final residual = 5.43636e-07, No Iterations 2
nonePBiCGStab:  Solving for Uy, Initial residual = 0.0433023, Final residual = 2.04931e-07, No Iterations 2
nonePBiCGStab:  Solving for Uz, Initial residual = 0.0769706, Final residual = 6.5746e-07, No Iterations 2
linear solve U 0
DICPCG:  Solving for p, Initial residual = 0.00874656, Final residual = 6.86317e-05, No Iterations 4
linear solve p 0
time step continuity errors : sum local = 6.42577e-08, global = -2.33629e-20, cumulative = -1.6485e-20
DICPCG:  Solving for p, Initial residual = 0.000401788, Final residual = 6.62259e-05, No Iterations 2
linear solve p 0
time step continuity errors : sum local = 6.00846e-08, global = -1.14068e-20, cumulative = -2.78918e-20
ExecutionTime = 0.05 s  ClockTime = 0 s

Time = 0.01

Courant Number mean: 0.00376372 max: 0.00908819
nonePBiCGStab:  Solving for Ux, Initial residual = 0.0290597, Final residual = 4.21024e-07, No Iterations 2
nonePBiCGStab:  Solving for Uy, Initial residual = 0.0371093, Final residual = 1.64461e-07, No Iterations 2
nonePBiCGStab:  Solving for Uz, Initial residual = 0.0688834, Final residual = 5.38089e-07, No Iterations 2
linear solve U 0
DICPCG:  Solving for p, Initial residual = 0.00734006, Final residual = 5.8379e-05, No Iterations 8
linear solve p 0
time step continuity errors : sum local = 3.6103e-08, global = -2.59755e-20, cumulative = -5.38673e-20
DICPCG:  Solving for p, Initial residual = 0.00038055, Final residual = 5.41455e-05, No Iterations 2
linear solve p 0
time step continuity errors : sum local = 3.8521e-08, global = 6.24852e-21, cumulative = -4.76188e-20
ExecutionTime = 0.05 s  ClockTime = 0 s

End

