/*---------------------------------------------------------------------------*\
  =========                 |
  \\      /  F ield         | OpenFOAM: The Open Source CFD Toolbox
   \\    /   O peration     | Website:  https://openfoam.org
    \\  /    A nd           | Version:  8
     \\/     M anipulation  |
\*---------------------------------------------------------------------------*/
Build  : 8-40a5a48f630f
Exec   : icoFoam
Date   : Jul 28 2021
Time   : 13:14:44
Host   : "uc2n449.localdomain"
PID    : 1429772
I/O    : uncollated
Case   : /pfs/data5/home/kit/scc/nq7776/code/OBR/lidDrivenCavity3D/Variation_mesh/30/Variation_matrix_solver/CG_DIC_Serial/base
nProcs : 1
sigFpe : Enabling floating point exception trapping (FOAM_SIGFPE).
fileModificationChecking : Monitoring run-time modified files using timeStampMaster (fileModificationSkew 10)
allowSystemOperations : Allowing user-supplied system call operations

// * * * * * * * * * * * * * * * * * * * * * * * * * * * * * * * * * * * * * //
Create time

Create mesh for time = 0

Reading transportProperties

Reading field p

Reading field U

Reading/calculating face flux field phi


Starting time loop

Time = 0.001

Courant Number mean: 0 max: 0
nonePBiCGStab:  Solving for Ux, Initial residual = 1, Final residual = 0.00734209, No Iterations 5
nonePBiCGStab:  Solving for Uy, Initial residual = 0, Final residual = 0, No Iterations 0
nonePBiCGStab:  Solving for Uz, Initial residual = 0, Final residual = 0, No Iterations 0
linear solve U 5
DICPCG:  Solving for p, Initial residual = 1, Final residual = 8.12292e-05, No Iterations 74
linear solve p 33
time step continuity errors : sum local = 4.30591e-08, global = -1.50708e-21, cumulative = -1.50708e-21
DICPCG:  Solving for p, Initial residual = 0.531069, Final residual = 5.60431e-05, No Iterations 73
linear solve p 32
time step continuity errors : sum local = 4.66481e-08, global = 1.83689e-20, cumulative = 1.68618e-20
ExecutionTime = 0.23 s  ClockTime = 0 s

Time = 0.002

Courant Number mean: 0.015082 max: 0.148277
nonePBiCGStab:  Solving for Ux, Initial residual = 0.195864, Final residual = 0.0021003, No Iterations 5
nonePBiCGStab:  Solving for Uy, Initial residual = 0.281603, Final residual = 0.00191332, No Iterations 5
nonePBiCGStab:  Solving for Uz, Initial residual = 0.925324, Final residual = 0.010056, No Iterations 5
linear solve U 10
DICPCG:  Solving for p, Initial residual = 0.350899, Final residual = 8.1533e-05, No Iterations 70
linear solve p 31
time step continuity errors : sum local = 6.39727e-08, global = 6.23635e-21, cumulative = 2.30982e-20
DICPCG:  Solving for p, Initial residual = 0.251235, Final residual = 8.10818e-05, No Iterations 69
linear solve p 30
time step continuity errors : sum local = 6.69987e-08, global = 1.63492e-20, cumulative = 3.94474e-20
ExecutionTime = 0.31 s  ClockTime = 0 s

Time = 0.003

Courant Number mean: 0.0234541 max: 0.204101
nonePBiCGStab:  Solving for Ux, Initial residual = 0.0796762, Final residual = 0.000580125, No Iterations 5
nonePBiCGStab:  Solving for Uy, Initial residual = 0.116764, Final residual = 0.000486161, No Iterations 5
nonePBiCGStab:  Solving for Uz, Initial residual = 0.209118, Final residual = 0.00162377, No Iterations 5
linear solve U 10
DICPCG:  Solving for p, Initial residual = 0.110655, Final residual = 7.55039e-05, No Iterations 67
linear solve p 30
time step continuity errors : sum local = 5.50981e-08, global = 4.62631e-21, cumulative = 4.40737e-20
DICPCG:  Solving for p, Initial residual = 0.0812849, Final residual = 9.5496e-05, No Iterations 65
linear solve p 29
time step continuity errors : sum local = 7.09671e-08, global = -2.25352e-21, cumulative = 4.18202e-20
ExecutionTime = 0.39 s  ClockTime = 0 s

Time = 0.004

Courant Number mean: 0.0285809 max: 0.226294
nonePBiCGStab:  Solving for Ux, Initial residual = 0.0461239, Final residual = 0.00014553, No Iterations 5
nonePBiCGStab:  Solving for Uy, Initial residual = 0.0702988, Final residual = 0.000144944, No Iterations 5
nonePBiCGStab:  Solving for Uz, Initial residual = 0.113162, Final residual = 0.000653411, No Iterations 5
linear solve U 10
DICPCG:  Solving for p, Initial residual = 0.0567191, Final residual = 7.25533e-05, No Iterations 65
linear solve p 29
time step continuity errors : sum local = 5.31447e-08, global = 1.86816e-20, cumulative = 6.05018e-20
DICPCG:  Solving for p, Initial residual = 0.0415284, Final residual = 7.28387e-05, No Iterations 64
linear solve p 29
time step continuity errors : sum local = 5.42518e-08, global = -2.7447e-21, cumulative = 5.77571e-20
ExecutionTime = 0.47 s  ClockTime = 0 s

Time = 0.005

Courant Number mean: 0.0322797 max: 0.237314
nonePBiCGStab:  Solving for Ux, Initial residual = 0.0315191, Final residual = 6.67306e-05, No Iterations 5
nonePBiCGStab:  Solving for Uy, Initial residual = 0.048423, Final residual = 7.36465e-05, No Iterations 5
nonePBiCGStab:  Solving for Uz, Initial residual = 0.0820583, Final residual = 0.000332752, No Iterations 5
linear solve U 10
DICPCG:  Solving for p, Initial residual = 0.0351983, Final residual = 6.56988e-05, No Iterations 64
linear solve p 29
time step continuity errors : sum local = 4.90003e-08, global = 3.36489e-20, cumulative = 9.1406e-20
DICPCG:  Solving for p, Initial residual = 0.0259779, Final residual = 7.52376e-05, No Iterations 63
linear solve p 28
time step continuity errors : sum local = 5.65978e-08, global = -3.4128e-20, cumulative = 5.72779e-20
ExecutionTime = 0.55 s  ClockTime = 1 s

Time = 0.006

Courant Number mean: 0.0351495 max: 0.243824
nonePBiCGStab:  Solving for Ux, Initial residual = 0.0235736, Final residual = 3.63073e-05, No Iterations 5
nonePBiCGStab:  Solving for Uy, Initial residual = 0.0365758, Final residual = 4.30065e-05, No Iterations 5
nonePBiCGStab:  Solving for Uz, Initial residual = 0.0648367, Final residual = 0.000192279, No Iterations 5
linear solve U 10
DICPCG:  Solving for p, Initial residual = 0.0251393, Final residual = 9.4813e-05, No Iterations 31
linear solve p 14
time step continuity errors : sum local = 9.43016e-08, global = -2.08202e-21, cumulative = 5.51959e-20
DICPCG:  Solving for p, Initial residual = 0.0187132, Final residual = 8.42251e-05, No Iterations 28
linear solve p 13
time step continuity errors : sum local = 7.28125e-08, global = -1.7679e-20, cumulative = 3.7517e-20
ExecutionTime = 0.6 s  ClockTime = 1 s

Time = 0.007

Courant Number mean: 0.0374506 max: 0.248188
nonePBiCGStab:  Solving for Ux, Initial residual = 0.0186062, Final residual = 2.15967e-05, No Iterations 5
nonePBiCGStab:  Solving for Uy, Initial residual = 0.0291066, Final residual = 2.86241e-05, No Iterations 5
nonePBiCGStab:  Solving for Uz, Initial residual = 0.0534835, Final residual = 0.000148059, No Iterations 5
linear solve U 10
DICPCG:  Solving for p, Initial residual = 0.0196284, Final residual = 8.23532e-05, No Iterations 29
linear solve p 13
time step continuity errors : sum local = 8.21933e-08, global = 1.23635e-20, cumulative = 4.98804e-20
DICPCG:  Solving for p, Initial residual = 0.0147192, Final residual = 9.37601e-05, No Iterations 27
linear solve p 12
time step continuity errors : sum local = 8.33948e-08, global = 4.55265e-21, cumulative = 5.44331e-20
ExecutionTime = 0.66 s  ClockTime = 1 s

Time = 0.008

Courant Number mean: 0.0393462 max: 0.25136
nonePBiCGStab:  Solving for Ux, Initial residual = 0.015173, Final residual = 1.28046e-05, No Iterations 5
nonePBiCGStab:  Solving for Uy, Initial residual = 0.0239596, Final residual = 1.91265e-05, No Iterations 5
nonePBiCGStab:  Solving for Uz, Initial residual = 0.0450103, Final residual = 9.53606e-05, No Iterations 5
linear solve U 10
DICPCG:  Solving for p, Initial residual = 0.0157937, Final residual = 9.0876e-05, No Iterations 28
linear solve p 13
time step continuity errors : sum local = 9.11863e-08, global = -4.85007e-21, cumulative = 4.9583e-20
DICPCG:  Solving for p, Initial residual = 0.0119355, Final residual = 8.35939e-05, No Iterations 27
linear solve p 13
time step continuity errors : sum local = 7.89586e-08, global = 2.61485e-20, cumulative = 7.57315e-20
ExecutionTime = 0.71 s  ClockTime = 1 s

Time = 0.009

Courant Number mean: 0.0409909 max: 0.253798
nonePBiCGStab:  Solving for Ux, Initial residual = 0.0127149, Final residual = 8.53419e-06, No Iterations 5
nonePBiCGStab:  Solving for Uy, Initial residual = 0.0201978, Final residual = 1.34545e-05, No Iterations 5
nonePBiCGStab:  Solving for Uz, Initial residual = 0.038591, Final residual = 7.31143e-05, No Iterations 5
linear solve U 10
DICPCG:  Solving for p, Initial residual = 0.0131595, Final residual = 8.34565e-05, No Iterations 28
linear solve p 13
time step continuity errors : sum local = 8.65368e-08, global = -5.22613e-21, cumulative = 7.05054e-20
DICPCG:  Solving for p, Initial residual = 0.00998804, Final residual = 7.80561e-05, No Iterations 27
linear solve p 12
time step continuity errors : sum local = 7.71136e-08, global = -4.69099e-21, cumulative = 6.58144e-20
ExecutionTime = 0.75 s  ClockTime = 1 s

Time = 0.01

Courant Number mean: 0.0424258 max: 0.255737
nonePBiCGStab:  Solving for Ux, Initial residual = 0.0108339, Final residual = 6.14303e-06, No Iterations 5
nonePBiCGStab:  Solving for Uy, Initial residual = 0.0173256, Final residual = 9.99657e-06, No Iterations 5
nonePBiCGStab:  Solving for Uz, Initial residual = 0.0335337, Final residual = 5.63082e-05, No Iterations 5
linear solve U 10
DICPCG:  Solving for p, Initial residual = 0.0111371, Final residual = 9.71344e-05, No Iterations 27
linear solve p 12
time step continuity errors : sum local = 9.83575e-08, global = 3.12196e-20, cumulative = 9.7034e-20
DICPCG:  Solving for p, Initial residual = 0.00849785, Final residual = 9.61768e-05, No Iterations 26
linear solve p 12
time step continuity errors : sum local = 9.32184e-08, global = -3.62529e-20, cumulative = 6.07811e-20
ExecutionTime = 0.81 s  ClockTime = 1 s

End

