/*---------------------------------------------------------------------------*\
  =========                 |
  \\      /  F ield         | OpenFOAM: The Open Source CFD Toolbox
   \\    /   O peration     | Website:  https://openfoam.org
    \\  /    A nd           | Version:  8
     \\/     M anipulation  |
\*---------------------------------------------------------------------------*/
Build  : 8-40a5a48f630f
Exec   : icoFoam
Date   : Jul 28 2021
Time   : 12:40:23
Host   : "uc2n449.localdomain"
PID    : 1426340
I/O    : uncollated
Case   : /pfs/data5/home/kit/scc/nq7776/code/OBR/lidDrivenCavity3D/Variation_mesh/65/Variation_matrix_solver/BiCGStab_DIC_Serial/base
nProcs : 1
sigFpe : Enabling floating point exception trapping (FOAM_SIGFPE).
fileModificationChecking : Monitoring run-time modified files using timeStampMaster (fileModificationSkew 10)
allowSystemOperations : Allowing user-supplied system call operations

// * * * * * * * * * * * * * * * * * * * * * * * * * * * * * * * * * * * * * //
Create time

Create mesh for time = 0

Reading transportProperties

Reading field p

Reading field U

Reading/calculating face flux field phi


Starting time loop

Time = 0.001

Courant Number mean: 0 max: 0
nonePBiCGStab:  Solving for Ux, Initial residual = 1, Final residual = 0.053017, No Iterations 5
nonePBiCGStab:  Solving for Uy, Initial residual = 0, Final residual = 0, No Iterations 0
nonePBiCGStab:  Solving for Uz, Initial residual = 0, Final residual = 0, No Iterations 0
linear solve U 68
DICPBiCGStab:  Solving for p, Initial residual = 1, Final residual = 8.83605e-05, No Iterations 123
linear solve p 1523
time step continuity errors : sum local = 5.6188e-08, global = -7.9461e-22, cumulative = -7.9461e-22
DICPBiCGStab:  Solving for p, Initial residual = 0.674124, Final residual = 9.551e-05, No Iterations 120
linear solve p 1477
time step continuity errors : sum local = 7.1296e-08, global = 4.00341e-21, cumulative = 3.2088e-21
ExecutionTime = 4.26 s  ClockTime = 4 s

Time = 0.002

Courant Number mean: 0.0326828 max: 0.468252
nonePBiCGStab:  Solving for Ux, Initial residual = 0.151732, Final residual = 0.0210689, No Iterations 5
nonePBiCGStab:  Solving for Uy, Initial residual = 0.364934, Final residual = 0.0451228, No Iterations 5
nonePBiCGStab:  Solving for Uz, Initial residual = 0.978319, Final residual = 0.154202, No Iterations 5
linear solve U 136
DICPBiCGStab:  Solving for p, Initial residual = 0.65681, Final residual = 9.75985e-05, No Iterations 57
linear solve p 707
time step continuity errors : sum local = 1.35321e-07, global = -1.1938e-20, cumulative = -8.72917e-21
DICPBiCGStab:  Solving for p, Initial residual = 0.575338, Final residual = 9.46878e-05, No Iterations 54
linear solve p 665
time step continuity errors : sum local = 9.3327e-08, global = 4.20053e-26, cumulative = -8.72912e-21
ExecutionTime = 5.93 s  ClockTime = 6 s

Time = 0.003

Courant Number mean: 0.0502563 max: 0.556624
nonePBiCGStab:  Solving for Ux, Initial residual = 0.0550937, Final residual = 0.00591304, No Iterations 5
nonePBiCGStab:  Solving for Uy, Initial residual = 0.125123, Final residual = 0.0163459, No Iterations 5
nonePBiCGStab:  Solving for Uz, Initial residual = 0.3493, Final residual = 0.0536678, No Iterations 5
linear solve U 151
DICPBiCGStab:  Solving for p, Initial residual = 0.557492, Final residual = 5.41886e-05, No Iterations 55
linear solve p 688
time step continuity errors : sum local = 3.53172e-08, global = 1.28423e-20, cumulative = 4.11316e-21
DICPBiCGStab:  Solving for p, Initial residual = 0.492142, Final residual = 9.51624e-05, No Iterations 52
linear solve p 644
time step continuity errors : sum local = 5.4237e-08, global = 3.90284e-21, cumulative = 8.016e-21
ExecutionTime = 7.57 s  ClockTime = 7 s

Time = 0.004

Courant Number mean: 0.0602934 max: 0.575006
nonePBiCGStab:  Solving for Ux, Initial residual = 0.0330945, Final residual = 0.00304205, No Iterations 5
nonePBiCGStab:  Solving for Uy, Initial residual = 0.0807673, Final residual = 0.00691726, No Iterations 5
nonePBiCGStab:  Solving for Uz, Initial residual = 0.209134, Final residual = 0.0249203, No Iterations 5
linear solve U 148
DICPBiCGStab:  Solving for p, Initial residual = 0.35297, Final residual = 6.75162e-05, No Iterations 56
linear solve p 693
time step continuity errors : sum local = 5.86281e-08, global = -1.92179e-20, cumulative = -1.12019e-20
DICPBiCGStab:  Solving for p, Initial residual = 0.29247, Final residual = 5.13088e-05, No Iterations 54
linear solve p 670
time step continuity errors : sum local = 3.66468e-08, global = 1.95248e-20, cumulative = 8.32288e-21
ExecutionTime = 9.24 s  ClockTime = 9 s

Time = 0.005

Courant Number mean: 0.068281 max: 0.585626
nonePBiCGStab:  Solving for Ux, Initial residual = 0.023578, Final residual = 0.00193961, No Iterations 5
nonePBiCGStab:  Solving for Uy, Initial residual = 0.0529635, Final residual = 0.00379669, No Iterations 5
nonePBiCGStab:  Solving for Uz, Initial residual = 0.107872, Final residual = 0.012678, No Iterations 5
linear solve U 147
DICPBiCGStab:  Solving for p, Initial residual = 0.271503, Final residual = 5.3627e-05, No Iterations 51
linear solve p 630
time step continuity errors : sum local = 3.58629e-08, global = -1.9281e-21, cumulative = 6.39478e-21
DICPBiCGStab:  Solving for p, Initial residual = 0.230644, Final residual = 6.68112e-05, No Iterations 49
linear solve p 612
time step continuity errors : sum local = 3.15823e-08, global = -3.21316e-21, cumulative = 3.18162e-21
ExecutionTime = 10.79 s  ClockTime = 11 s

Time = 0.006

Courant Number mean: 0.0745601 max: 0.592188
nonePBiCGStab:  Solving for Ux, Initial residual = 0.0176525, Final residual = 0.00110599, No Iterations 5
nonePBiCGStab:  Solving for Uy, Initial residual = 0.0397067, Final residual = 0.00184759, No Iterations 5
nonePBiCGStab:  Solving for Uz, Initial residual = 0.0888218, Final residual = 0.00940143, No Iterations 5
linear solve U 147
DICPBiCGStab:  Solving for p, Initial residual = 0.176846, Final residual = 9.83251e-05, No Iterations 51
linear solve p 633
time step continuity errors : sum local = 7.22645e-08, global = 6.70259e-21, cumulative = 9.88421e-21
DICPBiCGStab:  Solving for p, Initial residual = 0.146784, Final residual = 8.76005e-05, No Iterations 49
linear solve p 607
time step continuity errors : sum local = 5.20349e-08, global = 1.21898e-20, cumulative = 2.2074e-20
ExecutionTime = 12.34 s  ClockTime = 12 s

Time = 0.007

Courant Number mean: 0.0797729 max: 0.596671
nonePBiCGStab:  Solving for Ux, Initial residual = 0.0139092, Final residual = 0.000746504, No Iterations 5
nonePBiCGStab:  Solving for Uy, Initial residual = 0.0313525, Final residual = 0.00143114, No Iterations 5
nonePBiCGStab:  Solving for Uz, Initial residual = 0.0673752, Final residual = 0.00502774, No Iterations 5
linear solve U 148
DICPBiCGStab:  Solving for p, Initial residual = 0.129271, Final residual = 9.75385e-05, No Iterations 47
linear solve p 583
time step continuity errors : sum local = 6.16999e-08, global = 2.23199e-20, cumulative = 4.43938e-20
DICPBiCGStab:  Solving for p, Initial residual = 0.108538, Final residual = 7.76662e-05, No Iterations 44
linear solve p 551
time step continuity errors : sum local = 3.62218e-08, global = -5.72731e-21, cumulative = 3.86665e-20
ExecutionTime = 13.79 s  ClockTime = 14 s

Time = 0.008

Courant Number mean: 0.0841424 max: 0.600048
nonePBiCGStab:  Solving for Ux, Initial residual = 0.0113839, Final residual = 0.00051221, No Iterations 5
nonePBiCGStab:  Solving for Uy, Initial residual = 0.0253588, Final residual = 0.000848907, No Iterations 5
nonePBiCGStab:  Solving for Uz, Initial residual = 0.0581355, Final residual = 0.00480732, No Iterations 5
linear solve U 148
DICPBiCGStab:  Solving for p, Initial residual = 0.0882877, Final residual = 9.55067e-05, No Iterations 48
linear solve p 601
time step continuity errors : sum local = 7.75256e-08, global = -1.04627e-20, cumulative = 2.82039e-20
DICPBiCGStab:  Solving for p, Initial residual = 0.0739255, Final residual = 8.81399e-05, No Iterations 47
linear solve p 584
time step continuity errors : sum local = 5.31042e-08, global = 1.399e-20, cumulative = 4.21939e-20
ExecutionTime = 15.28 s  ClockTime = 15 s

Time = 0.009

Courant Number mean: 0.0878957 max: 0.602631
nonePBiCGStab:  Solving for Ux, Initial residual = 0.00946647, Final residual = 0.000459105, No Iterations 5
nonePBiCGStab:  Solving for Uy, Initial residual = 0.0214995, Final residual = 0.00070171, No Iterations 5
nonePBiCGStab:  Solving for Uz, Initial residual = 0.0494485, Final residual = 0.00359991, No Iterations 5
linear solve U 149
DICPBiCGStab:  Solving for p, Initial residual = 0.0652413, Final residual = 9.0549e-05, No Iterations 47
linear solve p 582
time step continuity errors : sum local = 7.01981e-08, global = -2.27854e-21, cumulative = 3.99153e-20
DICPBiCGStab:  Solving for p, Initial residual = 0.0552593, Final residual = 7.1638e-05, No Iterations 44
linear solve p 553
time step continuity errors : sum local = 3.60026e-08, global = -2.95535e-21, cumulative = 3.696e-20
ExecutionTime = 16.72 s  ClockTime = 17 s

Time = 0.01

Courant Number mean: 0.091159 max: 0.604749
nonePBiCGStab:  Solving for Ux, Initial residual = 0.00813281, Final residual = 0.000366535, No Iterations 5
nonePBiCGStab:  Solving for Uy, Initial residual = 0.0180916, Final residual = 0.000553845, No Iterations 5
nonePBiCGStab:  Solving for Uz, Initial residual = 0.0450883, Final residual = 0.00406958, No Iterations 5
linear solve U 148
DICPBiCGStab:  Solving for p, Initial residual = 0.0491891, Final residual = 9.60464e-05, No Iterations 88
linear solve p 1086
time step continuity errors : sum local = 8.23501e-08, global = 1.76186e-21, cumulative = 3.87218e-20
DICPBiCGStab:  Solving for p, Initial residual = 0.0418664, Final residual = 9.94823e-05, No Iterations 46
linear solve p 575
time step continuity errors : sum local = 4.82824e-08, global = -8.57939e-21, cumulative = 3.01424e-20
ExecutionTime = 18.7 s  ClockTime = 19 s

End

