/*---------------------------------------------------------------------------*\
  =========                 |
  \\      /  F ield         | OpenFOAM: The Open Source CFD Toolbox
   \\    /   O peration     | Website:  https://openfoam.org
    \\  /    A nd           | Version:  8
     \\/     M anipulation  |
\*---------------------------------------------------------------------------*/
Build  : 8-40a5a48f630f
Exec   : icoFoam
Date   : Jul 28 2021
Time   : 12:00:21
Host   : "uc2n397.localdomain"
PID    : 265117
I/O    : uncollated
Case   : /pfs/data5/home/kit/scc/nq7776/code/OBR/lidDrivenCavity3D/Variation_mesh/40/Variation_matrix_solver/BiCGStab_BJ_OMP/base
nProcs : 1
sigFpe : Enabling floating point exception trapping (FOAM_SIGFPE).
fileModificationChecking : Monitoring run-time modified files using timeStampMaster (fileModificationSkew 10)
allowSystemOperations : Allowing user-supplied system call operations

// * * * * * * * * * * * * * * * * * * * * * * * * * * * * * * * * * * * * * //
Create time

Create mesh for time = 0

Reading transportProperties

Reading field p

Reading field U

Reading/calculating face flux field phi


Starting time loop

Time = 0.001

Courant Number mean: 0 max: 0
nonePBiCGStab:  Solving for Ux, Initial residual = 1, Final residual = 0.0197517, No Iterations 5
nonePBiCGStab:  Solving for Uy, Initial residual = 0, Final residual = 0, No Iterations 0
nonePBiCGStab:  Solving for Uz, Initial residual = 0, Final residual = 0, No Iterations 0
linear solve U 14
[OGL LOG] init_host_sparsity_pattern : 18 ms
[OGL LOG] matrix not stored update host matrix
[OGL LOG] update_host_mtx : 9 ms
[OGL LOG] matrix is not yet sorted, compute sorting idxs
[OGL LOG] compute_sort : 483 ms
[OGL LOG] matrix is not yet sorted, sorting host matrix
[OGL LOG] sort_host_mtx_sparsity_pattern : 12 ms
[OGL LOG] sort_host_mtx : 7 ms
[OGL LOG] init_preconditioner : 5 ms
[OGL LOG] solve : 697 ms
BJompGKOBiCGStab:  Solving for p, Initial residual = 1, Final residual = 8.62669e-05, No Iterations 202
linear solve p 1247
time step continuity errors : sum local = 3.48439e-07, global = -2.36218e-20, cumulative = -2.36218e-20
[OGL LOG] init_host_sparsity_pattern : 18 ms
[OGL LOG] matrix not stored update host matrix
[OGL LOG] update_host_mtx : 9 ms
[OGL LOG] matrix is not yet sorted, sorting host matrix
[OGL LOG] sort_host_mtx_sparsity_pattern : 13 ms
[OGL LOG] sort_host_mtx : 6 ms
[OGL LOG] init_preconditioner : 0 ms
[OGL LOG] solve : 686 ms
BJompGKOBiCGStab:  Solving for p, Initial residual = 0.598907, Final residual = 7.79611e-05, No Iterations 203
linear solve p 743
time step continuity errors : sum local = 1.25597e-05, global = 8.26043e-22, cumulative = -2.27958e-20
ExecutionTime = 6.49 s  ClockTime = 3 s

Time = 0.002

Courant Number mean: 0.0210341 max: 0.237022
nonePBiCGStab:  Solving for Ux, Initial residual = 0.177459, Final residual = 0.00679144, No Iterations 5
nonePBiCGStab:  Solving for Uy, Initial residual = 0.294498, Final residual = 0.00848209, No Iterations 5
nonePBiCGStab:  Solving for Uz, Initial residual = 0.836038, Final residual = 0.040731, No Iterations 5
linear solve U 27
[OGL LOG] init_host_sparsity_pattern : 17 ms
[OGL LOG] matrix not stored update host matrix
[OGL LOG] update_host_mtx : 9 ms
[OGL LOG] matrix is not yet sorted, sorting host matrix
[OGL LOG] sort_host_mtx_sparsity_pattern : 14 ms
[OGL LOG] sort_host_mtx : 6 ms
[OGL LOG] init_preconditioner : 0 ms
[OGL LOG] solve : 695 ms
BJompGKOBiCGStab:  Solving for p, Initial residual = 0.465336, Final residual = 8.47889e-05, No Iterations 204
linear solve p 753
time step continuity errors : sum local = 4.94292e-07, global = -1.5838e-20, cumulative = -3.86338e-20
[OGL LOG] init_host_sparsity_pattern : 17 ms
[OGL LOG] matrix not stored update host matrix
[OGL LOG] update_host_mtx : 9 ms
[OGL LOG] matrix is not yet sorted, sorting host matrix
[OGL LOG] sort_host_mtx_sparsity_pattern : 13 ms
[OGL LOG] sort_host_mtx : 6 ms
[OGL LOG] init_preconditioner : 0 ms
[OGL LOG] solve : 741 ms
BJompGKOBiCGStab:  Solving for p, Initial residual = 0.363492, Final residual = 1.98931e-05, No Iterations 218
linear solve p 795
time step continuity errors : sum local = 2.82725e-06, global = -1.91562e-20, cumulative = -5.779e-20
ExecutionTime = 12.43 s  ClockTime = 4 s

Time = 0.003

Courant Number mean: 0.032099 max: 0.30588
nonePBiCGStab:  Solving for Ux, Initial residual = 0.0656336, Final residual = 0.00161862, No Iterations 5
nonePBiCGStab:  Solving for Uy, Initial residual = 0.108236, Final residual = 0.00181954, No Iterations 5
nonePBiCGStab:  Solving for Uz, Initial residual = 0.200722, Final residual = 0.00945703, No Iterations 5
linear solve U 27
[OGL LOG] init_host_sparsity_pattern : 18 ms
[OGL LOG] matrix not stored update host matrix
[OGL LOG] update_host_mtx : 9 ms
[OGL LOG] matrix is not yet sorted, sorting host matrix
[OGL LOG] sort_host_mtx_sparsity_pattern : 13 ms
[OGL LOG] sort_host_mtx : 6 ms
[OGL LOG] init_preconditioner : 0 ms
[OGL LOG] solve : 613 ms
BJompGKOBiCGStab:  Solving for p, Initial residual = 0.169213, Final residual = 9.89676e-05, No Iterations 180
linear solve p 671
time step continuity errors : sum local = 5.51622e-07, global = 2.29323e-20, cumulative = -3.48577e-20
[OGL LOG] init_host_sparsity_pattern : 18 ms
[OGL LOG] matrix not stored update host matrix
[OGL LOG] update_host_mtx : 9 ms
[OGL LOG] matrix is not yet sorted, sorting host matrix
[OGL LOG] sort_host_mtx_sparsity_pattern : 13 ms
[OGL LOG] sort_host_mtx : 6 ms
[OGL LOG] init_preconditioner : 0 ms
[OGL LOG] solve : 615 ms
BJompGKOBiCGStab:  Solving for p, Initial residual = 0.131147, Final residual = 9.90084e-05, No Iterations 179
linear solve p 670
time step continuity errors : sum local = 8.20854e-07, global = 5.43813e-21, cumulative = -2.94196e-20
ExecutionTime = 17.55 s  ClockTime = 6 s

Time = 0.004

Courant Number mean: 0.0386654 max: 0.327537
nonePBiCGStab:  Solving for Ux, Initial residual = 0.0386712, Final residual = 0.000775812, No Iterations 5
nonePBiCGStab:  Solving for Uy, Initial residual = 0.0676203, Final residual = 0.000857991, No Iterations 5
nonePBiCGStab:  Solving for Uz, Initial residual = 0.137528, Final residual = 0.00523337, No Iterations 5
linear solve U 27
[OGL LOG] init_host_sparsity_pattern : 17 ms
[OGL LOG] matrix not stored update host matrix
[OGL LOG] update_host_mtx : 9 ms
[OGL LOG] matrix is not yet sorted, sorting host matrix
[OGL LOG] sort_host_mtx_sparsity_pattern : 13 ms
[OGL LOG] sort_host_mtx : 6 ms
[OGL LOG] init_preconditioner : 0 ms
[OGL LOG] solve : 593 ms
BJompGKOBiCGStab:  Solving for p, Initial residual = 0.0871416, Final residual = 9.96145e-05, No Iterations 175
linear solve p 648
time step continuity errors : sum local = 6.08944e-07, global = 6.81404e-21, cumulative = -2.26055e-20
[OGL LOG] init_host_sparsity_pattern : 18 ms
[OGL LOG] matrix not stored update host matrix
[OGL LOG] update_host_mtx : 9 ms
[OGL LOG] matrix is not yet sorted, sorting host matrix
[OGL LOG] sort_host_mtx_sparsity_pattern : 13 ms
[OGL LOG] sort_host_mtx : 6 ms
[OGL LOG] init_preconditioner : 0 ms
[OGL LOG] solve : 583 ms
BJompGKOBiCGStab:  Solving for p, Initial residual = 0.067228, Final residual = 2.61742e-05, No Iterations 172
linear solve p 638
time step continuity errors : sum local = 7.10033e-06, global = -1.04952e-20, cumulative = -3.31007e-20
ExecutionTime = 22.45 s  ClockTime = 7 s

Time = 0.005

Courant Number mean: 0.0434701 max: 0.337848
nonePBiCGStab:  Solving for Ux, Initial residual = 0.02692, Final residual = 0.000588203, No Iterations 5
nonePBiCGStab:  Solving for Uy, Initial residual = 0.0476671, Final residual = 0.000861425, No Iterations 5
nonePBiCGStab:  Solving for Uz, Initial residual = 0.129635, Final residual = 0.00674627, No Iterations 5
linear solve U 27
[OGL LOG] init_host_sparsity_pattern : 17 ms
[OGL LOG] matrix not stored update host matrix
[OGL LOG] update_host_mtx : 9 ms
[OGL LOG] matrix is not yet sorted, sorting host matrix
[OGL LOG] sort_host_mtx_sparsity_pattern : 13 ms
[OGL LOG] sort_host_mtx : 6 ms
[OGL LOG] init_preconditioner : 0 ms
[OGL LOG] solve : 534 ms
BJompGKOBiCGStab:  Solving for p, Initial residual = 0.0584888, Final residual = 9.16208e-05, No Iterations 158
linear solve p 589
time step continuity errors : sum local = 6.89482e-08, global = -2.20883e-20, cumulative = -5.5189e-20
[OGL LOG] init_host_sparsity_pattern : 17 ms
[OGL LOG] matrix not stored update host matrix
[OGL LOG] update_host_mtx : 9 ms
[OGL LOG] matrix is not yet sorted, sorting host matrix
[OGL LOG] sort_host_mtx_sparsity_pattern : 13 ms
[OGL LOG] sort_host_mtx : 6 ms
[OGL LOG] init_preconditioner : 0 ms
[OGL LOG] solve : 492 ms
BJompGKOBiCGStab:  Solving for p, Initial residual = 0.0413716, Final residual = 9.95059e-05, No Iterations 145
linear solve p 547
time step continuity errors : sum local = 2.25678e-07, global = 1.42583e-20, cumulative = -4.09308e-20
ExecutionTime = 26.76 s  ClockTime = 8 s

Time = 0.006

Courant Number mean: 0.0471842 max: 0.344007
nonePBiCGStab:  Solving for Ux, Initial residual = 0.0206724, Final residual = 0.000391727, No Iterations 5
nonePBiCGStab:  Solving for Uy, Initial residual = 0.035742, Final residual = 0.000625112, No Iterations 5
nonePBiCGStab:  Solving for Uz, Initial residual = 0.0824206, Final residual = 0.00332819, No Iterations 5
linear solve U 27
[OGL LOG] init_host_sparsity_pattern : 17 ms
[OGL LOG] matrix not stored update host matrix
[OGL LOG] update_host_mtx : 9 ms
[OGL LOG] matrix is not yet sorted, sorting host matrix
[OGL LOG] sort_host_mtx_sparsity_pattern : 12 ms
[OGL LOG] sort_host_mtx : 6 ms
[OGL LOG] init_preconditioner : 0 ms
[OGL LOG] solve : 481 ms
BJompGKOBiCGStab:  Solving for p, Initial residual = 0.032535, Final residual = 9.78434e-05, No Iterations 142
linear solve p 535
time step continuity errors : sum local = 2.21292e-07, global = -1.0469e-20, cumulative = -5.13998e-20
[OGL LOG] init_host_sparsity_pattern : 18 ms
[OGL LOG] matrix not stored update host matrix
[OGL LOG] update_host_mtx : 9 ms
[OGL LOG] matrix is not yet sorted, sorting host matrix
[OGL LOG] sort_host_mtx_sparsity_pattern : 13 ms
[OGL LOG] sort_host_mtx : 6 ms
[OGL LOG] init_preconditioner : 0 ms
[OGL LOG] solve : 581 ms
BJompGKOBiCGStab:  Solving for p, Initial residual = 0.025902, Final residual = 9.654e-05, No Iterations 172
linear solve p 636
time step continuity errors : sum local = 6.41809e-08, global = 1.16525e-20, cumulative = -3.97473e-20
ExecutionTime = 31.2 s  ClockTime = 9 s

Time = 0.007

Courant Number mean: 0.0502085 max: 0.348225
nonePBiCGStab:  Solving for Ux, Initial residual = 0.0162873, Final residual = 0.000150169, No Iterations 5
nonePBiCGStab:  Solving for Uy, Initial residual = 0.0286911, Final residual = 0.000209639, No Iterations 5
nonePBiCGStab:  Solving for Uz, Initial residual = 0.060913, Final residual = 0.0013865, No Iterations 5
linear solve U 27
[OGL LOG] init_host_sparsity_pattern : 17 ms
[OGL LOG] matrix not stored update host matrix
[OGL LOG] update_host_mtx : 9 ms
[OGL LOG] matrix is not yet sorted, sorting host matrix
[OGL LOG] sort_host_mtx_sparsity_pattern : 13 ms
[OGL LOG] sort_host_mtx : 6 ms
[OGL LOG] init_preconditioner : 0 ms
[OGL LOG] solve : 434 ms
BJompGKOBiCGStab:  Solving for p, Initial residual = 0.0242919, Final residual = 9.98196e-05, No Iterations 128
linear solve p 489
time step continuity errors : sum local = 1.55646e-07, global = -2.89808e-21, cumulative = -4.26453e-20
[OGL LOG] init_host_sparsity_pattern : 18 ms
[OGL LOG] matrix not stored update host matrix
[OGL LOG] update_host_mtx : 9 ms
[OGL LOG] matrix is not yet sorted, sorting host matrix
[OGL LOG] sort_host_mtx_sparsity_pattern : 13 ms
[OGL LOG] sort_host_mtx : 6 ms
[OGL LOG] init_preconditioner : 0 ms
[OGL LOG] solve : 223 ms
BJompGKOBiCGStab:  Solving for p, Initial residual = 0.0199954, Final residual = 9.14028e-05, No Iterations 66
linear solve p 278
time step continuity errors : sum local = 9.02039e-08, global = 2.19725e-20, cumulative = -2.06729e-20
ExecutionTime = 34.03 s  ClockTime = 10 s

Time = 0.008

Courant Number mean: 0.0527783 max: 0.351353
nonePBiCGStab:  Solving for Ux, Initial residual = 0.0133827, Final residual = 0.000102243, No Iterations 5
nonePBiCGStab:  Solving for Uy, Initial residual = 0.0235728, Final residual = 0.000130863, No Iterations 5
nonePBiCGStab:  Solving for Uz, Initial residual = 0.0473679, Final residual = 0.000670553, No Iterations 5
linear solve U 27
[OGL LOG] init_host_sparsity_pattern : 17 ms
[OGL LOG] matrix not stored update host matrix
[OGL LOG] update_host_mtx : 9 ms
[OGL LOG] matrix is not yet sorted, sorting host matrix
[OGL LOG] sort_host_mtx_sparsity_pattern : 13 ms
[OGL LOG] sort_host_mtx : 6 ms
[OGL LOG] init_preconditioner : 0 ms
[OGL LOG] solve : 241 ms
BJompGKOBiCGStab:  Solving for p, Initial residual = 0.0187564, Final residual = 8.41993e-05, No Iterations 71
linear solve p 295
time step continuity errors : sum local = 5.97208e-08, global = 2.3513e-20, cumulative = 2.84013e-21
[OGL LOG] init_host_sparsity_pattern : 18 ms
[OGL LOG] matrix not stored update host matrix
[OGL LOG] update_host_mtx : 9 ms
[OGL LOG] matrix is not yet sorted, sorting host matrix
[OGL LOG] sort_host_mtx_sparsity_pattern : 12 ms
[OGL LOG] sort_host_mtx : 6 ms
[OGL LOG] init_preconditioner : 0 ms
[OGL LOG] solve : 229 ms
BJompGKOBiCGStab:  Solving for p, Initial residual = 0.0156734, Final residual = 5.31044e-05, No Iterations 67
linear solve p 284
time step continuity errors : sum local = 8.8191e-08, global = -1.6906e-20, cumulative = -1.40659e-20
ExecutionTime = 36.11 s  ClockTime = 11 s

Time = 0.009

Courant Number mean: 0.0549662 max: 0.353762
nonePBiCGStab:  Solving for Ux, Initial residual = 0.0111923, Final residual = 6.84497e-05, No Iterations 5
nonePBiCGStab:  Solving for Uy, Initial residual = 0.0199742, Final residual = 0.000104543, No Iterations 5
nonePBiCGStab:  Solving for Uz, Initial residual = 0.0386143, Final residual = 0.000480034, No Iterations 5
linear solve U 27
[OGL LOG] init_host_sparsity_pattern : 17 ms
[OGL LOG] matrix not stored update host matrix
[OGL LOG] update_host_mtx : 9 ms
[OGL LOG] matrix is not yet sorted, sorting host matrix
[OGL LOG] sort_host_mtx_sparsity_pattern : 13 ms
[OGL LOG] sort_host_mtx : 6 ms
[OGL LOG] init_preconditioner : 0 ms
[OGL LOG] solve : 227 ms
BJompGKOBiCGStab:  Solving for p, Initial residual = 0.0156056, Final residual = 7.08825e-05, No Iterations 67
linear solve p 281
time step continuity errors : sum local = 7.10947e-08, global = 1.48988e-20, cumulative = 8.32863e-22
[OGL LOG] init_host_sparsity_pattern : 18 ms
[OGL LOG] matrix not stored update host matrix
[OGL LOG] update_host_mtx : 9 ms
[OGL LOG] matrix is not yet sorted, sorting host matrix
[OGL LOG] sort_host_mtx_sparsity_pattern : 13 ms
[OGL LOG] sort_host_mtx : 6 ms
[OGL LOG] init_preconditioner : 0 ms
[OGL LOG] solve : 202 ms
BJompGKOBiCGStab:  Solving for p, Initial residual = 0.0131466, Final residual = 8.6883e-05, No Iterations 59
linear solve p 257
time step continuity errors : sum local = 8.65135e-08, global = 3.85371e-21, cumulative = 4.68657e-21
ExecutionTime = 38.02 s  ClockTime = 12 s

Time = 0.01

Courant Number mean: 0.0568499 max: 0.355691
nonePBiCGStab:  Solving for Ux, Initial residual = 0.00955909, Final residual = 4.34913e-05, No Iterations 5
nonePBiCGStab:  Solving for Uy, Initial residual = 0.0171406, Final residual = 7.54368e-05, No Iterations 5
nonePBiCGStab:  Solving for Uz, Initial residual = 0.0338024, Final residual = 0.000250198, No Iterations 5
linear solve U 27
[OGL LOG] init_host_sparsity_pattern : 17 ms
[OGL LOG] matrix not stored update host matrix
[OGL LOG] update_host_mtx : 9 ms
[OGL LOG] matrix is not yet sorted, sorting host matrix
[OGL LOG] sort_host_mtx_sparsity_pattern : 13 ms
[OGL LOG] sort_host_mtx : 6 ms
[OGL LOG] init_preconditioner : 0 ms
[OGL LOG] solve : 229 ms
BJompGKOBiCGStab:  Solving for p, Initial residual = 0.0133087, Final residual = 8.64461e-05, No Iterations 67
linear solve p 283
time step continuity errors : sum local = 8.63014e-08, global = -7.75107e-21, cumulative = -3.0645e-21
[OGL LOG] init_host_sparsity_pattern : 17 ms
[OGL LOG] matrix not stored update host matrix
[OGL LOG] update_host_mtx : 9 ms
[OGL LOG] matrix is not yet sorted, sorting host matrix
[OGL LOG] sort_host_mtx_sparsity_pattern : 12 ms
[OGL LOG] sort_host_mtx : 6 ms
[OGL LOG] init_preconditioner : 0 ms
[OGL LOG] solve : 201 ms
BJompGKOBiCGStab:  Solving for p, Initial residual = 0.0113284, Final residual = 9.48998e-05, No Iterations 59
linear solve p 255
time step continuity errors : sum local = 8.58027e-08, global = 2.51861e-20, cumulative = 2.21216e-20
ExecutionTime = 39.94 s  ClockTime = 12 s

End

