/*---------------------------------------------------------------------------*\
  =========                 |
  \\      /  F ield         | OpenFOAM: The Open Source CFD Toolbox
   \\    /   O peration     | Website:  https://openfoam.org
    \\  /    A nd           | Version:  8
     \\/     M anipulation  |
\*---------------------------------------------------------------------------*/
Build  : 8-ef60d22ea792
Exec   : icoFoam
Date   : Jul 29 2021
Time   : 05:20:47
Host   : "nla-gpu2.ianm.kit.edu"
PID    : 1898576
I/O    : uncollated
Case   : /home/greole/code/OBR/lidDrivenCavity3D/Variation_mesh/100/Variation_matrix_solver/BiCGStab_NoPrecond_HIP/base
nProcs : 1
sigFpe : Enabling floating point exception trapping (FOAM_SIGFPE).
fileModificationChecking : Monitoring run-time modified files using timeStampMaster (fileModificationSkew 10)
allowSystemOperations : Allowing user-supplied system call operations

// * * * * * * * * * * * * * * * * * * * * * * * * * * * * * * * * * * * * * //
Create time

Create mesh for time = 0

Reading transportProperties

Reading field p

Reading field U

Reading/calculating face flux field phi


Starting time loop

Time = 0.001

Courant Number mean: 0 max: 0
DILUPBiCGStab:  Solving for Ux, Initial residual = 1, Final residual = 0.00717233, No Iterations 5
DILUPBiCGStab:  Solving for Uy:  solution singularity
DILUPBiCGStab:  Solving for Uz:  solution singularity
linear solve U 415220
[OGL LOG] init_host_sparsity_pattern : 458 ms
[OGL LOG] matrix not stored update host matrix
[OGL LOG] update_host_mtx : 233 ms
[OGL LOG] matrix is not yet sorted, compute sorting idxs
[OGL LOG] compute_sort : 9929 ms
[OGL LOG] matrix is not yet sorted, sorting host matrix
[OGL LOG] sort_host_mtx_sparsity_pattern : 205 ms
[OGL LOG] sort_host_mtx : 126 ms
[OGL LOG] init_preconditioner : 0 ms
[OGL LOG] solve : 706 ms
nonehipGKOBiCGStab:  Solving for p, Initial residual = 1, Final residual = 9.85779e-05, No Iterations 652
linear solve p 12159470
time step continuity errors : sum local = 0.00748339, global = 1.09721e-18, cumulative = 1.09721e-18
[OGL LOG] init_host_sparsity_pattern : 443 ms
[OGL LOG] matrix not stored update host matrix
[OGL LOG] update_host_mtx : 222 ms
[OGL LOG] matrix is not yet sorted, sorting host matrix
[OGL LOG] sort_host_mtx_sparsity_pattern : 187 ms
[OGL LOG] sort_host_mtx : 115 ms
[OGL LOG] init_preconditioner : 0 ms
[OGL LOG] solve : 258 ms
nonehipGKOBiCGStab:  Solving for p, Initial residual = 0.973595, Final residual = 9.98326e-05, No Iterations 234
linear solve p 1266705
time step continuity errors : sum local = 1.06001e-06, global = 9.78036e-21, cumulative = 1.10699e-18
ExecutionTime = 19.15 s  ClockTime = 19 s

Time = 0.002

Courant Number mean: 0.0561472 max: 0.80684
DILUPBiCGStab:  Solving for Ux, Initial residual = 0.140535, Final residual = 0.00324401, No Iterations 5
DILUPBiCGStab:  Solving for Uy, Initial residual = 0.512021, Final residual = 0.00924131, No Iterations 5
DILUPBiCGStab:  Solving for Uz, Initial residual = 0.874925, Final residual = 0.0086444, No Iterations 5
linear solve U 807671
[OGL LOG] init_host_sparsity_pattern : 442 ms
[OGL LOG] matrix not stored update host matrix
[OGL LOG] update_host_mtx : 219 ms
[OGL LOG] matrix is not yet sorted, sorting host matrix
[OGL LOG] sort_host_mtx_sparsity_pattern : 207 ms
[OGL LOG] sort_host_mtx : 117 ms
[OGL LOG] init_preconditioner : 0 ms
[OGL LOG] solve : 590 ms
nonehipGKOBiCGStab:  Solving for p, Initial residual = 0.910172, Final residual = 9.59923e-05, No Iterations 543
linear solve p 1617158
time step continuity errors : sum local = 0.212558, global = -4.06959e-17, cumulative = -3.95889e-17
[OGL LOG] init_host_sparsity_pattern : 438 ms
[OGL LOG] matrix not stored update host matrix
[OGL LOG] update_host_mtx : 222 ms
[OGL LOG] matrix is not yet sorted, sorting host matrix
[OGL LOG] sort_host_mtx_sparsity_pattern : 187 ms
[OGL LOG] sort_host_mtx : 127 ms
[OGL LOG] init_preconditioner : 0 ms
[OGL LOG] solve : 193 ms
nonehipGKOBiCGStab:  Solving for p, Initial residual = 0.988709, Final residual = 9.95628e-05, No Iterations 185
linear solve p 1208229
time step continuity errors : sum local = 2.56464e-05, global = 1.74245e-20, cumulative = -3.95715e-17
ExecutionTime = 23.83 s  ClockTime = 23 s

Time = 0.003

Courant Number mean: 0.0901504 max: 1.00514
DILUPBiCGStab:  Solving for Ux, Initial residual = 0.160876, Final residual = 0.00379698, No Iterations 5
DILUPBiCGStab:  Solving for Uy, Initial residual = 0.773421, Final residual = 0.00425112, No Iterations 5
DILUPBiCGStab:  Solving for Uz, Initial residual = 0.914777, Final residual = 0.00753868, No Iterations 5
linear solve U 822342
[OGL LOG] init_host_sparsity_pattern : 442 ms
[OGL LOG] matrix not stored update host matrix
[OGL LOG] update_host_mtx : 222 ms
[OGL LOG] matrix is not yet sorted, sorting host matrix
[OGL LOG] sort_host_mtx_sparsity_pattern : 187 ms
[OGL LOG] sort_host_mtx : 114 ms
[OGL LOG] init_preconditioner : 0 ms
[OGL LOG] solve : 227 ms
nonehipGKOBiCGStab:  Solving for p, Initial residual = 0.934493, Final residual = 9.61962e-05, No Iterations 208
linear solve p 1235491
time step continuity errors : sum local = 2.90999e-05, global = -2.85166e-19, cumulative = -3.98567e-17
[OGL LOG] init_host_sparsity_pattern : 442 ms
[OGL LOG] matrix not stored update host matrix
[OGL LOG] update_host_mtx : 224 ms
[OGL LOG] matrix is not yet sorted, sorting host matrix
[OGL LOG] sort_host_mtx_sparsity_pattern : 189 ms
[OGL LOG] sort_host_mtx : 117 ms
[OGL LOG] init_preconditioner : 0 ms
[OGL LOG] solve : 203 ms
nonehipGKOBiCGStab:  Solving for p, Initial residual = 0.791683, Final residual = 9.8969e-05, No Iterations 185
linear solve p 1216998
time step continuity errors : sum local = 0.00103451, global = 8.17858e-20, cumulative = -3.97749e-17
ExecutionTime = 27.92 s  ClockTime = 27 s

Time = 0.004

Courant Number mean: 0.144061 max: 2.00081
DILUPBiCGStab:  Solving for Ux, Initial residual = 0.179381, Final residual = 0.00354535, No Iterations 5
DILUPBiCGStab:  Solving for Uy, Initial residual = 0.775876, Final residual = 0.00752719, No Iterations 5
DILUPBiCGStab:  Solving for Uz, Initial residual = 0.892031, Final residual = 0.00868167, No Iterations 5
linear solve U 818397
[OGL LOG] init_host_sparsity_pattern : 441 ms
[OGL LOG] matrix not stored update host matrix
[OGL LOG] update_host_mtx : 224 ms
[OGL LOG] matrix is not yet sorted, sorting host matrix
[OGL LOG] sort_host_mtx_sparsity_pattern : 185 ms
[OGL LOG] sort_host_mtx : 118 ms
[OGL LOG] init_preconditioner : 0 ms
[OGL LOG] solve : 623 ms
nonehipGKOBiCGStab:  Solving for p, Initial residual = 0.969028, Final residual = 9.74951e-05, No Iterations 576
linear solve p 1634808
time step continuity errors : sum local = 0.0577753, global = -1.01461e-17, cumulative = -4.9921e-17
[OGL LOG] init_host_sparsity_pattern : 441 ms
[OGL LOG] matrix not stored update host matrix
[OGL LOG] update_host_mtx : 216 ms
[OGL LOG] matrix is not yet sorted, sorting host matrix
[OGL LOG] sort_host_mtx_sparsity_pattern : 201 ms
[OGL LOG] sort_host_mtx : 118 ms
[OGL LOG] init_preconditioner : 0 ms
[OGL LOG] solve : 619 ms
nonehipGKOBiCGStab:  Solving for p, Initial residual = 0.872694, Final residual = 8.32149e-05, No Iterations 587
linear solve p 1636065
time step continuity errors : sum local = 0.485032, global = 4.83568e-16, cumulative = 4.33647e-16
ExecutionTime = 33.37 s  ClockTime = 31 s

Time = 0.005

Courant Number mean: 0.370145 max: 6.23068
DILUPBiCGStab:  Solving for Ux, Initial residual = 0.212047, Final residual = 0.00514449, No Iterations 5
DILUPBiCGStab:  Solving for Uy, Initial residual = 0.482397, Final residual = 0.00433576, No Iterations 5
DILUPBiCGStab:  Solving for Uz, Initial residual = 0.617956, Final residual = 0.00367157, No Iterations 5
linear solve U 812231
[OGL LOG] init_host_sparsity_pattern : 441 ms
[OGL LOG] matrix not stored update host matrix
[OGL LOG] update_host_mtx : 222 ms
[OGL LOG] matrix is not yet sorted, sorting host matrix
[OGL LOG] sort_host_mtx_sparsity_pattern : 185 ms
[OGL LOG] sort_host_mtx : 121 ms
[OGL LOG] init_preconditioner : 0 ms
[OGL LOG] solve : 194 ms
nonehipGKOBiCGStab:  Solving for p, Initial residual = 0.966075, Final residual = 8.94197e-05, No Iterations 175
linear solve p 1205218
time step continuity errors : sum local = 0.0191418, global = 3.26857e-18, cumulative = 4.36915e-16
[OGL LOG] init_host_sparsity_pattern : 444 ms
[OGL LOG] matrix not stored update host matrix
[OGL LOG] update_host_mtx : 218 ms
[OGL LOG] matrix is not yet sorted, sorting host matrix
[OGL LOG] sort_host_mtx_sparsity_pattern : 182 ms
[OGL LOG] sort_host_mtx : 121 ms
[OGL LOG] init_preconditioner : 0 ms
[OGL LOG] solve : 191 ms
nonehipGKOBiCGStab:  Solving for p, Initial residual = 0.709906, Final residual = 8.65277e-05, No Iterations 175
linear solve p 1197996
time step continuity errors : sum local = 0.00978952, global = 1.00198e-17, cumulative = 4.46935e-16
ExecutionTime = 37.35 s  ClockTime = 35 s

Time = 0.006

Courant Number mean: 0.323715 max: 12.1872
DILUPBiCGStab:  Solving for Ux, Initial residual = 0.377899, Final residual = 0.00873796, No Iterations 5
DILUPBiCGStab:  Solving for Uy, Initial residual = 0.756469, Final residual = 0.00924012, No Iterations 5
DILUPBiCGStab:  Solving for Uz, Initial residual = 0.909908, Final residual = 0.0067508, No Iterations 5
linear solve U 821057
[OGL LOG] init_host_sparsity_pattern : 448 ms
[OGL LOG] matrix not stored update host matrix
[OGL LOG] update_host_mtx : 224 ms
[OGL LOG] matrix is not yet sorted, sorting host matrix
[OGL LOG] sort_host_mtx_sparsity_pattern : 193 ms
[OGL LOG] sort_host_mtx : 113 ms
[OGL LOG] init_preconditioner : 0 ms
[OGL LOG] solve : 512 ms
nonehipGKOBiCGStab:  Solving for p, Initial residual = 0.989921, Final residual = 9.90256e-05, No Iterations 480
linear solve p 1533140
time step continuity errors : sum local = 0.650125, global = -2.04049e-17, cumulative = 4.2653e-16
[OGL LOG] init_host_sparsity_pattern : 442 ms
[OGL LOG] matrix not stored update host matrix
[OGL LOG] update_host_mtx : 222 ms
[OGL LOG] matrix is not yet sorted, sorting host matrix
[OGL LOG] sort_host_mtx_sparsity_pattern : 215 ms
[OGL LOG] sort_host_mtx : 117 ms
[OGL LOG] init_preconditioner : 0 ms
[OGL LOG] solve : 252 ms
nonehipGKOBiCGStab:  Solving for p, Initial residual = 0.870738, Final residual = 9.43664e-05, No Iterations 238
linear solve p 1290729
time step continuity errors : sum local = 0.00114883, global = -9.99764e-20, cumulative = 4.2643e-16
ExecutionTime = 42.03 s  ClockTime = 39 s

Time = 0.007

Courant Number mean: 0.271536 max: 7.83697
DILUPBiCGStab:  Solving for Ux, Initial residual = 0.458108, Final residual = 0.0114872, No Iterations 5
DILUPBiCGStab:  Solving for Uy, Initial residual = 0.807815, Final residual = 0.0103495, No Iterations 5
DILUPBiCGStab:  Solving for Uz, Initial residual = 0.901623, Final residual = 0.0110543, No Iterations 5
linear solve U 812992
[OGL LOG] init_host_sparsity_pattern : 440 ms
[OGL LOG] matrix not stored update host matrix
[OGL LOG] update_host_mtx : 223 ms
[OGL LOG] matrix is not yet sorted, sorting host matrix
[OGL LOG] sort_host_mtx_sparsity_pattern : 198 ms
[OGL LOG] sort_host_mtx : 119 ms
[OGL LOG] init_preconditioner : 0 ms
[OGL LOG] solve : 588 ms
nonehipGKOBiCGStab:  Solving for p, Initial residual = 0.958788, Final residual = 7.80041e-05, No Iterations 551
linear solve p 1610484
time step continuity errors : sum local = 5.9216, global = 1.64395e-16, cumulative = 5.90825e-16
[OGL LOG] init_host_sparsity_pattern : 446 ms
[OGL LOG] matrix not stored update host matrix
[OGL LOG] update_host_mtx : 222 ms
[OGL LOG] matrix is not yet sorted, sorting host matrix
[OGL LOG] sort_host_mtx_sparsity_pattern : 183 ms
[OGL LOG] sort_host_mtx : 116 ms
[OGL LOG] init_preconditioner : 0 ms
[OGL LOG] solve : 217 ms
nonehipGKOBiCGStab:  Solving for p, Initial residual = 0.949642, Final residual = 5.65268e-05, No Iterations 200
linear solve p 1225330
time step continuity errors : sum local = 0.0578423, global = -4.44555e-18, cumulative = 5.86379e-16
ExecutionTime = 46.73 s  ClockTime = 43 s

Time = 0.008

Courant Number mean: 0.853246 max: 120.825
DILUPBiCGStab:  Solving for Ux, Initial residual = 0.629451, Final residual = 0.122128, No Iterations 5
DILUPBiCGStab:  Solving for Uy, Initial residual = 0.809325, Final residual = 0.0486065, No Iterations 5
DILUPBiCGStab:  Solving for Uz, Initial residual = 0.872287, Final residual = 0.161598, No Iterations 5
linear solve U 817045
[OGL LOG] init_host_sparsity_pattern : 454 ms
[OGL LOG] matrix not stored update host matrix
[OGL LOG] update_host_mtx : 222 ms
[OGL LOG] matrix is not yet sorted, sorting host matrix
[OGL LOG] sort_host_mtx_sparsity_pattern : 190 ms
[OGL LOG] sort_host_mtx : 116 ms
[OGL LOG] init_preconditioner : 0 ms
[OGL LOG] solve : 631 ms
nonehipGKOBiCGStab:  Solving for p, Initial residual = 0.96428, Final residual = 8.51247e-05, No Iterations 585
linear solve p 1659625
time step continuity errors : sum local = 54.8017, global = -4.74484e-15, cumulative = -4.15846e-15
[OGL LOG] init_host_sparsity_pattern : 452 ms
[OGL LOG] matrix not stored update host matrix
[OGL LOG] update_host_mtx : 220 ms
[OGL LOG] matrix is not yet sorted, sorting host matrix
[OGL LOG] sort_host_mtx_sparsity_pattern : 189 ms
[OGL LOG] sort_host_mtx : 120 ms
[OGL LOG] init_preconditioner : 0 ms
[OGL LOG] solve : 206 ms
nonehipGKOBiCGStab:  Solving for p, Initial residual = 0.97754, Final residual = 9.37627e-05, No Iterations 189
linear solve p 1229939
time step continuity errors : sum local = 0.925841, global = -3.94295e-17, cumulative = -4.19789e-15
ExecutionTime = 51.52 s  ClockTime = 48 s

Time = 0.009

Courant Number mean: 4.85428 max: 1730.63
DILUPBiCGStab:  Solving for Ux, Initial residual = 0.752458, Final residual = 0.985282, No Iterations 5
DILUPBiCGStab:  Solving for Uy, Initial residual = 0.81331, Final residual = 0.458617, No Iterations 5
DILUPBiCGStab:  Solving for Uz, Initial residual = 0.866481, Final residual = 0.342379, No Iterations 5
linear solve U 812014
[OGL LOG] init_host_sparsity_pattern : 444 ms
[OGL LOG] matrix not stored update host matrix
[OGL LOG] update_host_mtx : 225 ms
[OGL LOG] matrix is not yet sorted, sorting host matrix
[OGL LOG] sort_host_mtx_sparsity_pattern : 191 ms
[OGL LOG] sort_host_mtx : 120 ms
[OGL LOG] init_preconditioner : 0 ms
[OGL LOG] solve : 504 ms
nonehipGKOBiCGStab:  Solving for p, Initial residual = 0.94433, Final residual = 9.95189e-05, No Iterations 466
linear solve p 1527462
time step continuity errors : sum local = 19.3691, global = 8.35113e-15, cumulative = 4.15324e-15
[OGL LOG] init_host_sparsity_pattern : 442 ms
[OGL LOG] matrix not stored update host matrix
[OGL LOG] update_host_mtx : 224 ms
[OGL LOG] matrix is not yet sorted, sorting host matrix
[OGL LOG] sort_host_mtx_sparsity_pattern : 181 ms
[OGL LOG] sort_host_mtx : 122 ms
[OGL LOG] init_preconditioner : 0 ms
[OGL LOG] solve : 640 ms
nonehipGKOBiCGStab:  Solving for p, Initial residual = 0.865945, Final residual = 8.76929e-05, No Iterations 590
linear solve p 1650544
time step continuity errors : sum local = 0.00290377, global = -1.27394e-18, cumulative = 4.15197e-15
ExecutionTime = 56.79 s  ClockTime = 52 s

Time = 0.01

Courant Number mean: 5.1465 max: 43597.8
DILUPBiCGStab:  Solving for Ux, Initial residual = 0.996912, Final residual = 2.20212, No Iterations 5
DILUPBiCGStab:  Solving for Uy, Initial residual = 0.980812, Final residual = 7.41063, No Iterations 5
DILUPBiCGStab:  Solving for Uz, Initial residual = 0.991314, Final residual = 14.2269, No Iterations 5
linear solve U 820565
[OGL LOG] init_host_sparsity_pattern : 442 ms
[OGL LOG] matrix not stored update host matrix
[OGL LOG] update_host_mtx : 227 ms
[OGL LOG] matrix is not yet sorted, sorting host matrix
[OGL LOG] sort_host_mtx_sparsity_pattern : 208 ms
[OGL LOG] sort_host_mtx : 118 ms
[OGL LOG] init_preconditioner : 0 ms
[OGL LOG] solve : 606 ms
nonehipGKOBiCGStab:  Solving for p, Initial residual = 0.998461, Final residual = 7.67183e-05, No Iterations 563
linear solve p 1646121
time step continuity errors : sum local = 0.150244, global = -2.14217e-15, cumulative = 2.0098e-15
[OGL LOG] init_host_sparsity_pattern : 441 ms
[OGL LOG] matrix not stored update host matrix
[OGL LOG] update_host_mtx : 222 ms
[OGL LOG] matrix is not yet sorted, sorting host matrix
[OGL LOG] sort_host_mtx_sparsity_pattern : 188 ms
[OGL LOG] sort_host_mtx : 117 ms
[OGL LOG] init_preconditioner : 0 ms
[OGL LOG] solve : 601 ms
nonehipGKOBiCGStab:  Solving for p, Initial residual = 0.992411, Final residual = 9.88108e-05, No Iterations 559
linear solve p 1613474
time step continuity errors : sum local = 25.4563, global = -9.23999e-13, cumulative = -9.21989e-13
ExecutionTime = 62.2 s  ClockTime = 57 s

End

