/*---------------------------------------------------------------------------*\
  =========                 |
  \\      /  F ield         | OpenFOAM: The Open Source CFD Toolbox
   \\    /   O peration     | Website:  https://openfoam.org
    \\  /    A nd           | Version:  8
     \\/     M anipulation  |
\*---------------------------------------------------------------------------*/
Build  : 8-40a5a48f630f
Exec   : icoFoam
Date   : Jul 28 2021
Time   : 12:51:42
Host   : "uc2n374.localdomain"
PID    : 2733675
I/O    : uncollated
Case   : /pfs/data5/home/kit/scc/nq7776/code/OBR/lidDrivenCavity3D/Variation_mesh/65/Variation_matrix_solver/BiCGStab_NoPrecond_OMP/base
nProcs : 1
sigFpe : Enabling floating point exception trapping (FOAM_SIGFPE).
fileModificationChecking : Monitoring run-time modified files using timeStampMaster (fileModificationSkew 10)
allowSystemOperations : Allowing user-supplied system call operations

// * * * * * * * * * * * * * * * * * * * * * * * * * * * * * * * * * * * * * //
Create time

Create mesh for time = 0

Reading transportProperties

Reading field p

Reading field U

Reading/calculating face flux field phi


Starting time loop

Time = 0.001

Courant Number mean: 0 max: 0
nonePBiCGStab:  Solving for Ux, Initial residual = 1, Final residual = 0.053017, No Iterations 5
nonePBiCGStab:  Solving for Uy, Initial residual = 0, Final residual = 0, No Iterations 0
nonePBiCGStab:  Solving for Uz, Initial residual = 0, Final residual = 0, No Iterations 0
linear solve U 69
[OGL LOG] init_host_sparsity_pattern : 81 ms
[OGL LOG] matrix not stored update host matrix
[OGL LOG] update_host_mtx : 41 ms
[OGL LOG] matrix is not yet sorted, compute sorting idxs
[OGL LOG] compute_sort : 2378 ms
[OGL LOG] matrix is not yet sorted, sorting host matrix
[OGL LOG] sort_host_mtx_sparsity_pattern : 57 ms
[OGL LOG] sort_host_mtx : 34 ms
[OGL LOG] init_preconditioner : 0 ms
[OGL LOG] solve : 3160 ms
noneompGKOBiCGStab:  Solving for p, Initial residual = 1, Final residual = 9.23015e-05, No Iterations 415
linear solve p 5829
time step continuity errors : sum local = 3.91639e-07, global = -1.27655e-21, cumulative = -1.27655e-21
[OGL LOG] init_host_sparsity_pattern : 77 ms
[OGL LOG] matrix not stored update host matrix
[OGL LOG] update_host_mtx : 41 ms
[OGL LOG] matrix is not yet sorted, sorting host matrix
[OGL LOG] sort_host_mtx_sparsity_pattern : 56 ms
[OGL LOG] sort_host_mtx : 27 ms
[OGL LOG] init_preconditioner : 0 ms
[OGL LOG] solve : 2064 ms
noneompGKOBiCGStab:  Solving for p, Initial residual = 0.67463, Final residual = 9.6217e-05, No Iterations 409
linear solve p 2305
time step continuity errors : sum local = 3.24996e-07, global = -2.07633e-21, cumulative = -3.35288e-21
ExecutionTime = 168.8 s  ClockTime = 10 s

Time = 0.002

Courant Number mean: 0.0326848 max: 0.468251
nonePBiCGStab:  Solving for Ux, Initial residual = 0.152048, Final residual = 0.021161, No Iterations 5
nonePBiCGStab:  Solving for Uy, Initial residual = 0.364779, Final residual = 0.0459237, No Iterations 5
nonePBiCGStab:  Solving for Uz, Initial residual = 0.971284, Final residual = 0.159892, No Iterations 5
linear solve U 132
[OGL LOG] init_host_sparsity_pattern : 75 ms
[OGL LOG] matrix not stored update host matrix
[OGL LOG] update_host_mtx : 37 ms
[OGL LOG] matrix is not yet sorted, sorting host matrix
[OGL LOG] sort_host_mtx_sparsity_pattern : 57 ms
[OGL LOG] sort_host_mtx : 28 ms
[OGL LOG] init_preconditioner : 0 ms
[OGL LOG] solve : 1992 ms
noneompGKOBiCGStab:  Solving for p, Initial residual = 0.65634, Final residual = 9.91847e-05, No Iterations 383
linear solve p 2233
time step continuity errors : sum local = 1.78434e-06, global = -6.81677e-21, cumulative = -1.01696e-20
[OGL LOG] init_host_sparsity_pattern : 76 ms
[OGL LOG] matrix not stored update host matrix
[OGL LOG] update_host_mtx : 37 ms
[OGL LOG] matrix is not yet sorted, sorting host matrix
[OGL LOG] sort_host_mtx_sparsity_pattern : 57 ms
[OGL LOG] sort_host_mtx : 28 ms
[OGL LOG] init_preconditioner : 0 ms
[OGL LOG] solve : 2037 ms
noneompGKOBiCGStab:  Solving for p, Initial residual = 0.574683, Final residual = 8.28849e-05, No Iterations 386
linear solve p 2276
time step continuity errors : sum local = 8.09629e-07, global = -6.25696e-21, cumulative = -1.64266e-20
ExecutionTime = 298.7 s  ClockTime = 15 s

Time = 0.003

Courant Number mean: 0.0502406 max: 0.556602
nonePBiCGStab:  Solving for Ux, Initial residual = 0.0549912, Final residual = 0.00592271, No Iterations 5
nonePBiCGStab:  Solving for Uy, Initial residual = 0.126992, Final residual = 0.017167, No Iterations 5
nonePBiCGStab:  Solving for Uz, Initial residual = 0.418971, Final residual = 0.0801823, No Iterations 5
linear solve U 132
[OGL LOG] init_host_sparsity_pattern : 75 ms
[OGL LOG] matrix not stored update host matrix
[OGL LOG] update_host_mtx : 35 ms
[OGL LOG] matrix is not yet sorted, sorting host matrix
[OGL LOG] sort_host_mtx_sparsity_pattern : 58 ms
[OGL LOG] sort_host_mtx : 27 ms
[OGL LOG] init_preconditioner : 0 ms
[OGL LOG] solve : 1586 ms
noneompGKOBiCGStab:  Solving for p, Initial residual = 0.5605, Final residual = 6.58443e-05, No Iterations 315
linear solve p 1819
time step continuity errors : sum local = 5.32754e-06, global = 5.81366e-22, cumulative = -1.58452e-20
[OGL LOG] init_host_sparsity_pattern : 77 ms
[OGL LOG] matrix not stored update host matrix
[OGL LOG] update_host_mtx : 40 ms
[OGL LOG] matrix is not yet sorted, sorting host matrix
[OGL LOG] sort_host_mtx_sparsity_pattern : 56 ms
[OGL LOG] sort_host_mtx : 27 ms
[OGL LOG] init_preconditioner : 0 ms
[OGL LOG] solve : 1737 ms
noneompGKOBiCGStab:  Solving for p, Initial residual = 0.497538, Final residual = 9.63014e-05, No Iterations 329
linear solve p 1980
time step continuity errors : sum local = 4.40295e-07, global = -4.49667e-21, cumulative = -2.03419e-20
ExecutionTime = 406.05 s  ClockTime = 19 s

Time = 0.004

Courant Number mean: 0.060272 max: 0.574978
nonePBiCGStab:  Solving for Ux, Initial residual = 0.0338841, Final residual = 0.00414143, No Iterations 5
nonePBiCGStab:  Solving for Uy, Initial residual = 0.0811886, Final residual = 0.00957985, No Iterations 5
nonePBiCGStab:  Solving for Uz, Initial residual = 0.297679, Final residual = 0.0581196, No Iterations 5
linear solve U 132
[OGL LOG] init_host_sparsity_pattern : 75 ms
[OGL LOG] matrix not stored update host matrix
[OGL LOG] update_host_mtx : 40 ms
[OGL LOG] matrix is not yet sorted, sorting host matrix
[OGL LOG] sort_host_mtx_sparsity_pattern : 56 ms
[OGL LOG] sort_host_mtx : 27 ms
[OGL LOG] init_preconditioner : 0 ms
[OGL LOG] solve : 2022 ms
noneompGKOBiCGStab:  Solving for p, Initial residual = 0.376895, Final residual = 8.98252e-05, No Iterations 383
linear solve p 2259
time step continuity errors : sum local = 2.36283e-06, global = -1.48783e-20, cumulative = -3.52202e-20
[OGL LOG] init_host_sparsity_pattern : 74 ms
[OGL LOG] matrix not stored update host matrix
[OGL LOG] update_host_mtx : 38 ms
[OGL LOG] matrix is not yet sorted, sorting host matrix
[OGL LOG] sort_host_mtx_sparsity_pattern : 58 ms
[OGL LOG] sort_host_mtx : 27 ms
[OGL LOG] init_preconditioner : 0 ms
[OGL LOG] solve : 1881 ms
noneompGKOBiCGStab:  Solving for p, Initial residual = 0.314841, Final residual = 7.65082e-05, No Iterations 370
linear solve p 2118
time step continuity errors : sum local = 1.72365e-06, global = 1.62771e-20, cumulative = -1.89431e-20
ExecutionTime = 531.9 s  ClockTime = 23 s

Time = 0.005

Courant Number mean: 0.0681793 max: 0.585626
nonePBiCGStab:  Solving for Ux, Initial residual = 0.0238358, Final residual = 0.00206723, No Iterations 5
nonePBiCGStab:  Solving for Uy, Initial residual = 0.0548737, Final residual = 0.0047231, No Iterations 5
nonePBiCGStab:  Solving for Uz, Initial residual = 0.186222, Final residual = 0.0354614, No Iterations 5
linear solve U 134
[OGL LOG] init_host_sparsity_pattern : 75 ms
[OGL LOG] matrix not stored update host matrix
[OGL LOG] update_host_mtx : 40 ms
[OGL LOG] matrix is not yet sorted, sorting host matrix
[OGL LOG] sort_host_mtx_sparsity_pattern : 56 ms
[OGL LOG] sort_host_mtx : 27 ms
[OGL LOG] init_preconditioner : 0 ms
[OGL LOG] solve : 1689 ms
noneompGKOBiCGStab:  Solving for p, Initial residual = 0.300683, Final residual = 8.29893e-05, No Iterations 320
linear solve p 1928
time step continuity errors : sum local = 1.12203e-06, global = -1.76021e-20, cumulative = -3.65452e-20
[OGL LOG] init_host_sparsity_pattern : 74 ms
[OGL LOG] matrix not stored update host matrix
[OGL LOG] update_host_mtx : 40 ms
[OGL LOG] matrix is not yet sorted, sorting host matrix
[OGL LOG] sort_host_mtx_sparsity_pattern : 56 ms
[OGL LOG] sort_host_mtx : 27 ms
[OGL LOG] init_preconditioner : 0 ms
[OGL LOG] solve : 1678 ms
noneompGKOBiCGStab:  Solving for p, Initial residual = 0.254808, Final residual = 8.36888e-05, No Iterations 318
linear solve p 1914
time step continuity errors : sum local = 1.1006e-05, global = -1.08467e-21, cumulative = -3.76298e-20
ExecutionTime = 640.69 s  ClockTime = 28 s

Time = 0.006

Courant Number mean: 0.0744253 max: 0.592192
nonePBiCGStab:  Solving for Ux, Initial residual = 0.0183506, Final residual = 0.00166677, No Iterations 5
nonePBiCGStab:  Solving for Uy, Initial residual = 0.0404961, Final residual = 0.00318382, No Iterations 5
nonePBiCGStab:  Solving for Uz, Initial residual = 0.154105, Final residual = 0.0340263, No Iterations 5
linear solve U 132
[OGL LOG] init_host_sparsity_pattern : 75 ms
[OGL LOG] matrix not stored update host matrix
[OGL LOG] update_host_mtx : 40 ms
[OGL LOG] matrix is not yet sorted, sorting host matrix
[OGL LOG] sort_host_mtx_sparsity_pattern : 55 ms
[OGL LOG] sort_host_mtx : 27 ms
[OGL LOG] init_preconditioner : 0 ms
[OGL LOG] solve : 1917 ms
noneompGKOBiCGStab:  Solving for p, Initial residual = 0.237465, Final residual = 9.73772e-05, No Iterations 363
linear solve p 2153
time step continuity errors : sum local = 1.23923e-07, global = -1.3363e-20, cumulative = -5.09929e-20
[OGL LOG] init_host_sparsity_pattern : 74 ms
[OGL LOG] matrix not stored update host matrix
[OGL LOG] update_host_mtx : 38 ms
[OGL LOG] matrix is not yet sorted, sorting host matrix
[OGL LOG] sort_host_mtx_sparsity_pattern : 56 ms
[OGL LOG] sort_host_mtx : 27 ms
[OGL LOG] init_preconditioner : 0 ms
[OGL LOG] solve : 1639 ms
noneompGKOBiCGStab:  Solving for p, Initial residual = 0.191086, Final residual = 3.2769e-05, No Iterations 310
linear solve p 1873
time step continuity errors : sum local = 3.84782e-05, global = -6.98676e-21, cumulative = -5.79796e-20
ExecutionTime = 755.51 s  ClockTime = 32 s

Time = 0.007

Courant Number mean: 0.0795934 max: 0.596609
nonePBiCGStab:  Solving for Ux, Initial residual = 0.0144679, Final residual = 0.00135973, No Iterations 5
nonePBiCGStab:  Solving for Uy, Initial residual = 0.0345216, Final residual = 0.00386248, No Iterations 5
nonePBiCGStab:  Solving for Uz, Initial residual = 0.154043, Final residual = 0.042036, No Iterations 5
linear solve U 134
[OGL LOG] init_host_sparsity_pattern : 75 ms
[OGL LOG] matrix not stored update host matrix
[OGL LOG] update_host_mtx : 40 ms
[OGL LOG] matrix is not yet sorted, sorting host matrix
[OGL LOG] sort_host_mtx_sparsity_pattern : 57 ms
[OGL LOG] sort_host_mtx : 27 ms
[OGL LOG] init_preconditioner : 0 ms
[OGL LOG] solve : 1666 ms
noneompGKOBiCGStab:  Solving for p, Initial residual = 0.267754, Final residual = 8.64679e-05, No Iterations 325
linear solve p 1904
time step continuity errors : sum local = 6.53198e-08, global = -1.34657e-20, cumulative = -7.14454e-20
[OGL LOG] init_host_sparsity_pattern : 78 ms
[OGL LOG] matrix not stored update host matrix
[OGL LOG] update_host_mtx : 40 ms
[OGL LOG] matrix is not yet sorted, sorting host matrix
[OGL LOG] sort_host_mtx_sparsity_pattern : 56 ms
[OGL LOG] sort_host_mtx : 27 ms
[OGL LOG] init_preconditioner : 0 ms
[OGL LOG] solve : 1771 ms
noneompGKOBiCGStab:  Solving for p, Initial residual = 0.202628, Final residual = 7.85387e-05, No Iterations 346
linear solve p 2012
time step continuity errors : sum local = 4.86444e-08, global = 4.99979e-21, cumulative = -6.64456e-20
ExecutionTime = 866.42 s  ClockTime = 36 s

Time = 0.008

Courant Number mean: 0.0838318 max: 0.599888
nonePBiCGStab:  Solving for Ux, Initial residual = 0.0121495, Final residual = 0.00106289, No Iterations 5
nonePBiCGStab:  Solving for Uy, Initial residual = 0.0271425, Final residual = 0.00239482, No Iterations 5
nonePBiCGStab:  Solving for Uz, Initial residual = 0.110759, Final residual = 0.0271861, No Iterations 5
linear solve U 132
[OGL LOG] init_host_sparsity_pattern : 75 ms
[OGL LOG] matrix not stored update host matrix
[OGL LOG] update_host_mtx : 41 ms
[OGL LOG] matrix is not yet sorted, sorting host matrix
[OGL LOG] sort_host_mtx_sparsity_pattern : 56 ms
[OGL LOG] sort_host_mtx : 27 ms
[OGL LOG] init_preconditioner : 0 ms
[OGL LOG] solve : 1841 ms
noneompGKOBiCGStab:  Solving for p, Initial residual = 0.189582, Final residual = 7.38288e-05, No Iterations 360
linear solve p 2075
time step continuity errors : sum local = 3.1499e-07, global = 2.66662e-21, cumulative = -6.37789e-20
[OGL LOG] init_host_sparsity_pattern : 74 ms
[OGL LOG] matrix not stored update host matrix
[OGL LOG] update_host_mtx : 38 ms
[OGL LOG] matrix is not yet sorted, sorting host matrix
[OGL LOG] sort_host_mtx_sparsity_pattern : 56 ms
[OGL LOG] sort_host_mtx : 27 ms
[OGL LOG] init_preconditioner : 0 ms
[OGL LOG] solve : 1746 ms
noneompGKOBiCGStab:  Solving for p, Initial residual = 0.157284, Final residual = 4.82384e-05, No Iterations 341
linear solve p 1977
time step continuity errors : sum local = 3.08628e-08, global = -1.22345e-20, cumulative = -7.60134e-20
ExecutionTime = 982.22 s  ClockTime = 40 s

Time = 0.009

Courant Number mean: 0.087525 max: 0.602498
nonePBiCGStab:  Solving for Ux, Initial residual = 0.00986686, Final residual = 0.00055866, No Iterations 5
nonePBiCGStab:  Solving for Uy, Initial residual = 0.0226643, Final residual = 0.00109899, No Iterations 5
nonePBiCGStab:  Solving for Uz, Initial residual = 0.0750052, Final residual = 0.0122488, No Iterations 5
linear solve U 135
[OGL LOG] init_host_sparsity_pattern : 75 ms
[OGL LOG] matrix not stored update host matrix
[OGL LOG] update_host_mtx : 40 ms
[OGL LOG] matrix is not yet sorted, sorting host matrix
[OGL LOG] sort_host_mtx_sparsity_pattern : 56 ms
[OGL LOG] sort_host_mtx : 27 ms
[OGL LOG] init_preconditioner : 0 ms
[OGL LOG] solve : 1524 ms
noneompGKOBiCGStab:  Solving for p, Initial residual = 0.142468, Final residual = 6.60293e-05, No Iterations 298
linear solve p 1756
time step continuity errors : sum local = 4.62841e-06, global = -2.62312e-21, cumulative = -7.86365e-20
[OGL LOG] init_host_sparsity_pattern : 76 ms
[OGL LOG] matrix not stored update host matrix
[OGL LOG] update_host_mtx : 40 ms
[OGL LOG] matrix is not yet sorted, sorting host matrix
[OGL LOG] sort_host_mtx_sparsity_pattern : 56 ms
[OGL LOG] sort_host_mtx : 27 ms
[OGL LOG] init_preconditioner : 0 ms
[OGL LOG] solve : 725 ms
noneompGKOBiCGStab:  Solving for p, Initial residual = 0.1243, Final residual = 6.31136e-05, No Iterations 141
linear solve p 961
time step continuity errors : sum local = 1.10201e-07, global = 1.01378e-20, cumulative = -6.84988e-20
ExecutionTime = 1055.35 s  ClockTime = 43 s

Time = 0.01

Courant Number mean: 0.09079 max: 0.604647
nonePBiCGStab:  Solving for Ux, Initial residual = 0.00846822, Final residual = 0.000590227, No Iterations 5
nonePBiCGStab:  Solving for Uy, Initial residual = 0.0189264, Final residual = 0.00118967, No Iterations 5
nonePBiCGStab:  Solving for Uz, Initial residual = 0.0681384, Final residual = 0.0154215, No Iterations 5
linear solve U 132
[OGL LOG] init_host_sparsity_pattern : 75 ms
[OGL LOG] matrix not stored update host matrix
[OGL LOG] update_host_mtx : 41 ms
[OGL LOG] matrix is not yet sorted, sorting host matrix
[OGL LOG] sort_host_mtx_sparsity_pattern : 56 ms
[OGL LOG] sort_host_mtx : 27 ms
[OGL LOG] init_preconditioner : 0 ms
[OGL LOG] solve : 1679 ms
noneompGKOBiCGStab:  Solving for p, Initial residual = 0.121753, Final residual = 9.99323e-05, No Iterations 329
linear solve p 1912
time step continuity errors : sum local = 7.97254e-08, global = -6.18493e-21, cumulative = -7.46837e-20
[OGL LOG] init_host_sparsity_pattern : 74 ms
[OGL LOG] matrix not stored update host matrix
[OGL LOG] update_host_mtx : 38 ms
[OGL LOG] matrix is not yet sorted, sorting host matrix
[OGL LOG] sort_host_mtx_sparsity_pattern : 56 ms
[OGL LOG] sort_host_mtx : 27 ms
[OGL LOG] init_preconditioner : 0 ms
[OGL LOG] solve : 1669 ms
noneompGKOBiCGStab:  Solving for p, Initial residual = 0.100658, Final residual = 9.92925e-05, No Iterations 326
linear solve p 1900
time step continuity errors : sum local = 6.73132e-08, global = 3.91208e-21, cumulative = -7.07716e-20
ExecutionTime = 1163.52 s  ClockTime = 48 s

End

