/*---------------------------------------------------------------------------*\
  =========                 |
  \\      /  F ield         | OpenFOAM: The Open Source CFD Toolbox
   \\    /   O peration     | Website:  https://openfoam.org
    \\  /    A nd           | Version:  8
     \\/     M anipulation  |
\*---------------------------------------------------------------------------*/
Build  : 8-ef60d22ea792
Exec   : icoFoam
Date   : Jul 29 2021
Time   : 04:13:38
Host   : "uc2n489.localdomain"
PID    : 3426526
I/O    : uncollated
Case   : /pfs/data5/home/kit/scc/nq7776/code/OBR/lidDrivenCavity3D/Variation_mesh/55/Variation_matrix_solver/CG_NoPrecond_CUDA/base
nProcs : 1
sigFpe : Enabling floating point exception trapping (FOAM_SIGFPE).
fileModificationChecking : Monitoring run-time modified files using timeStampMaster (fileModificationSkew 10)
allowSystemOperations : Allowing user-supplied system call operations

// * * * * * * * * * * * * * * * * * * * * * * * * * * * * * * * * * * * * * //
Create time

Create mesh for time = 0

Reading transportProperties

Reading field p

Reading field U

Reading/calculating face flux field phi


Starting time loop

Time = 0.001

Courant Number mean: 0 max: 0
DILUPBiCGStab:  Solving for Ux, Initial residual = 1, Final residual = 0.000272743, No Iterations 5
DILUPBiCGStab:  Solving for Uy:  solution singularity
DILUPBiCGStab:  Solving for Uz:  solution singularity
linear solve U 77462
[OGL LOG] init_host_sparsity_pattern : 43 ms
[OGL LOG] matrix not stored update host matrix
[OGL LOG] update_host_mtx : 23 ms
[OGL LOG] matrix is not yet sorted, compute sorting idxs
[OGL LOG] compute_sort : 1361 ms
[OGL LOG] matrix is not yet sorted, sorting host matrix
[OGL LOG] sort_host_mtx_sparsity_pattern : 32 ms
[OGL LOG] sort_host_mtx : 16 ms
[OGL LOG] init_preconditioner : 0 ms
[OGL LOG] solve : 133 ms
nonecudaGKOCG:  Solving for p, Initial residual = 1, Final residual = 9.38553e-05, No Iterations 429
linear solve p 2365040
time step continuity errors : sum local = 5.47076e-08, global = -1.67729e-21, cumulative = -1.67729e-21
[OGL LOG] init_host_sparsity_pattern : 45 ms
[OGL LOG] matrix not stored update host matrix
[OGL LOG] update_host_mtx : 24 ms
[OGL LOG] matrix is not yet sorted, sorting host matrix
[OGL LOG] sort_host_mtx_sparsity_pattern : 33 ms
[OGL LOG] sort_host_mtx : 18 ms
[OGL LOG] init_preconditioner : 0 ms
[OGL LOG] solve : 131 ms
nonecudaGKOCG:  Solving for p, Initial residual = 0.678586, Final residual = 9.47547e-05, No Iterations 423
linear solve p 262878
time step continuity errors : sum local = 7.66294e-08, global = 8.29702e-21, cumulative = 6.61973e-21
ExecutionTime = 3.41 s  ClockTime = 3 s

Time = 0.002

Courant Number mean: 0.0305076 max: 0.37634
DILUPBiCGStab:  Solving for Ux, Initial residual = 0.162208, Final residual = 6.90608e-05, No Iterations 5
DILUPBiCGStab:  Solving for Uy, Initial residual = 0.327328, Final residual = 0.000109949, No Iterations 5
DILUPBiCGStab:  Solving for Uz, Initial residual = 0.977076, Final residual = 0.000434773, No Iterations 5
linear solve U 145451
[OGL LOG] init_host_sparsity_pattern : 43 ms
[OGL LOG] matrix not stored update host matrix
[OGL LOG] update_host_mtx : 21 ms
[OGL LOG] matrix is not yet sorted, sorting host matrix
[OGL LOG] sort_host_mtx_sparsity_pattern : 30 ms
[OGL LOG] sort_host_mtx : 16 ms
[OGL LOG] init_preconditioner : 0 ms
[OGL LOG] solve : 132 ms
nonecudaGKOCG:  Solving for p, Initial residual = 0.580227, Final residual = 9.04341e-05, No Iterations 420
linear solve p 256128
time step continuity errors : sum local = 7.33498e-08, global = -6.14294e-21, cumulative = 4.76789e-22
[OGL LOG] init_host_sparsity_pattern : 43 ms
[OGL LOG] matrix not stored update host matrix
[OGL LOG] update_host_mtx : 21 ms
[OGL LOG] matrix is not yet sorted, sorting host matrix
[OGL LOG] sort_host_mtx_sparsity_pattern : 31 ms
[OGL LOG] sort_host_mtx : 16 ms
[OGL LOG] init_preconditioner : 0 ms
[OGL LOG] solve : 129 ms
nonecudaGKOCG:  Solving for p, Initial residual = 0.497858, Final residual = 9.3568e-05, No Iterations 418
linear solve p 253119
time step continuity errors : sum local = 7.82258e-08, global = -3.74436e-21, cumulative = -3.26757e-21
ExecutionTime = 4.17 s  ClockTime = 4 s

Time = 0.003

Courant Number mean: 0.0458491 max: 0.461219
DILUPBiCGStab:  Solving for Ux, Initial residual = 0.0523896, Final residual = 2.20661e-05, No Iterations 5
DILUPBiCGStab:  Solving for Uy, Initial residual = 0.0999326, Final residual = 3.09416e-05, No Iterations 5
DILUPBiCGStab:  Solving for Uz, Initial residual = 0.184459, Final residual = 6.16835e-05, No Iterations 5
linear solve U 145996
[OGL LOG] init_host_sparsity_pattern : 43 ms
[OGL LOG] matrix not stored update host matrix
[OGL LOG] update_host_mtx : 21 ms
[OGL LOG] matrix is not yet sorted, sorting host matrix
[OGL LOG] sort_host_mtx_sparsity_pattern : 30 ms
[OGL LOG] sort_host_mtx : 16 ms
[OGL LOG] init_preconditioner : 0 ms
[OGL LOG] solve : 127 ms
nonecudaGKOCG:  Solving for p, Initial residual = 0.391078, Final residual = 9.44841e-05, No Iterations 407
linear solve p 250929
time step continuity errors : sum local = 5.38136e-08, global = 6.93565e-21, cumulative = 3.66808e-21
[OGL LOG] init_host_sparsity_pattern : 43 ms
[OGL LOG] matrix not stored update host matrix
[OGL LOG] update_host_mtx : 21 ms
[OGL LOG] matrix is not yet sorted, sorting host matrix
[OGL LOG] sort_host_mtx_sparsity_pattern : 30 ms
[OGL LOG] sort_host_mtx : 16 ms
[OGL LOG] init_preconditioner : 0 ms
[OGL LOG] solve : 126 ms
nonecudaGKOCG:  Solving for p, Initial residual = 0.336918, Final residual = 9.42626e-05, No Iterations 405
linear solve p 248410
time step continuity errors : sum local = 5.24133e-08, global = -1.57258e-22, cumulative = 3.51083e-21
ExecutionTime = 4.9 s  ClockTime = 5 s

Time = 0.004

Courant Number mean: 0.0544851 max: 0.479439
DILUPBiCGStab:  Solving for Ux, Initial residual = 0.0312278, Final residual = 6.43421e-06, No Iterations 5
DILUPBiCGStab:  Solving for Uy, Initial residual = 0.0645981, Final residual = 1.16459e-05, No Iterations 5
DILUPBiCGStab:  Solving for Uz, Initial residual = 0.136293, Final residual = 4.34152e-05, No Iterations 5
linear solve U 144819
[OGL LOG] init_host_sparsity_pattern : 43 ms
[OGL LOG] matrix not stored update host matrix
[OGL LOG] update_host_mtx : 21 ms
[OGL LOG] matrix is not yet sorted, sorting host matrix
[OGL LOG] sort_host_mtx_sparsity_pattern : 30 ms
[OGL LOG] sort_host_mtx : 16 ms
[OGL LOG] init_preconditioner : 0 ms
[OGL LOG] solve : 124 ms
nonecudaGKOCG:  Solving for p, Initial residual = 0.194055, Final residual = 9.94408e-05, No Iterations 396
linear solve p 247746
time step continuity errors : sum local = 5.28904e-08, global = 5.15777e-21, cumulative = 8.6686e-21
[OGL LOG] init_host_sparsity_pattern : 44 ms
[OGL LOG] matrix not stored update host matrix
[OGL LOG] update_host_mtx : 22 ms
[OGL LOG] matrix is not yet sorted, sorting host matrix
[OGL LOG] sort_host_mtx_sparsity_pattern : 32 ms
[OGL LOG] sort_host_mtx : 17 ms
[OGL LOG] init_preconditioner : 0 ms
[OGL LOG] solve : 121 ms
nonecudaGKOCG:  Solving for p, Initial residual = 0.156018, Final residual = 9.52249e-05, No Iterations 394
linear solve p 249797
time step continuity errors : sum local = 5.12436e-08, global = 8.03185e-21, cumulative = 1.67004e-20
ExecutionTime = 5.64 s  ClockTime = 5 s

Time = 0.005

Courant Number mean: 0.0609396 max: 0.489044
DILUPBiCGStab:  Solving for Ux, Initial residual = 0.0220036, Final residual = 5.48017e-06, No Iterations 5
DILUPBiCGStab:  Solving for Uy, Initial residual = 0.0440294, Final residual = 7.38323e-06, No Iterations 5
DILUPBiCGStab:  Solving for Uz, Initial residual = 0.0731651, Final residual = 1.84283e-05, No Iterations 5
linear solve U 145355
[OGL LOG] init_host_sparsity_pattern : 43 ms
[OGL LOG] matrix not stored update host matrix
[OGL LOG] update_host_mtx : 21 ms
[OGL LOG] matrix is not yet sorted, sorting host matrix
[OGL LOG] sort_host_mtx_sparsity_pattern : 30 ms
[OGL LOG] sort_host_mtx : 16 ms
[OGL LOG] init_preconditioner : 0 ms
[OGL LOG] solve : 121 ms
nonecudaGKOCG:  Solving for p, Initial residual = 0.107419, Final residual = 9.35294e-05, No Iterations 382
linear solve p 243984
time step continuity errors : sum local = 4.66459e-08, global = -1.02527e-20, cumulative = 6.44771e-21
[OGL LOG] init_host_sparsity_pattern : 43 ms
[OGL LOG] matrix not stored update host matrix
[OGL LOG] update_host_mtx : 21 ms
[OGL LOG] matrix is not yet sorted, sorting host matrix
[OGL LOG] sort_host_mtx_sparsity_pattern : 31 ms
[OGL LOG] sort_host_mtx : 16 ms
[OGL LOG] init_preconditioner : 0 ms
[OGL LOG] solve : 117 ms
nonecudaGKOCG:  Solving for p, Initial residual = 0.0879628, Final residual = 9.78495e-05, No Iterations 380
linear solve p 241422
time step continuity errors : sum local = 4.87181e-08, global = 8.33406e-21, cumulative = 1.47818e-20
ExecutionTime = 6.37 s  ClockTime = 6 s

Time = 0.006

Courant Number mean: 0.0659409 max: 0.494871
DILUPBiCGStab:  Solving for Ux, Initial residual = 0.016694, Final residual = 3.35447e-06, No Iterations 5
DILUPBiCGStab:  Solving for Uy, Initial residual = 0.0337606, Final residual = 2.87273e-06, No Iterations 5
DILUPBiCGStab:  Solving for Uz, Initial residual = 0.0594813, Final residual = 1.13597e-05, No Iterations 5
linear solve U 146021
[OGL LOG] init_host_sparsity_pattern : 43 ms
[OGL LOG] matrix not stored update host matrix
[OGL LOG] update_host_mtx : 21 ms
[OGL LOG] matrix is not yet sorted, sorting host matrix
[OGL LOG] sort_host_mtx_sparsity_pattern : 30 ms
[OGL LOG] sort_host_mtx : 16 ms
[OGL LOG] init_preconditioner : 0 ms
[OGL LOG] solve : 60 ms
nonecudaGKOCG:  Solving for p, Initial residual = 0.0640247, Final residual = 9.8991e-05, No Iterations 190
linear solve p 182990
time step continuity errors : sum local = 5.94196e-08, global = -4.40476e-21, cumulative = 1.0377e-20
[OGL LOG] init_host_sparsity_pattern : 43 ms
[OGL LOG] matrix not stored update host matrix
[OGL LOG] update_host_mtx : 21 ms
[OGL LOG] matrix is not yet sorted, sorting host matrix
[OGL LOG] sort_host_mtx_sparsity_pattern : 30 ms
[OGL LOG] sort_host_mtx : 18 ms
[OGL LOG] init_preconditioner : 0 ms
[OGL LOG] solve : 57 ms
nonecudaGKOCG:  Solving for p, Initial residual = 0.0524303, Final residual = 9.75109e-05, No Iterations 179
linear solve p 182235
time step continuity errors : sum local = 5.15591e-08, global = 1.9005e-21, cumulative = 1.22775e-20
ExecutionTime = 6.98 s  ClockTime = 7 s

Time = 0.007

Courant Number mean: 0.0700482 max: 0.498905
DILUPBiCGStab:  Solving for Ux, Initial residual = 0.0133051, Final residual = 1.90374e-06, No Iterations 5
DILUPBiCGStab:  Solving for Uy, Initial residual = 0.0270336, Final residual = 2.35221e-06, No Iterations 5
DILUPBiCGStab:  Solving for Uz, Initial residual = 0.048821, Final residual = 6.98706e-06, No Iterations 5
linear solve U 144871
[OGL LOG] init_host_sparsity_pattern : 43 ms
[OGL LOG] matrix not stored update host matrix
[OGL LOG] update_host_mtx : 21 ms
[OGL LOG] matrix is not yet sorted, sorting host matrix
[OGL LOG] sort_host_mtx_sparsity_pattern : 30 ms
[OGL LOG] sort_host_mtx : 16 ms
[OGL LOG] init_preconditioner : 0 ms
[OGL LOG] solve : 56 ms
nonecudaGKOCG:  Solving for p, Initial residual = 0.0404657, Final residual = 9.56182e-05, No Iterations 176
linear solve p 179112
time step continuity errors : sum local = 4.95321e-08, global = 2.17391e-20, cumulative = 3.40166e-20
[OGL LOG] init_host_sparsity_pattern : 43 ms
[OGL LOG] matrix not stored update host matrix
[OGL LOG] update_host_mtx : 21 ms
[OGL LOG] matrix is not yet sorted, sorting host matrix
[OGL LOG] sort_host_mtx_sparsity_pattern : 30 ms
[OGL LOG] sort_host_mtx : 16 ms
[OGL LOG] init_preconditioner : 0 ms
[OGL LOG] solve : 55 ms
nonecudaGKOCG:  Solving for p, Initial residual = 0.0342451, Final residual = 9.42696e-05, No Iterations 174
linear solve p 177986
time step continuity errors : sum local = 4.77569e-08, global = 1.82793e-20, cumulative = 5.22959e-20
ExecutionTime = 7.56 s  ClockTime = 7 s

Time = 0.008

Courant Number mean: 0.0734868 max: 0.501898
DILUPBiCGStab:  Solving for Ux, Initial residual = 0.0109582, Final residual = 1.38103e-06, No Iterations 5
DILUPBiCGStab:  Solving for Uy, Initial residual = 0.0223245, Final residual = 1.49627e-06, No Iterations 5
DILUPBiCGStab:  Solving for Uz, Initial residual = 0.0409205, Final residual = 4.5951e-06, No Iterations 5
linear solve U 149910
[OGL LOG] init_host_sparsity_pattern : 44 ms
[OGL LOG] matrix not stored update host matrix
[OGL LOG] update_host_mtx : 22 ms
[OGL LOG] matrix is not yet sorted, sorting host matrix
[OGL LOG] sort_host_mtx_sparsity_pattern : 32 ms
[OGL LOG] sort_host_mtx : 17 ms
[OGL LOG] init_preconditioner : 0 ms
[OGL LOG] solve : 55 ms
nonecudaGKOCG:  Solving for p, Initial residual = 0.0278695, Final residual = 9.59186e-05, No Iterations 176
linear solve p 183164
time step continuity errors : sum local = 5.54069e-08, global = 1.06684e-21, cumulative = 5.33627e-20
[OGL LOG] init_host_sparsity_pattern : 43 ms
[OGL LOG] matrix not stored update host matrix
[OGL LOG] update_host_mtx : 21 ms
[OGL LOG] matrix is not yet sorted, sorting host matrix
[OGL LOG] sort_host_mtx_sparsity_pattern : 30 ms
[OGL LOG] sort_host_mtx : 16 ms
[OGL LOG] init_preconditioner : 0 ms
[OGL LOG] solve : 54 ms
nonecudaGKOCG:  Solving for p, Initial residual = 0.0240219, Final residual = 9.26392e-05, No Iterations 170
linear solve p 176462
time step continuity errors : sum local = 4.89801e-08, global = -5.44707e-21, cumulative = 4.79156e-20
ExecutionTime = 8.17 s  ClockTime = 8 s

Time = 0.009

Courant Number mean: 0.0764171 max: 0.50422
DILUPBiCGStab:  Solving for Ux, Initial residual = 0.0092186, Final residual = 5.86557e-07, No Iterations 5
DILUPBiCGStab:  Solving for Uy, Initial residual = 0.018927, Final residual = 1.1653e-06, No Iterations 5
DILUPBiCGStab:  Solving for Uz, Initial residual = 0.0353099, Final residual = 3.47551e-06, No Iterations 5
linear solve U 148193
[OGL LOG] init_host_sparsity_pattern : 43 ms
[OGL LOG] matrix not stored update host matrix
[OGL LOG] update_host_mtx : 21 ms
[OGL LOG] matrix is not yet sorted, sorting host matrix
[OGL LOG] sort_host_mtx_sparsity_pattern : 30 ms
[OGL LOG] sort_host_mtx : 16 ms
[OGL LOG] init_preconditioner : 0 ms
[OGL LOG] solve : 53 ms
nonecudaGKOCG:  Solving for p, Initial residual = 0.0215291, Final residual = 8.97004e-05, No Iterations 170
linear solve p 176866
time step continuity errors : sum local = 4.6723e-08, global = -2.39706e-20, cumulative = 2.3945e-20
[OGL LOG] init_host_sparsity_pattern : 43 ms
[OGL LOG] matrix not stored update host matrix
[OGL LOG] update_host_mtx : 21 ms
[OGL LOG] matrix is not yet sorted, sorting host matrix
[OGL LOG] sort_host_mtx_sparsity_pattern : 34 ms
[OGL LOG] sort_host_mtx : 17 ms
[OGL LOG] init_preconditioner : 0 ms
[OGL LOG] solve : 52 ms
nonecudaGKOCG:  Solving for p, Initial residual = 0.0189609, Final residual = 9.82027e-05, No Iterations 166
linear solve p 179895
time step continuity errors : sum local = 5.04232e-08, global = 6.39756e-21, cumulative = 3.03426e-20
ExecutionTime = 8.77 s  ClockTime = 9 s

Time = 0.01

Courant Number mean: 0.0789767 max: 0.506078
DILUPBiCGStab:  Solving for Ux, Initial residual = 0.00789645, Final residual = 4.50295e-07, No Iterations 5
DILUPBiCGStab:  Solving for Uy, Initial residual = 0.0162608, Final residual = 9.77425e-07, No Iterations 5
DILUPBiCGStab:  Solving for Uz, Initial residual = 0.0307006, Final residual = 2.53795e-06, No Iterations 5
linear solve U 145563
[OGL LOG] init_host_sparsity_pattern : 43 ms
[OGL LOG] matrix not stored update host matrix
[OGL LOG] update_host_mtx : 21 ms
[OGL LOG] matrix is not yet sorted, sorting host matrix
[OGL LOG] sort_host_mtx_sparsity_pattern : 30 ms
[OGL LOG] sort_host_mtx : 16 ms
[OGL LOG] init_preconditioner : 0 ms
[OGL LOG] solve : 53 ms
nonecudaGKOCG:  Solving for p, Initial residual = 0.01668, Final residual = 9.83509e-05, No Iterations 167
linear solve p 175622
time step continuity errors : sum local = 5.5603e-08, global = -1.45787e-20, cumulative = 1.57638e-20
[OGL LOG] init_host_sparsity_pattern : 43 ms
[OGL LOG] matrix not stored update host matrix
[OGL LOG] update_host_mtx : 21 ms
[OGL LOG] matrix is not yet sorted, sorting host matrix
[OGL LOG] sort_host_mtx_sparsity_pattern : 30 ms
[OGL LOG] sort_host_mtx : 16 ms
[OGL LOG] init_preconditioner : 0 ms
[OGL LOG] solve : 52 ms
nonecudaGKOCG:  Solving for p, Initial residual = 0.0149901, Final residual = 9.53008e-05, No Iterations 164
linear solve p 174686
time step continuity errors : sum local = 5.06361e-08, global = -5.01692e-22, cumulative = 1.52621e-20
ExecutionTime = 9.36 s  ClockTime = 9 s

End

