/*---------------------------------------------------------------------------*\
  =========                 |
  \\      /  F ield         | OpenFOAM: The Open Source CFD Toolbox
   \\    /   O peration     | Website:  https://openfoam.org
    \\  /    A nd           | Version:  8
     \\/     M anipulation  |
\*---------------------------------------------------------------------------*/
Build  : 8-ef60d22ea792
Exec   : icoFoam
Date   : Jul 28 2021
Time   : 17:55:23
Host   : "nla-gpu2.ianm.kit.edu"
PID    : 1573175
I/O    : uncollated
Case   : /home/greole/code/OBR/lidDrivenCavity3D/Variation_mesh/80/Variation_matrix_solver/BiCGStab_NoPrecond_Serial/base
nProcs : 1
sigFpe : Enabling floating point exception trapping (FOAM_SIGFPE).
fileModificationChecking : Monitoring run-time modified files using timeStampMaster (fileModificationSkew 10)
allowSystemOperations : Allowing user-supplied system call operations

// * * * * * * * * * * * * * * * * * * * * * * * * * * * * * * * * * * * * * //
Create time

Create mesh for time = 0

Reading transportProperties

Reading field p

Reading field U

Reading/calculating face flux field phi


Starting time loop

Time = 0.001

Courant Number mean: 0 max: 0
DILUPBiCGStab:  Solving for Ux, Initial residual = 1, Final residual = 0.00289442, No Iterations 5
DILUPBiCGStab:  Solving for Uy:  solution singularity
DILUPBiCGStab:  Solving for Uz:  solution singularity
linear solve U 216734
nonePBiCGStab:  Solving for p, Initial residual = 1, Final residual = 8.42237e-05, No Iterations 514
linear solve p 6315003
time step continuity errors : sum local = 9.87904e-08, global = 1.01785e-20, cumulative = 1.01785e-20
nonePBiCGStab:  Solving for p, Initial residual = 0.746206, Final residual = 9.92421e-05, No Iterations 524
linear solve p 6463839
time step continuity errors : sum local = 1.51413e-07, global = -2.59205e-23, cumulative = 1.01525e-20
ExecutionTime = 15.36 s  ClockTime = 16 s

Time = 0.002

Courant Number mean: 0.0451657 max: 0.613748
DILUPBiCGStab:  Solving for Ux, Initial residual = 0.146605, Final residual = 0.00106153, No Iterations 5
DILUPBiCGStab:  Solving for Uy, Initial residual = 0.385207, Final residual = 0.002464, No Iterations 5
DILUPBiCGStab:  Solving for Uz, Initial residual = 0.980956, Final residual = 0.00732112, No Iterations 5
linear solve U 403325
nonePBiCGStab:  Solving for p, Initial residual = 0.724526, Final residual = 4.70916e-05, No Iterations 485
linear solve p 5847064
time step continuity errors : sum local = 7.81997e-08, global = -1.12004e-20, cumulative = -1.04783e-21
nonePBiCGStab:  Solving for p, Initial residual = 0.65688, Final residual = 6.4087e-05, No Iterations 495
linear solve p 6009515
time step continuity errors : sum local = 1.18653e-07, global = 3.40258e-21, cumulative = 2.35476e-21
ExecutionTime = 27.83 s  ClockTime = 28 s

Time = 0.003

Courant Number mean: 0.0679493 max: 0.721729
DILUPBiCGStab:  Solving for Ux, Initial residual = 0.0558925, Final residual = 0.000347843, No Iterations 5
DILUPBiCGStab:  Solving for Uy, Initial residual = 0.145915, Final residual = 0.000964687, No Iterations 5
DILUPBiCGStab:  Solving for Uz, Initial residual = 0.688862, Final residual = 0.00518233, No Iterations 5
linear solve U 408299
nonePBiCGStab:  Solving for p, Initial residual = 0.706619, Final residual = 9.45663e-05, No Iterations 458
linear solve p 5536237
time step continuity errors : sum local = 1.33732e-07, global = 1.30807e-20, cumulative = 1.54355e-20
nonePBiCGStab:  Solving for p, Initial residual = 0.663776, Final residual = 7.2918e-05, No Iterations 460
linear solve p 5641757
time step continuity errors : sum local = 1.0028e-07, global = 7.74595e-21, cumulative = 2.31814e-20
ExecutionTime = 39.61 s  ClockTime = 40 s

Time = 0.004

Courant Number mean: 0.079413 max: 0.728881
DILUPBiCGStab:  Solving for Ux, Initial residual = 0.0301959, Final residual = 0.000186587, No Iterations 5
DILUPBiCGStab:  Solving for Uy, Initial residual = 0.100591, Final residual = 0.000583934, No Iterations 5
DILUPBiCGStab:  Solving for Uz, Initial residual = 0.43265, Final residual = 0.00282403, No Iterations 5
linear solve U 403283
nonePBiCGStab:  Solving for p, Initial residual = 0.531155, Final residual = 8.47857e-05, No Iterations 447
linear solve p 5460912
time step continuity errors : sum local = 7.0735e-08, global = -4.8216e-21, cumulative = 1.83598e-20
nonePBiCGStab:  Solving for p, Initial residual = 0.466162, Final residual = 9.92455e-05, No Iterations 450
linear solve p 5521193
time step continuity errors : sum local = 1.21314e-07, global = 1.36581e-21, cumulative = 1.97257e-20
ExecutionTime = 51.19 s  ClockTime = 52 s

Time = 0.005

Courant Number mean: 0.0889593 max: 0.739487
DILUPBiCGStab:  Solving for Ux, Initial residual = 0.0220724, Final residual = 0.000115642, No Iterations 5
DILUPBiCGStab:  Solving for Uy, Initial residual = 0.0539638, Final residual = 0.000211813, No Iterations 5
DILUPBiCGStab:  Solving for Uz, Initial residual = 0.244112, Final residual = 0.00167513, No Iterations 5
linear solve U 403315
nonePBiCGStab:  Solving for p, Initial residual = 0.467667, Final residual = 9.7696e-05, No Iterations 417
linear solve p 5030053
time step continuity errors : sum local = 4.6985e-08, global = 6.34679e-21, cumulative = 2.60724e-20
nonePBiCGStab:  Solving for p, Initial residual = 0.414193, Final residual = 7.09373e-05, No Iterations 406
linear solve p 4929247
time step continuity errors : sum local = 5.87499e-08, global = 1.97317e-20, cumulative = 4.58042e-20
ExecutionTime = 61.76 s  ClockTime = 62 s

Time = 0.006

Courant Number mean: 0.0960799 max: 0.745148
DILUPBiCGStab:  Solving for Ux, Initial residual = 0.0150419, Final residual = 7.05341e-05, No Iterations 5
DILUPBiCGStab:  Solving for Uy, Initial residual = 0.0423603, Final residual = 0.000173112, No Iterations 5
DILUPBiCGStab:  Solving for Uz, Initial residual = 0.17609, Final residual = 0.00109919, No Iterations 5
linear solve U 408238
nonePBiCGStab:  Solving for p, Initial residual = 0.322869, Final residual = 9.93519e-05, No Iterations 455
linear solve p 5501882
time step continuity errors : sum local = 6.47675e-08, global = -1.75894e-21, cumulative = 4.40452e-20
nonePBiCGStab:  Solving for p, Initial residual = 0.277511, Final residual = 8.31926e-05, No Iterations 473
linear solve p 5806890
time step continuity errors : sum local = 4.19745e-08, global = -3.47455e-21, cumulative = 4.05707e-20
ExecutionTime = 73.68 s  ClockTime = 74 s

Time = 0.007

Courant Number mean: 0.102052 max: 0.748898
DILUPBiCGStab:  Solving for Ux, Initial residual = 0.0121274, Final residual = 4.88998e-05, No Iterations 5
DILUPBiCGStab:  Solving for Uy, Initial residual = 0.0297863, Final residual = 8.21394e-05, No Iterations 5
DILUPBiCGStab:  Solving for Uz, Initial residual = 0.106612, Final residual = 0.00075085, No Iterations 5
linear solve U 403806
nonePBiCGStab:  Solving for p, Initial residual = 0.260907, Final residual = 9.00844e-05, No Iterations 438
linear solve p 5349525
time step continuity errors : sum local = 4.11787e-08, global = 1.6063e-20, cumulative = 5.66337e-20
nonePBiCGStab:  Solving for p, Initial residual = 0.22361, Final residual = 9.71674e-05, No Iterations 385
linear solve p 4725471
time step continuity errors : sum local = 7.80617e-08, global = 5.55399e-21, cumulative = 6.21877e-20
ExecutionTime = 84.36 s  ClockTime = 85 s

Time = 0.008

Courant Number mean: 0.107027 max: 0.752073
DILUPBiCGStab:  Solving for Ux, Initial residual = 0.0095812, Final residual = 3.51275e-05, No Iterations 5
DILUPBiCGStab:  Solving for Uy, Initial residual = 0.0246235, Final residual = 6.87526e-05, No Iterations 5
DILUPBiCGStab:  Solving for Uz, Initial residual = 0.089996, Final residual = 0.000563867, No Iterations 5
linear solve U 401952
nonePBiCGStab:  Solving for p, Initial residual = 0.184058, Final residual = 8.86488e-05, No Iterations 476
linear solve p 5735042
time step continuity errors : sum local = 3.79146e-08, global = -5.50316e-21, cumulative = 5.66845e-20
nonePBiCGStab:  Solving for p, Initial residual = 0.155491, Final residual = 9.86685e-05, No Iterations 472
linear solve p 5729523
time step continuity errors : sum local = 4.37291e-08, global = 2.19212e-20, cumulative = 7.86057e-20
ExecutionTime = 96.42 s  ClockTime = 97 s

Time = 0.009

Courant Number mean: 0.111305 max: 0.754215
DILUPBiCGStab:  Solving for Ux, Initial residual = 0.00800223, Final residual = 2.41235e-05, No Iterations 5
DILUPBiCGStab:  Solving for Uy, Initial residual = 0.0199293, Final residual = 4.33634e-05, No Iterations 5
DILUPBiCGStab:  Solving for Uz, Initial residual = 0.0649857, Final residual = 0.000366565, No Iterations 5
linear solve U 408382
nonePBiCGStab:  Solving for p, Initial residual = 0.143481, Final residual = 9.97536e-05, No Iterations 428
linear solve p 5175693
time step continuity errors : sum local = 3.90525e-08, global = -7.13686e-22, cumulative = 7.7892e-20
nonePBiCGStab:  Solving for p, Initial residual = 0.121397, Final residual = 9.85102e-05, No Iterations 364
linear solve p 4469185
time step continuity errors : sum local = 7.47184e-08, global = -1.66888e-20, cumulative = 6.12032e-20
ExecutionTime = 106.68 s  ClockTime = 107 s

Time = 0.01

Courant Number mean: 0.115017 max: 0.75619
DILUPBiCGStab:  Solving for Ux, Initial residual = 0.00684389, Final residual = 1.96942e-05, No Iterations 5
DILUPBiCGStab:  Solving for Uy, Initial residual = 0.0169178, Final residual = 3.9003e-05, No Iterations 5
DILUPBiCGStab:  Solving for Uz, Initial residual = 0.0601414, Final residual = 0.000358156, No Iterations 5
linear solve U 404215
nonePBiCGStab:  Solving for p, Initial residual = 0.105122, Final residual = 9.6013e-05, No Iterations 460
linear solve p 5619566
time step continuity errors : sum local = 3.7119e-08, global = 2.36616e-21, cumulative = 6.35694e-20
nonePBiCGStab:  Solving for p, Initial residual = 0.0883407, Final residual = 7.78413e-05, No Iterations 472
linear solve p 5791769
time step continuity errors : sum local = 2.96123e-08, global = 1.31187e-21, cumulative = 6.48813e-20
ExecutionTime = 118.69 s  ClockTime = 119 s

End

