/*---------------------------------------------------------------------------*\
  =========                 |
  \\      /  F ield         | OpenFOAM: The Open Source CFD Toolbox
   \\    /   O peration     | Website:  https://openfoam.org
    \\  /    A nd           | Version:  8
     \\/     M anipulation  |
\*---------------------------------------------------------------------------*/
Build  : 8-14d69e1ee166
Exec   : icoFoam
Date   : Jul 29 2021
Time   : 03:47:47
Host   : "guyot.icl.utk.edu"
PID    : 83621
I/O    : uncollated
Case   : /home/greole/code/OBR/lidDrivenCavity3D/Variation_mesh/50/Variation_matrix_solver/BiCGStab_DIC_Serial/base
nProcs : 1
sigFpe : Enabling floating point exception trapping (FOAM_SIGFPE).
fileModificationChecking : Monitoring run-time modified files using timeStampMaster (fileModificationSkew 10)
allowSystemOperations : Allowing user-supplied system call operations

// * * * * * * * * * * * * * * * * * * * * * * * * * * * * * * * * * * * * * //
Create time

Create mesh for time = 0

Reading transportProperties

Reading field p

Reading field U

Reading/calculating face flux field phi


Starting time loop

Time = 0.001

Courant Number mean: 0 max: 0
DILUPBiCGStab:  Solving for Ux, Initial residual = 1, Final residual = 0.000120903, No Iterations 5
DILUPBiCGStab:  Solving for Uy:  solution singularity
DILUPBiCGStab:  Solving for Uz:  solution singularity
linear solve U 48119
DICPBiCGStab:  Solving for p, Initial residual = 1, Final residual = 8.82277e-05, No Iterations 97
linear solve p 464083
time step continuity errors : sum local = 7.15777e-08, global = 1.87873e-21, cumulative = 1.87873e-21
DICPBiCGStab:  Solving for p, Initial residual = 0.658278, Final residual = 9.16403e-05, No Iterations 92
linear solve p 449994
time step continuity errors : sum local = 7.93601e-08, global = 4.95233e-21, cumulative = 6.83106e-21
ExecutionTime = 1.54 s  ClockTime = 2 s

End

