/*---------------------------------------------------------------------------*\
  =========                 |
  \\      /  F ield         | OpenFOAM: The Open Source CFD Toolbox
   \\    /   O peration     | Website:  https://openfoam.org
    \\  /    A nd           | Version:  8
     \\/     M anipulation  |
\*---------------------------------------------------------------------------*/
Build  : 8-14d69e1ee166
Exec   : icoFoam
Date   : Jul 29 2021
Time   : 08:37:58
Host   : "guyot.icl.utk.edu"
PID    : 154923
I/O    : uncollated
Case   : /home/greole/code/OBR/lidDrivenCavity3D/Variation_mesh/15/Variation_matrix_solver/BiCGStab_NoPrecond_Serial/base
nProcs : 1
sigFpe : Enabling floating point exception trapping (FOAM_SIGFPE).
fileModificationChecking : Monitoring run-time modified files using timeStampMaster (fileModificationSkew 10)
allowSystemOperations : Allowing user-supplied system call operations

// * * * * * * * * * * * * * * * * * * * * * * * * * * * * * * * * * * * * * //
Create time

Create mesh for time = 0

Reading transportProperties

Reading field p

Reading field U

Reading/calculating face flux field phi


Starting time loop

Time = 0.001

Courant Number mean: 0 max: 0
DILUPBiCGStab:  Solving for Ux, Initial residual = 1, Final residual = 1.1028e-13, No Iterations 5
DILUPBiCGStab:  Solving for Uy:  solution singularity
DILUPBiCGStab:  Solving for Uz:  solution singularity
linear solve U 1299
nonePBiCGStab:  Solving for p, Initial residual = 1, Final residual = 4.20975e-05, No Iterations 96
linear solve p 5935
time step continuity errors : sum local = 3.53592e-08, global = -5.14982e-21, cumulative = -5.14982e-21
nonePBiCGStab:  Solving for p, Initial residual = 0.316856, Final residual = 8.12471e-05, No Iterations 87
linear solve p 5382
time step continuity errors : sum local = 1.19352e-07, global = -2.68648e-21, cumulative = -7.8363e-21
ExecutionTime = 0.1 s  ClockTime = 0 s

Time = 0.002

Courant Number mean: 0.00559477 max: 0.0357001
DILUPBiCGStab:  Solving for Ux, Initial residual = 0.242439, Final residual = 1.13988e-14, No Iterations 5
DILUPBiCGStab:  Solving for Uy, Initial residual = 0.296174, Final residual = 1.12423e-14, No Iterations 5
DILUPBiCGStab:  Solving for Uz, Initial residual = 0.678729, Final residual = 3.05466e-14, No Iterations 5
linear solve U 2078
nonePBiCGStab:  Solving for p, Initial residual = 0.157021, Final residual = 5.26732e-05, No Iterations 84
linear solve p 5194
time step continuity errors : sum local = 7.55517e-08, global = 3.37242e-21, cumulative = -4.46388e-21
nonePBiCGStab:  Solving for p, Initial residual = 0.0606243, Final residual = 3.98682e-05, No Iterations 73
linear solve p 4517
time step continuity errors : sum local = 6.21565e-08, global = -1.34212e-20, cumulative = -1.78851e-20
ExecutionTime = 0.12 s  ClockTime = 0 s

Time = 0.003

Courant Number mean: 0.00940316 max: 0.0587298
DILUPBiCGStab:  Solving for Ux, Initial residual = 0.117931, Final residual = 5.34334e-15, No Iterations 5
DILUPBiCGStab:  Solving for Uy, Initial residual = 0.148789, Final residual = 5.34949e-15, No Iterations 5
DILUPBiCGStab:  Solving for Uz, Initial residual = 0.325773, Final residual = 1.73518e-14, No Iterations 5
linear solve U 2087
nonePBiCGStab:  Solving for p, Initial residual = 0.0760356, Final residual = 4.69596e-05, No Iterations 81
linear solve p 5021
time step continuity errors : sum local = 7.53577e-08, global = -1.22754e-21, cumulative = -1.91126e-20
nonePBiCGStab:  Solving for p, Initial residual = 0.0341394, Final residual = 9.75086e-05, No Iterations 35
linear solve p 2185
time step continuity errors : sum local = 1.21088e-07, global = 5.99995e-21, cumulative = -1.31127e-20
ExecutionTime = 0.13 s  ClockTime = 0 s

Time = 0.004

Courant Number mean: 0.0121904 max: 0.073727
DILUPBiCGStab:  Solving for Ux, Initial residual = 0.0723137, Final residual = 2.99011e-15, No Iterations 5
DILUPBiCGStab:  Solving for Uy, Initial residual = 0.0916882, Final residual = 3.02122e-15, No Iterations 5
DILUPBiCGStab:  Solving for Uz, Initial residual = 0.182641, Final residual = 7.71525e-15, No Iterations 5
linear solve U 2076
nonePBiCGStab:  Solving for p, Initial residual = 0.049338, Final residual = 9.94215e-05, No Iterations 40
linear solve p 2945
time step continuity errors : sum local = 1.55575e-07, global = 9.9605e-21, cumulative = -3.15218e-21
nonePBiCGStab:  Solving for p, Initial residual = 0.0222254, Final residual = 9.86459e-05, No Iterations 32
linear solve p 2008
time step continuity errors : sum local = 1.06947e-07, global = -4.6653e-22, cumulative = -3.61871e-21
ExecutionTime = 0.14 s  ClockTime = 0 s

Time = 0.005

Courant Number mean: 0.0143061 max: 0.0838052
DILUPBiCGStab:  Solving for Ux, Initial residual = 0.048563, Final residual = 1.79921e-15, No Iterations 5
DILUPBiCGStab:  Solving for Uy, Initial residual = 0.0627395, Final residual = 1.74778e-15, No Iterations 5
DILUPBiCGStab:  Solving for Uz, Initial residual = 0.1302, Final residual = 5.14072e-15, No Iterations 5
linear solve U 2161
nonePBiCGStab:  Solving for p, Initial residual = 0.0359999, Final residual = 2.70882e-05, No Iterations 73
linear solve p 5227
time step continuity errors : sum local = 3.51223e-08, global = -1.71577e-20, cumulative = -2.07764e-20
nonePBiCGStab:  Solving for p, Initial residual = 0.0152718, Final residual = 9.01727e-05, No Iterations 31
linear solve p 1944
time step continuity errors : sum local = 1.23511e-07, global = -9.75515e-21, cumulative = -3.05315e-20
ExecutionTime = 0.15 s  ClockTime = 0 s

Time = 0.006

Courant Number mean: 0.0159483 max: 0.0908033
DILUPBiCGStab:  Solving for Ux, Initial residual = 0.0353334, Final residual = 1.17498e-15, No Iterations 5
DILUPBiCGStab:  Solving for Uy, Initial residual = 0.0461299, Final residual = 1.06281e-15, No Iterations 5
DILUPBiCGStab:  Solving for Uz, Initial residual = 0.100138, Final residual = 4.26346e-15, No Iterations 5
linear solve U 2091
nonePBiCGStab:  Solving for p, Initial residual = 0.0289803, Final residual = 9.29624e-05, No Iterations 33
linear solve p 2086
time step continuity errors : sum local = 9.43558e-08, global = 2.31094e-20, cumulative = -7.42219e-21
nonePBiCGStab:  Solving for p, Initial residual = 0.0111102, Final residual = 9.73157e-05, No Iterations 29
linear solve p 1838
time step continuity errors : sum local = 1.20603e-07, global = 5.14454e-21, cumulative = -2.27765e-21
ExecutionTime = 0.15 s  ClockTime = 0 s

Time = 0.007

Courant Number mean: 0.0172718 max: 0.0958251
DILUPBiCGStab:  Solving for Ux, Initial residual = 0.0271577, Final residual = 8.71003e-16, No Iterations 5
DILUPBiCGStab:  Solving for Uy, Initial residual = 0.0356334, Final residual = 7.40828e-16, No Iterations 5
DILUPBiCGStab:  Solving for Uz, Initial residual = 0.0795772, Final residual = 3.01513e-15, No Iterations 5
linear solve U 2078
nonePBiCGStab:  Solving for p, Initial residual = 0.0218368, Final residual = 9.2956e-05, No Iterations 33
linear solve p 2068
time step continuity errors : sum local = 1.05202e-07, global = 5.69733e-20, cumulative = 5.46957e-20
nonePBiCGStab:  Solving for p, Initial residual = 0.00870548, Final residual = 8.91389e-05, No Iterations 27
linear solve p 1697
time step continuity errors : sum local = 8.59981e-08, global = 2.78781e-20, cumulative = 8.25737e-20
ExecutionTime = 0.16 s  ClockTime = 0 s

Time = 0.008

Courant Number mean: 0.0183554 max: 0.0995502
DILUPBiCGStab:  Solving for Ux, Initial residual = 0.0216485, Final residual = 6.39081e-16, No Iterations 5
DILUPBiCGStab:  Solving for Uy, Initial residual = 0.0286257, Final residual = 5.78893e-16, No Iterations 5
DILUPBiCGStab:  Solving for Uz, Initial residual = 0.0652159, Final residual = 2.37913e-15, No Iterations 5
linear solve U 2086
nonePBiCGStab:  Solving for p, Initial residual = 0.0163515, Final residual = 8.29099e-05, No Iterations 33
linear solve p 2075
time step continuity errors : sum local = 1.19035e-07, global = 3.21029e-21, cumulative = 8.5784e-20
nonePBiCGStab:  Solving for p, Initial residual = 0.00668956, Final residual = 9.90781e-05, No Iterations 26
linear solve p 1679
time step continuity errors : sum local = 1.20044e-07, global = 1.62405e-20, cumulative = 1.02024e-19
ExecutionTime = 0.17 s  ClockTime = 0 s

Time = 0.009

Courant Number mean: 0.0192554 max: 0.102395
DILUPBiCGStab:  Solving for Ux, Initial residual = 0.0176749, Final residual = 4.37123e-16, No Iterations 5
DILUPBiCGStab:  Solving for Uy, Initial residual = 0.0236333, Final residual = 4.82891e-16, No Iterations 5
DILUPBiCGStab:  Solving for Uz, Initial residual = 0.0546512, Final residual = 1.87312e-15, No Iterations 5
linear solve U 2083
nonePBiCGStab:  Solving for p, Initial residual = 0.0133148, Final residual = 8.93876e-05, No Iterations 32
linear solve p 2334
time step continuity errors : sum local = 1.44218e-07, global = 2.96999e-21, cumulative = 1.04994e-19
nonePBiCGStab:  Solving for p, Initial residual = 0.00544836, Final residual = 9.10957e-05, No Iterations 27
linear solve p 1694
time step continuity errors : sum local = 1.33901e-07, global = 2.07689e-20, cumulative = 1.25763e-19
ExecutionTime = 0.18 s  ClockTime = 0 s

Time = 0.01

Courant Number mean: 0.0200145 max: 0.104627
DILUPBiCGStab:  Solving for Ux, Initial residual = 0.0147279, Final residual = 2.84347e-16, No Iterations 5
DILUPBiCGStab:  Solving for Uy, Initial residual = 0.0199338, Final residual = 4.0156e-16, No Iterations 5
DILUPBiCGStab:  Solving for Uz, Initial residual = 0.0464253, Final residual = 1.53666e-15, No Iterations 5
linear solve U 2081
nonePBiCGStab:  Solving for p, Initial residual = 0.011185, Final residual = 9.87091e-05, No Iterations 31
linear solve p 1960
time step continuity errors : sum local = 1.68796e-07, global = -5.53483e-20, cumulative = 7.0415e-20
nonePBiCGStab:  Solving for p, Initial residual = 0.00454939, Final residual = 8.2574e-05, No Iterations 27
linear solve p 1710
time step continuity errors : sum local = 1.42805e-07, global = 2.07585e-20, cumulative = 9.11735e-20
ExecutionTime = 0.18 s  ClockTime = 0 s

End

