/*---------------------------------------------------------------------------*\
  =========                 |
  \\      /  F ield         | OpenFOAM: The Open Source CFD Toolbox
   \\    /   O peration     | Website:  https://openfoam.org
    \\  /    A nd           | Version:  8
     \\/     M anipulation  |
\*---------------------------------------------------------------------------*/
Build  : 8-14d69e1ee166
Exec   : icoFoam
Date   : Jul 29 2021
Time   : 08:10:35
Host   : "guyot.icl.utk.edu"
PID    : 97171
I/O    : uncollated
Case   : /home/greole/code/OBR/lidDrivenCavity3D/Variation_mesh/20/Variation_matrix_solver/CG_DIC_Serial/base
nProcs : 1
sigFpe : Enabling floating point exception trapping (FOAM_SIGFPE).
fileModificationChecking : Monitoring run-time modified files using timeStampMaster (fileModificationSkew 10)
allowSystemOperations : Allowing user-supplied system call operations

// * * * * * * * * * * * * * * * * * * * * * * * * * * * * * * * * * * * * * //
Create time

Create mesh for time = 0

Reading transportProperties

Reading field p

Reading field U

Reading/calculating face flux field phi


Starting time loop

Time = 0.001

Courant Number mean: 0 max: 0
DILUPBiCGStab:  Solving for Ux, Initial residual = 1, Final residual = 1.12203e-10, No Iterations 5
DILUPBiCGStab:  Solving for Uy:  solution singularity
DILUPBiCGStab:  Solving for Uz:  solution singularity
linear solve U 2870
DICPCG:  Solving for p, Initial residual = 1, Final residual = 5.55891e-05, No Iterations 49
linear solve p 7667
time step continuity errors : sum local = 2.65552e-08, global = -1.36031e-20, cumulative = -1.36031e-20
DICPCG:  Solving for p, Initial residual = 0.411875, Final residual = 3.8972e-05, No Iterations 48
linear solve p 6639
time step continuity errors : sum local = 3.1173e-08, global = 9.18218e-21, cumulative = -4.42088e-21
ExecutionTime = 0.12 s  ClockTime = 0 s

Time = 0.002

Courant Number mean: 0.00876192 max: 0.0682839
DILUPBiCGStab:  Solving for Ux, Initial residual = 0.225322, Final residual = 1.40293e-11, No Iterations 5
DILUPBiCGStab:  Solving for Uy, Initial residual = 0.289648, Final residual = 1.19239e-11, No Iterations 5
DILUPBiCGStab:  Solving for Uz, Initial residual = 0.825352, Final residual = 4.36478e-11, No Iterations 5
linear solve U 5133
DICPCG:  Solving for p, Initial residual = 0.212748, Final residual = 8.33495e-05, No Iterations 45
linear solve p 6245
time step continuity errors : sum local = 6.30371e-08, global = -4.54743e-22, cumulative = -4.87562e-21
DICPCG:  Solving for p, Initial residual = 0.123065, Final residual = 6.64847e-05, No Iterations 44
linear solve p 6101
time step continuity errors : sum local = 5.37956e-08, global = 8.98008e-22, cumulative = -3.97761e-21
ExecutionTime = 0.14 s  ClockTime = 0 s

Time = 0.003

Courant Number mean: 0.0142441 max: 0.104362
DILUPBiCGStab:  Solving for Ux, Initial residual = 0.102611, Final residual = 5.81899e-12, No Iterations 5
DILUPBiCGStab:  Solving for Uy, Initial residual = 0.135068, Final residual = 5.20365e-12, No Iterations 5
DILUPBiCGStab:  Solving for Uz, Initial residual = 0.293674, Final residual = 1.4041e-11, No Iterations 5
linear solve U 5063
DICPCG:  Solving for p, Initial residual = 0.0915054, Final residual = 9.99514e-05, No Iterations 43
linear solve p 5971
time step continuity errors : sum local = 8.02582e-08, global = -1.68439e-20, cumulative = -2.08215e-20
DICPCG:  Solving for p, Initial residual = 0.0549347, Final residual = 7.6476e-05, No Iterations 42
linear solve p 5827
time step continuity errors : sum local = 6.37093e-08, global = 6.55918e-21, cumulative = -1.42623e-20
ExecutionTime = 0.16 s  ClockTime = 0 s

Time = 0.004

Courant Number mean: 0.0178686 max: 0.123853
DILUPBiCGStab:  Solving for Ux, Initial residual = 0.0604262, Final residual = 2.83783e-12, No Iterations 5
DILUPBiCGStab:  Solving for Uy, Initial residual = 0.0809457, Final residual = 2.51629e-12, No Iterations 5
DILUPBiCGStab:  Solving for Uz, Initial residual = 0.154299, Final residual = 6.11129e-12, No Iterations 5
linear solve U 4994
DICPCG:  Solving for p, Initial residual = 0.0542725, Final residual = 8.07723e-05, No Iterations 42
linear solve p 5838
time step continuity errors : sum local = 6.79642e-08, global = -2.49047e-20, cumulative = -3.9167e-20
DICPCG:  Solving for p, Initial residual = 0.0313907, Final residual = 6.97883e-05, No Iterations 41
linear solve p 5726
time step continuity errors : sum local = 6.02384e-08, global = -1.354e-20, cumulative = -5.2707e-20
ExecutionTime = 0.18 s  ClockTime = 0 s

Time = 0.005

Courant Number mean: 0.0204635 max: 0.135215
DILUPBiCGStab:  Solving for Ux, Initial residual = 0.0403979, Final residual = 1.5989e-12, No Iterations 5
DILUPBiCGStab:  Solving for Uy, Initial residual = 0.0549635, Final residual = 1.29605e-12, No Iterations 5
DILUPBiCGStab:  Solving for Uz, Initial residual = 0.106661, Final residual = 3.65204e-12, No Iterations 5
linear solve U 5003
DICPCG:  Solving for p, Initial residual = 0.0356712, Final residual = 8.32918e-05, No Iterations 41
linear solve p 5711
time step continuity errors : sum local = 7.28053e-08, global = -1.00957e-21, cumulative = -5.37166e-20
DICPCG:  Solving for p, Initial residual = 0.0201447, Final residual = 7.69442e-05, No Iterations 40
linear solve p 5569
time step continuity errors : sum local = 6.8381e-08, global = -2.36396e-20, cumulative = -7.73562e-20
ExecutionTime = 0.2 s  ClockTime = 1 s

Time = 0.006

Courant Number mean: 0.0225084 max: 0.142365
DILUPBiCGStab:  Solving for Ux, Initial residual = 0.0295653, Final residual = 1.18818e-12, No Iterations 5
DILUPBiCGStab:  Solving for Uy, Initial residual = 0.0406124, Final residual = 8.47365e-13, No Iterations 5
DILUPBiCGStab:  Solving for Uz, Initial residual = 0.0811819, Final residual = 2.48733e-12, No Iterations 5
linear solve U 5246
DICPCG:  Solving for p, Initial residual = 0.0254415, Final residual = 9.81272e-05, No Iterations 40
linear solve p 5571
time step continuity errors : sum local = 8.81162e-08, global = 1.14284e-20, cumulative = -6.59278e-20
DICPCG:  Solving for p, Initial residual = 0.0141353, Final residual = 9.15116e-05, No Iterations 18
linear solve p 2635
time step continuity errors : sum local = 1.11565e-07, global = -3.86256e-20, cumulative = -1.04553e-19
ExecutionTime = 0.22 s  ClockTime = 1 s

Time = 0.007

Courant Number mean: 0.0241613 max: 0.147196
DILUPBiCGStab:  Solving for Ux, Initial residual = 0.0229856, Final residual = 6.70114e-13, No Iterations 5
DILUPBiCGStab:  Solving for Uy, Initial residual = 0.0317632, Final residual = 6.50069e-13, No Iterations 5
DILUPBiCGStab:  Solving for Uz, Initial residual = 0.0651016, Final residual = 1.90837e-12, No Iterations 5
linear solve U 5015
DICPCG:  Solving for p, Initial residual = 0.0187656, Final residual = 9.50647e-05, No Iterations 18
linear solve p 2614
time step continuity errors : sum local = 1.02357e-07, global = 2.47947e-20, cumulative = -7.97586e-20
DICPCG:  Solving for p, Initial residual = 0.0104828, Final residual = 8.80139e-05, No Iterations 17
linear solve p 2501
time step continuity errors : sum local = 1.07048e-07, global = 1.59614e-20, cumulative = -6.37973e-20
ExecutionTime = 0.23 s  ClockTime = 1 s

Time = 0.008

Courant Number mean: 0.0255322 max: 0.150665
DILUPBiCGStab:  Solving for Ux, Initial residual = 0.0184877, Final residual = 3.54197e-13, No Iterations 5
DILUPBiCGStab:  Solving for Uy, Initial residual = 0.0257953, Final residual = 5.06129e-13, No Iterations 5
DILUPBiCGStab:  Solving for Uz, Initial residual = 0.0534894, Final residual = 1.39464e-12, No Iterations 5
linear solve U 5116
DICPCG:  Solving for p, Initial residual = 0.0148191, Final residual = 7.82662e-05, No Iterations 18
linear solve p 2621
time step continuity errors : sum local = 7.7158e-08, global = 1.58744e-20, cumulative = -4.79228e-20
DICPCG:  Solving for p, Initial residual = 0.00836496, Final residual = 9.10376e-05, No Iterations 16
linear solve p 2352
time step continuity errors : sum local = 1.0054e-07, global = -3.51314e-21, cumulative = -5.1436e-20
ExecutionTime = 0.24 s  ClockTime = 1 s

Time = 0.009

Courant Number mean: 0.0266823 max: 0.153283
DILUPBiCGStab:  Solving for Ux, Initial residual = 0.0152525, Final residual = 2.0193e-13, No Iterations 5
DILUPBiCGStab:  Solving for Uy, Initial residual = 0.0215429, Final residual = 3.95877e-13, No Iterations 5
DILUPBiCGStab:  Solving for Uz, Initial residual = 0.0450886, Final residual = 1.09699e-12, No Iterations 5
linear solve U 4989
DICPCG:  Solving for p, Initial residual = 0.0119976, Final residual = 9.22673e-05, No Iterations 17
linear solve p 2488
time step continuity errors : sum local = 8.87348e-08, global = 3.82384e-21, cumulative = -4.76121e-20
DICPCG:  Solving for p, Initial residual = 0.00687848, Final residual = 7.28476e-05, No Iterations 16
linear solve p 2356
time step continuity errors : sum local = 7.50504e-08, global = 1.24977e-20, cumulative = -3.51144e-20
ExecutionTime = 0.26 s  ClockTime = 1 s

Time = 0.01

Courant Number mean: 0.0276669 max: 0.155336
DILUPBiCGStab:  Solving for Ux, Initial residual = 0.0129091, Final residual = 1.30922e-13, No Iterations 5
DILUPBiCGStab:  Solving for Uy, Initial residual = 0.0183556, Final residual = 3.10513e-13, No Iterations 5
DILUPBiCGStab:  Solving for Uz, Initial residual = 0.0386756, Final residual = 8.85425e-13, No Iterations 5
linear solve U 5009
DICPCG:  Solving for p, Initial residual = 0.00997808, Final residual = 8.2699e-05, No Iterations 17
linear solve p 2495
time step continuity errors : sum local = 8.65067e-08, global = -7.25437e-22, cumulative = -3.58399e-20
DICPCG:  Solving for p, Initial residual = 0.00579466, Final residual = 6.27933e-05, No Iterations 16
linear solve p 2354
time step continuity errors : sum local = 6.05019e-08, global = -1.82361e-20, cumulative = -5.4076e-20
ExecutionTime = 0.27 s  ClockTime = 1 s

End

