/*---------------------------------------------------------------------------*\
  =========                 |
  \\      /  F ield         | OpenFOAM: The Open Source CFD Toolbox
   \\    /   O peration     | Website:  https://openfoam.org
    \\  /    A nd           | Version:  8
     \\/     M anipulation  |
\*---------------------------------------------------------------------------*/
Build  : 8-ef60d22ea792
Exec   : icoFoam
Date   : Jul 28 2021
Time   : 22:09:16
Host   : "uc2n544.localdomain"
PID    : 1142678
I/O    : uncollated
Case   : /pfs/data5/home/kit/scc/nq7776/code/OBR/lidDrivenCavity3D/Variation_mesh/5/Variation_matrix_solver/BiCGStab_NoPrecond_OMP/base
nProcs : 1
sigFpe : Enabling floating point exception trapping (FOAM_SIGFPE).
fileModificationChecking : Monitoring run-time modified files using timeStampMaster (fileModificationSkew 10)
allowSystemOperations : Allowing user-supplied system call operations

// * * * * * * * * * * * * * * * * * * * * * * * * * * * * * * * * * * * * * //
Create time

Create mesh for time = 0

Reading transportProperties

Reading field p

Reading field U

Reading/calculating face flux field phi


Starting time loop

Time = 0.001

Courant Number mean: 0 max: 0
DILUPBiCGStab:  Solving for Ux, Initial residual = 1, Final residual = 8.38041e-30, No Iterations 5
DILUPBiCGStab:  Solving for Uy:  solution singularity
DILUPBiCGStab:  Solving for Uz:  solution singularity
linear solve U 170
[OGL LOG] init_host_sparsity_pattern : 0 ms
[OGL LOG] matrix not stored update host matrix
[OGL LOG] update_host_mtx : 0 ms
[OGL LOG] matrix is not yet sorted, compute sorting idxs
[OGL LOG] compute_sort : 0 ms
[OGL LOG] matrix is not yet sorted, sorting host matrix
[OGL LOG] sort_host_mtx_sparsity_pattern : 0 ms
[OGL LOG] sort_host_mtx : 0 ms
[OGL LOG] init_preconditioner : 0 ms
[OGL LOG] solve : 5828 ms
noneompGKOBiCGStab:  Solving for p, Initial residual = 1, Final residual = 7.38526e-05, No Iterations 23
linear solve p 5920822
time step continuity errors : sum local = 7.54995e-07, global = -1.00585e-21, cumulative = -1.00585e-21
[OGL LOG] init_host_sparsity_pattern : 0 ms
[OGL LOG] matrix not stored update host matrix
[OGL LOG] update_host_mtx : 0 ms
[OGL LOG] matrix is not yet sorted, sorting host matrix
[OGL LOG] sort_host_mtx_sparsity_pattern : 0 ms
[OGL LOG] sort_host_mtx : 0 ms
[OGL LOG] init_preconditioner : 0 ms
[OGL LOG] solve : 6033 ms
noneompGKOBiCGStab:  Solving for p, Initial residual = 0.0557252, Final residual = 3.88082e-05, No Iterations 21
linear solve p 6066556
time step continuity errors : sum local = 1.25953e-07, global = -1.61879e-21, cumulative = -2.62464e-21
ExecutionTime = 395.15 s  ClockTime = 12 s

Time = 0.002

Courant Number mean: 0.000593213 max: 0.00137349
DILUPBiCGStab:  Solving for Ux, Initial residual = 0.290576, Final residual = 1.32922e-30, No Iterations 5
DILUPBiCGStab:  Solving for Uy, Initial residual = 0.317548, Final residual = 1.1337e-30, No Iterations 5
DILUPBiCGStab:  Solving for Uz, Initial residual = 0.355014, Final residual = 2.42719e-30, No Iterations 5
linear solve U 167
[OGL LOG] init_host_sparsity_pattern : 0 ms
[OGL LOG] matrix not stored update host matrix
[OGL LOG] update_host_mtx : 0 ms
[OGL LOG] matrix is not yet sorted, sorting host matrix
[OGL LOG] sort_host_mtx_sparsity_pattern : 0 ms
[OGL LOG] sort_host_mtx : 0 ms
[OGL LOG] init_preconditioner : 0 ms
[OGL LOG] solve : 5062 ms
noneompGKOBiCGStab:  Solving for p, Initial residual = 0.110502, Final residual = 9.04011e-05, No Iterations 19
linear solve p 5088433
time step continuity errors : sum local = 7.67285e-07, global = 1.20305e-20, cumulative = 9.40587e-21
[OGL LOG] init_host_sparsity_pattern : 0 ms
[OGL LOG] matrix not stored update host matrix
[OGL LOG] update_host_mtx : 0 ms
[OGL LOG] matrix is not yet sorted, sorting host matrix
[OGL LOG] sort_host_mtx_sparsity_pattern : 0 ms
[OGL LOG] sort_host_mtx : 0 ms
[OGL LOG] init_preconditioner : 0 ms
[OGL LOG] solve : 3563 ms
noneompGKOBiCGStab:  Solving for p, Initial residual = 0.00422353, Final residual = 9.83149e-05, No Iterations 8
linear solve p 3594098
time step continuity errors : sum local = 8.66845e-08, global = -1.5551e-22, cumulative = 9.25036e-21
ExecutionTime = 646.45 s  ClockTime = 21 s

Time = 0.003

Courant Number mean: 0.00113049 max: 0.00263294
DILUPBiCGStab:  Solving for Ux, Initial residual = 0.161945, Final residual = 7.38219e-31, No Iterations 5
DILUPBiCGStab:  Solving for Uy, Initial residual = 0.186597, Final residual = 6.8e-31, No Iterations 5
DILUPBiCGStab:  Solving for Uz, Initial residual = 0.22483, Final residual = 1.59191e-30, No Iterations 5
linear solve U 124
[OGL LOG] init_host_sparsity_pattern : 0 ms
[OGL LOG] matrix not stored update host matrix
[OGL LOG] update_host_mtx : 0 ms
[OGL LOG] matrix is not yet sorted, sorting host matrix
[OGL LOG] sort_host_mtx_sparsity_pattern : 0 ms
[OGL LOG] sort_host_mtx : 0 ms
[OGL LOG] init_preconditioner : 0 ms
[OGL LOG] solve : 3960 ms
noneompGKOBiCGStab:  Solving for p, Initial residual = 0.0562119, Final residual = 9.31876e-05, No Iterations 15
linear solve p 3991488
time step continuity errors : sum local = 2.53479e-07, global = 1.19346e-20, cumulative = 2.1185e-20
[OGL LOG] init_host_sparsity_pattern : 0 ms
[OGL LOG] matrix not stored update host matrix
[OGL LOG] update_host_mtx : 0 ms
[OGL LOG] matrix is not yet sorted, sorting host matrix
[OGL LOG] sort_host_mtx_sparsity_pattern : 0 ms
[OGL LOG] sort_host_mtx : 0 ms
[OGL LOG] init_preconditioner : 0 ms
[OGL LOG] solve : 1197 ms
noneompGKOBiCGStab:  Solving for p, Initial residual = 0.0017403, Final residual = 9.79867e-05, No Iterations 4
linear solve p 1219271
time step continuity errors : sum local = 1.07968e-07, global = -2.62588e-21, cumulative = 1.85591e-20
ExecutionTime = 828.94 s  ClockTime = 26 s

Time = 0.004

Courant Number mean: 0.00161826 max: 0.00379117
DILUPBiCGStab:  Solving for Ux, Initial residual = 0.108849, Final residual = 5.0141e-31, No Iterations 5
DILUPBiCGStab:  Solving for Uy, Initial residual = 0.129135, Final residual = 4.60882e-31, No Iterations 5
DILUPBiCGStab:  Solving for Uz, Initial residual = 0.172236, Final residual = 1.00086e-30, No Iterations 5
linear solve U 124
[OGL LOG] init_host_sparsity_pattern : 0 ms
[OGL LOG] matrix not stored update host matrix
[OGL LOG] update_host_mtx : 0 ms
[OGL LOG] matrix is not yet sorted, sorting host matrix
[OGL LOG] sort_host_mtx_sparsity_pattern : 0 ms
[OGL LOG] sort_host_mtx : 0 ms
[OGL LOG] init_preconditioner : 0 ms
[OGL LOG] solve : 4269 ms
noneompGKOBiCGStab:  Solving for p, Initial residual = 0.0347353, Final residual = 7.34816e-05, No Iterations 16
linear solve p 4300871
time step continuity errors : sum local = 2.53515e-07, global = 3.33354e-22, cumulative = 1.88924e-20
[OGL LOG] init_host_sparsity_pattern : 0 ms
[OGL LOG] matrix not stored update host matrix
[OGL LOG] update_host_mtx : 0 ms
[OGL LOG] matrix is not yet sorted, sorting host matrix
[OGL LOG] sort_host_mtx_sparsity_pattern : 0 ms
[OGL LOG] sort_host_mtx : 0 ms
[OGL LOG] init_preconditioner : 0 ms
[OGL LOG] solve : 2667 ms
noneompGKOBiCGStab:  Solving for p, Initial residual = 0.00123409, Final residual = 9.08009e-05, No Iterations 5
linear solve p 2716672
time step continuity errors : sum local = 1.06594e-07, global = 3.3992e-22, cumulative = 1.92324e-20
ExecutionTime = 1036.18 s  ClockTime = 33 s

Time = 0.005

Courant Number mean: 0.00206192 max: 0.004858
DILUPBiCGStab:  Solving for Ux, Initial residual = 0.0800542, Final residual = 3.73255e-31, No Iterations 5
DILUPBiCGStab:  Solving for Uy, Initial residual = 0.0966969, Final residual = 3.34168e-31, No Iterations 5
DILUPBiCGStab:  Solving for Uz, Initial residual = 0.139178, Final residual = 7.12153e-31, No Iterations 5
linear solve U 170
[OGL LOG] init_host_sparsity_pattern : 0 ms
[OGL LOG] matrix not stored update host matrix
[OGL LOG] update_host_mtx : 0 ms
[OGL LOG] matrix is not yet sorted, sorting host matrix
[OGL LOG] sort_host_mtx_sparsity_pattern : 0 ms
[OGL LOG] sort_host_mtx : 0 ms
[OGL LOG] init_preconditioner : 0 ms
[OGL LOG] solve : 4086 ms
noneompGKOBiCGStab:  Solving for p, Initial residual = 0.023541, Final residual = 7.78612e-05, No Iterations 16
linear solve p 4110775
time step continuity errors : sum local = 4.19328e-07, global = -1.0482e-20, cumulative = 8.75033e-21
[OGL LOG] init_host_sparsity_pattern : 0 ms
[OGL LOG] matrix not stored update host matrix
[OGL LOG] update_host_mtx : 0 ms
[OGL LOG] matrix is not yet sorted, sorting host matrix
[OGL LOG] sort_host_mtx_sparsity_pattern : 0 ms
[OGL LOG] sort_host_mtx : 0 ms
[OGL LOG] init_preconditioner : 0 ms
[OGL LOG] solve : 1428 ms
noneompGKOBiCGStab:  Solving for p, Initial residual = 0.00124191, Final residual = 9.23047e-05, No Iterations 5
linear solve p 1449072
time step continuity errors : sum local = 1.17811e-07, global = -6.83251e-21, cumulative = 1.91782e-21
ExecutionTime = 1233.94 s  ClockTime = 39 s

Time = 0.006

Courant Number mean: 0.00246619 max: 0.00584201
DILUPBiCGStab:  Solving for Ux, Initial residual = 0.0620453, Final residual = 2.9205e-31, No Iterations 5
DILUPBiCGStab:  Solving for Uy, Initial residual = 0.0759764, Final residual = 2.54632e-31, No Iterations 5
DILUPBiCGStab:  Solving for Uz, Initial residual = 0.116625, Final residual = 6.14587e-31, No Iterations 5
linear solve U 168
[OGL LOG] init_host_sparsity_pattern : 0 ms
[OGL LOG] matrix not stored update host matrix
[OGL LOG] update_host_mtx : 0 ms
[OGL LOG] matrix is not yet sorted, sorting host matrix
[OGL LOG] sort_host_mtx_sparsity_pattern : 0 ms
[OGL LOG] sort_host_mtx : 0 ms
[OGL LOG] init_preconditioner : 0 ms
[OGL LOG] solve : 4576 ms
noneompGKOBiCGStab:  Solving for p, Initial residual = 0.0172394, Final residual = 7.14385e-05, No Iterations 16
linear solve p 4601002
time step continuity errors : sum local = 2.99311e-07, global = -1.68249e-21, cumulative = 2.35333e-22
[OGL LOG] init_host_sparsity_pattern : 0 ms
[OGL LOG] matrix not stored update host matrix
[OGL LOG] update_host_mtx : 0 ms
[OGL LOG] matrix is not yet sorted, sorting host matrix
[OGL LOG] sort_host_mtx_sparsity_pattern : 0 ms
[OGL LOG] sort_host_mtx : 0 ms
[OGL LOG] init_preconditioner : 0 ms
[OGL LOG] solve : 2623 ms
noneompGKOBiCGStab:  Solving for p, Initial residual = 0.000922801, Final residual = 9.05706e-05, No Iterations 5
linear solve p 2653597
time step continuity errors : sum local = 1.27537e-07, global = 1.66578e-20, cumulative = 1.68931e-20
ExecutionTime = 1437.74 s  ClockTime = 46 s

Time = 0.007

Courant Number mean: 0.00283514 max: 0.00675073
DILUPBiCGStab:  Solving for Ux, Initial residual = 0.0497738, Final residual = 2.35948e-31, No Iterations 5
DILUPBiCGStab:  Solving for Uy, Initial residual = 0.0616485, Final residual = 2.02589e-31, No Iterations 5
DILUPBiCGStab:  Solving for Uz, Initial residual = 0.0988877, Final residual = 6.10443e-31, No Iterations 5
linear solve U 172
[OGL LOG] init_host_sparsity_pattern : 0 ms
[OGL LOG] matrix not stored update host matrix
[OGL LOG] update_host_mtx : 0 ms
[OGL LOG] matrix is not yet sorted, sorting host matrix
[OGL LOG] sort_host_mtx_sparsity_pattern : 0 ms
[OGL LOG] sort_host_mtx : 0 ms
[OGL LOG] init_preconditioner : 0 ms
[OGL LOG] solve : 3836 ms
noneompGKOBiCGStab:  Solving for p, Initial residual = 0.0132805, Final residual = 9.69202e-05, No Iterations 15
linear solve p 3857945
time step continuity errors : sum local = 2.75613e-07, global = -6.49171e-21, cumulative = 1.04014e-20
[OGL LOG] init_host_sparsity_pattern : 0 ms
[OGL LOG] matrix not stored update host matrix
[OGL LOG] update_host_mtx : 0 ms
[OGL LOG] matrix is not yet sorted, sorting host matrix
[OGL LOG] sort_host_mtx_sparsity_pattern : 0 ms
[OGL LOG] sort_host_mtx : 0 ms
[OGL LOG] init_preconditioner : 0 ms
[OGL LOG] solve : 2400 ms
noneompGKOBiCGStab:  Solving for p, Initial residual = 0.000760792, Final residual = 9.85632e-05, No Iterations 9
linear solve p 2422025
time step continuity errors : sum local = 6.75867e-07, global = -9.39677e-22, cumulative = 9.46171e-21
ExecutionTime = 1661.44 s  ClockTime = 52 s

Time = 0.008

Courant Number mean: 0.00317237 max: 0.00759075
DILUPBiCGStab:  Solving for Ux, Initial residual = 0.0409183, Final residual = 1.95685e-31, No Iterations 5
DILUPBiCGStab:  Solving for Uy, Initial residual = 0.0512007, Final residual = 1.67046e-31, No Iterations 5
DILUPBiCGStab:  Solving for Uz, Initial residual = 0.0866913, Final residual = 6.26386e-31, No Iterations 5
linear solve U 172
[OGL LOG] init_host_sparsity_pattern : 0 ms
[OGL LOG] matrix not stored update host matrix
[OGL LOG] update_host_mtx : 0 ms
[OGL LOG] matrix is not yet sorted, sorting host matrix
[OGL LOG] sort_host_mtx_sparsity_pattern : 0 ms
[OGL LOG] sort_host_mtx : 0 ms
[OGL LOG] init_preconditioner : 0 ms
[OGL LOG] solve : 4867 ms
noneompGKOBiCGStab:  Solving for p, Initial residual = 0.0110674, Final residual = 9.76917e-05, No Iterations 16
linear solve p 4891457
time step continuity errors : sum local = 2.40718e-07, global = -1.49422e-20, cumulative = -5.48049e-21
[OGL LOG] init_host_sparsity_pattern : 0 ms
[OGL LOG] matrix not stored update host matrix
[OGL LOG] update_host_mtx : 0 ms
[OGL LOG] matrix is not yet sorted, sorting host matrix
[OGL LOG] sort_host_mtx_sparsity_pattern : 0 ms
[OGL LOG] sort_host_mtx : 0 ms
[OGL LOG] init_preconditioner : 0 ms
[OGL LOG] solve : 1328 ms
noneompGKOBiCGStab:  Solving for p, Initial residual = 0.000642463, Final residual = 9.58213e-05, No Iterations 5
linear solve p 1350893
time step continuity errors : sum local = 1.09697e-07, global = -3.56349e-20, cumulative = -4.11154e-20
ExecutionTime = 1857.49 s  ClockTime = 59 s

Time = 0.009

Courant Number mean: 0.00348095 max: 0.00836835
DILUPBiCGStab:  Solving for Ux, Initial residual = 0.0342278, Final residual = 1.65771e-31, No Iterations 5
DILUPBiCGStab:  Solving for Uy, Initial residual = 0.0433008, Final residual = 1.40354e-31, No Iterations 5
DILUPBiCGStab:  Solving for Uz, Initial residual = 0.077136, Final residual = 5.81254e-31, No Iterations 5
linear solve U 173
[OGL LOG] init_host_sparsity_pattern : 0 ms
[OGL LOG] matrix not stored update host matrix
[OGL LOG] update_host_mtx : 0 ms
[OGL LOG] matrix is not yet sorted, sorting host matrix
[OGL LOG] sort_host_mtx_sparsity_pattern : 0 ms
[OGL LOG] sort_host_mtx : 0 ms
[OGL LOG] init_preconditioner : 0 ms
[OGL LOG] solve : 5142 ms
noneompGKOBiCGStab:  Solving for p, Initial residual = 0.0088216, Final residual = 8.90234e-05, No Iterations 15
linear solve p 5178702
time step continuity errors : sum local = 2.44644e-07, global = -1.9763e-20, cumulative = -6.08784e-20
[OGL LOG] init_host_sparsity_pattern : 0 ms
[OGL LOG] matrix not stored update host matrix
[OGL LOG] update_host_mtx : 0 ms
[OGL LOG] matrix is not yet sorted, sorting host matrix
[OGL LOG] sort_host_mtx_sparsity_pattern : 0 ms
[OGL LOG] sort_host_mtx : 0 ms
[OGL LOG] init_preconditioner : 0 ms
[OGL LOG] solve : 2188 ms
noneompGKOBiCGStab:  Solving for p, Initial residual = 0.000624507, Final residual = 9.84931e-05, No Iterations 5
linear solve p 2223160
time step continuity errors : sum local = 1.30508e-07, global = 2.93384e-20, cumulative = -3.154e-20
ExecutionTime = 2052.19 s  ClockTime = 66 s

Time = 0.01

Courant Number mean: 0.00376376 max: 0.00908829
DILUPBiCGStab:  Solving for Ux, Initial residual = 0.029056, Final residual = 1.43136e-31, No Iterations 5
DILUPBiCGStab:  Solving for Uy, Initial residual = 0.0371161, Final residual = 1.19386e-31, No Iterations 5
DILUPBiCGStab:  Solving for Uz, Initial residual = 0.0680126, Final residual = 5.10819e-31, No Iterations 5
linear solve U 209
[OGL LOG] init_host_sparsity_pattern : 0 ms
[OGL LOG] matrix not stored update host matrix
[OGL LOG] update_host_mtx : 0 ms
[OGL LOG] matrix is not yet sorted, sorting host matrix
[OGL LOG] sort_host_mtx_sparsity_pattern : 0 ms
[OGL LOG] sort_host_mtx : 0 ms
[OGL LOG] init_preconditioner : 0 ms
[OGL LOG] solve : 5644 ms
noneompGKOBiCGStab:  Solving for p, Initial residual = 0.00733226, Final residual = 7.51153e-05, No Iterations 15
linear solve p 5686142
time step continuity errors : sum local = 2.60893e-07, global = -3.77525e-21, cumulative = -3.53152e-20
[OGL LOG] init_host_sparsity_pattern : 0 ms
[OGL LOG] matrix not stored update host matrix
[OGL LOG] update_host_mtx : 0 ms
[OGL LOG] matrix is not yet sorted, sorting host matrix
[OGL LOG] sort_host_mtx_sparsity_pattern : 0 ms
[OGL LOG] sort_host_mtx : 0 ms
[OGL LOG] init_preconditioner : 0 ms
[OGL LOG] solve : 1196 ms
noneompGKOBiCGStab:  Solving for p, Initial residual = 0.000627202, Final residual = 9.69392e-05, No Iterations 4
linear solve p 1221982
time step continuity errors : sum local = 1.42627e-07, global = -1.30364e-21, cumulative = -3.66189e-20
ExecutionTime = 2238.44 s  ClockTime = 73 s

End

