/*---------------------------------------------------------------------------*\
  =========                 |
  \\      /  F ield         | OpenFOAM: The Open Source CFD Toolbox
   \\    /   O peration     | Website:  https://openfoam.org
    \\  /    A nd           | Version:  8
     \\/     M anipulation  |
\*---------------------------------------------------------------------------*/
Build  : 8-ef60d22ea792
Exec   : icoFoam
Date   : Jul 29 2021
Time   : 03:33:32
Host   : "uc2n414.localdomain"
PID    : 2863579
I/O    : uncollated
Case   : /pfs/data5/home/kit/scc/nq7776/code/OBR/lidDrivenCavity3D/Variation_mesh/30/Variation_matrix_solver/CG_NoPrecond_OMP/base
nProcs : 1
sigFpe : Enabling floating point exception trapping (FOAM_SIGFPE).
fileModificationChecking : Monitoring run-time modified files using timeStampMaster (fileModificationSkew 10)
allowSystemOperations : Allowing user-supplied system call operations

// * * * * * * * * * * * * * * * * * * * * * * * * * * * * * * * * * * * * * //
Create time

Create mesh for time = 0

Reading transportProperties

Reading field p

Reading field U

Reading/calculating face flux field phi


Starting time loop

Time = 0.001

Courant Number mean: 0 max: 0
DILUPBiCGStab:  Solving for Ux, Initial residual = 1, Final residual = 2.30612e-07, No Iterations 5
DILUPBiCGStab:  Solving for Uy:  solution singularity
DILUPBiCGStab:  Solving for Uz:  solution singularity
linear solve U 9984
[OGL LOG] init_host_sparsity_pattern : 7 ms
[OGL LOG] matrix not stored update host matrix
[OGL LOG] update_host_mtx : 4 ms
[OGL LOG] matrix is not yet sorted, compute sorting idxs
[OGL LOG] compute_sort : 191 ms
[OGL LOG] matrix is not yet sorted, sorting host matrix
[OGL LOG] sort_host_mtx_sparsity_pattern : 5 ms
[OGL LOG] sort_host_mtx : 3 ms
[OGL LOG] init_preconditioner : 0 ms
[OGL LOG] solve : 170 ms
noneompGKOCG:  Solving for p, Initial residual = 1, Final residual = 8.82163e-05, No Iterations 231
linear solve p 389076
time step continuity errors : sum local = 4.74271e-08, global = -1.59645e-22, cumulative = -1.59645e-22
[OGL LOG] init_host_sparsity_pattern : 7 ms
[OGL LOG] matrix not stored update host matrix
[OGL LOG] update_host_mtx : 3 ms
[OGL LOG] matrix is not yet sorted, sorting host matrix
[OGL LOG] sort_host_mtx_sparsity_pattern : 5 ms
[OGL LOG] sort_host_mtx : 2 ms
[OGL LOG] init_preconditioner : 0 ms
[OGL LOG] solve : 166 ms
noneompGKOCG:  Solving for p, Initial residual = 0.53374, Final residual = 9.51834e-05, No Iterations 226
linear solve p 190074
time step continuity errors : sum local = 7.99344e-08, global = -5.35188e-21, cumulative = -5.51153e-21
ExecutionTime = 0.72 s  ClockTime = 1 s

Time = 0.002

Courant Number mean: 0.0151361 max: 0.148264
DILUPBiCGStab:  Solving for Ux, Initial residual = 0.196126, Final residual = 3.64368e-08, No Iterations 5
DILUPBiCGStab:  Solving for Uy, Initial residual = 0.280247, Final residual = 4.08023e-08, No Iterations 5
DILUPBiCGStab:  Solving for Uz, Initial residual = 0.925444, Final residual = 1.58499e-07, No Iterations 5
linear solve U 17689
[OGL LOG] init_host_sparsity_pattern : 7 ms
[OGL LOG] matrix not stored update host matrix
[OGL LOG] update_host_mtx : 3 ms
[OGL LOG] matrix is not yet sorted, sorting host matrix
[OGL LOG] sort_host_mtx_sparsity_pattern : 5 ms
[OGL LOG] sort_host_mtx : 2 ms
[OGL LOG] init_preconditioner : 0 ms
[OGL LOG] solve : 164 ms
noneompGKOCG:  Solving for p, Initial residual = 0.352727, Final residual = 9.3484e-05, No Iterations 223
linear solve p 186596
time step continuity errors : sum local = 7.35372e-08, global = 9.20057e-22, cumulative = -4.59147e-21
[OGL LOG] init_host_sparsity_pattern : 7 ms
[OGL LOG] matrix not stored update host matrix
[OGL LOG] update_host_mtx : 3 ms
[OGL LOG] matrix is not yet sorted, sorting host matrix
[OGL LOG] sort_host_mtx_sparsity_pattern : 5 ms
[OGL LOG] sort_host_mtx : 2 ms
[OGL LOG] init_preconditioner : 0 ms
[OGL LOG] solve : 161 ms
noneompGKOCG:  Solving for p, Initial residual = 0.25368, Final residual = 8.92366e-05, No Iterations 220
linear solve p 183724
time step continuity errors : sum local = 7.39426e-08, global = 8.53149e-21, cumulative = 3.94002e-21
ExecutionTime = 1.12 s  ClockTime = 1 s

Time = 0.003

Courant Number mean: 0.0235106 max: 0.204199
DILUPBiCGStab:  Solving for Ux, Initial residual = 0.0796136, Final residual = 1.29716e-08, No Iterations 5
DILUPBiCGStab:  Solving for Uy, Initial residual = 0.11625, Final residual = 1.1366e-08, No Iterations 5
DILUPBiCGStab:  Solving for Uz, Initial residual = 0.202096, Final residual = 3.46516e-08, No Iterations 5
linear solve U 17486
[OGL LOG] init_host_sparsity_pattern : 7 ms
[OGL LOG] matrix not stored update host matrix
[OGL LOG] update_host_mtx : 3 ms
[OGL LOG] matrix is not yet sorted, sorting host matrix
[OGL LOG] sort_host_mtx_sparsity_pattern : 5 ms
[OGL LOG] sort_host_mtx : 2 ms
[OGL LOG] init_preconditioner : 0 ms
[OGL LOG] solve : 157 ms
noneompGKOCG:  Solving for p, Initial residual = 0.112485, Final residual = 8.9914e-05, No Iterations 213
linear solve p 179811
time step continuity errors : sum local = 6.5747e-08, global = 7.22951e-21, cumulative = 1.11695e-20
[OGL LOG] init_host_sparsity_pattern : 7 ms
[OGL LOG] matrix not stored update host matrix
[OGL LOG] update_host_mtx : 3 ms
[OGL LOG] matrix is not yet sorted, sorting host matrix
[OGL LOG] sort_host_mtx_sparsity_pattern : 5 ms
[OGL LOG] sort_host_mtx : 2 ms
[OGL LOG] init_preconditioner : 0 ms
[OGL LOG] solve : 152 ms
noneompGKOCG:  Solving for p, Initial residual = 0.0832844, Final residual = 9.08798e-05, No Iterations 207
linear solve p 176090
time step continuity errors : sum local = 6.7685e-08, global = -3.1331e-21, cumulative = 8.03642e-21
ExecutionTime = 1.51 s  ClockTime = 2 s

Time = 0.004

Courant Number mean: 0.0286421 max: 0.226394
DILUPBiCGStab:  Solving for Ux, Initial residual = 0.0460387, Final residual = 6.36557e-09, No Iterations 5
DILUPBiCGStab:  Solving for Uy, Initial residual = 0.0700072, Final residual = 4.32911e-09, No Iterations 5
DILUPBiCGStab:  Solving for Uz, Initial residual = 0.109552, Final residual = 1.40407e-08, No Iterations 5
linear solve U 17462
[OGL LOG] init_host_sparsity_pattern : 7 ms
[OGL LOG] matrix not stored update host matrix
[OGL LOG] update_host_mtx : 4 ms
[OGL LOG] matrix is not yet sorted, sorting host matrix
[OGL LOG] sort_host_mtx_sparsity_pattern : 5 ms
[OGL LOG] sort_host_mtx : 2 ms
[OGL LOG] init_preconditioner : 0 ms
[OGL LOG] solve : 151 ms
noneompGKOCG:  Solving for p, Initial residual = 0.0571083, Final residual = 9.68549e-05, No Iterations 205
linear solve p 173597
time step continuity errors : sum local = 7.09755e-08, global = -9.02671e-21, cumulative = -9.90292e-22
[OGL LOG] init_host_sparsity_pattern : 7 ms
[OGL LOG] matrix not stored update host matrix
[OGL LOG] update_host_mtx : 3 ms
[OGL LOG] matrix is not yet sorted, sorting host matrix
[OGL LOG] sort_host_mtx_sparsity_pattern : 5 ms
[OGL LOG] sort_host_mtx : 2 ms
[OGL LOG] init_preconditioner : 0 ms
[OGL LOG] solve : 148 ms
noneompGKOCG:  Solving for p, Initial residual = 0.0420061, Final residual = 8.80983e-05, No Iterations 202
linear solve p 171825
time step continuity errors : sum local = 6.56387e-08, global = 1.26786e-21, cumulative = 2.77569e-22
ExecutionTime = 1.89 s  ClockTime = 2 s

Time = 0.005

Courant Number mean: 0.0323427 max: 0.237404
DILUPBiCGStab:  Solving for Ux, Initial residual = 0.0314341, Final residual = 2.99109e-09, No Iterations 5
DILUPBiCGStab:  Solving for Uy, Initial residual = 0.048221, Final residual = 2.41824e-09, No Iterations 5
DILUPBiCGStab:  Solving for Uz, Initial residual = 0.0797815, Final residual = 8.29818e-09, No Iterations 5
linear solve U 17653
[OGL LOG] init_host_sparsity_pattern : 7 ms
[OGL LOG] matrix not stored update host matrix
[OGL LOG] update_host_mtx : 4 ms
[OGL LOG] matrix is not yet sorted, sorting host matrix
[OGL LOG] sort_host_mtx_sparsity_pattern : 5 ms
[OGL LOG] sort_host_mtx : 2 ms
[OGL LOG] init_preconditioner : 0 ms
[OGL LOG] solve : 149 ms
noneompGKOCG:  Solving for p, Initial residual = 0.0353752, Final residual = 9.22355e-05, No Iterations 202
linear solve p 171635
time step continuity errors : sum local = 6.88009e-08, global = -2.3046e-21, cumulative = -2.02703e-21
[OGL LOG] init_host_sparsity_pattern : 7 ms
[OGL LOG] matrix not stored update host matrix
[OGL LOG] update_host_mtx : 3 ms
[OGL LOG] matrix is not yet sorted, sorting host matrix
[OGL LOG] sort_host_mtx_sparsity_pattern : 5 ms
[OGL LOG] sort_host_mtx : 2 ms
[OGL LOG] init_preconditioner : 0 ms
[OGL LOG] solve : 146 ms
noneompGKOCG:  Solving for p, Initial residual = 0.026199, Final residual = 8.74861e-05, No Iterations 199
linear solve p 169378
time step continuity errors : sum local = 6.58136e-08, global = -1.44041e-21, cumulative = -3.46744e-21
ExecutionTime = 2.25 s  ClockTime = 2 s

Time = 0.006

Courant Number mean: 0.0352087 max: 0.243905
DILUPBiCGStab:  Solving for Ux, Initial residual = 0.0234908, Final residual = 1.11404e-09, No Iterations 5
DILUPBiCGStab:  Solving for Uy, Initial residual = 0.036419, Final residual = 1.59059e-09, No Iterations 5
DILUPBiCGStab:  Solving for Uz, Initial residual = 0.0633853, Final residual = 5.54375e-09, No Iterations 5
linear solve U 17594
[OGL LOG] init_host_sparsity_pattern : 7 ms
[OGL LOG] matrix not stored update host matrix
[OGL LOG] update_host_mtx : 4 ms
[OGL LOG] matrix is not yet sorted, sorting host matrix
[OGL LOG] sort_host_mtx_sparsity_pattern : 5 ms
[OGL LOG] sort_host_mtx : 2 ms
[OGL LOG] init_preconditioner : 0 ms
[OGL LOG] solve : 147 ms
noneompGKOCG:  Solving for p, Initial residual = 0.0251756, Final residual = 9.29157e-05, No Iterations 200
linear solve p 169852
time step continuity errors : sum local = 7.01224e-08, global = 5.00248e-21, cumulative = 1.53504e-21
[OGL LOG] init_host_sparsity_pattern : 7 ms
[OGL LOG] matrix not stored update host matrix
[OGL LOG] update_host_mtx : 4 ms
[OGL LOG] matrix is not yet sorted, sorting host matrix
[OGL LOG] sort_host_mtx_sparsity_pattern : 5 ms
[OGL LOG] sort_host_mtx : 2 ms
[OGL LOG] init_preconditioner : 0 ms
[OGL LOG] solve : 145 ms
noneompGKOCG:  Solving for p, Initial residual = 0.018746, Final residual = 9.86294e-05, No Iterations 197
linear solve p 167938
time step continuity errors : sum local = 7.48841e-08, global = 1.73688e-20, cumulative = 1.89039e-20
ExecutionTime = 2.62 s  ClockTime = 3 s

Time = 0.007

Courant Number mean: 0.0375052 max: 0.24826
DILUPBiCGStab:  Solving for Ux, Initial residual = 0.0185386, Final residual = 5.57316e-10, No Iterations 5
DILUPBiCGStab:  Solving for Uy, Initial residual = 0.0289671, Final residual = 1.1432e-09, No Iterations 5
DILUPBiCGStab:  Solving for Uz, Initial residual = 0.0523579, Final residual = 3.58744e-09, No Iterations 5
linear solve U 17539
[OGL LOG] init_host_sparsity_pattern : 7 ms
[OGL LOG] matrix not stored update host matrix
[OGL LOG] update_host_mtx : 4 ms
[OGL LOG] matrix is not yet sorted, sorting host matrix
[OGL LOG] sort_host_mtx_sparsity_pattern : 5 ms
[OGL LOG] sort_host_mtx : 2 ms
[OGL LOG] init_preconditioner : 0 ms
[OGL LOG] solve : 69 ms
noneompGKOCG:  Solving for p, Initial residual = 0.0195264, Final residual = 9.52599e-05, No Iterations 94
linear solve p 92139
time step continuity errors : sum local = 8.97205e-08, global = -5.87019e-21, cumulative = 1.30337e-20
[OGL LOG] init_host_sparsity_pattern : 7 ms
[OGL LOG] matrix not stored update host matrix
[OGL LOG] update_host_mtx : 4 ms
[OGL LOG] matrix is not yet sorted, sorting host matrix
[OGL LOG] sort_host_mtx_sparsity_pattern : 5 ms
[OGL LOG] sort_host_mtx : 2 ms
[OGL LOG] init_preconditioner : 0 ms
[OGL LOG] solve : 64 ms
noneompGKOCG:  Solving for p, Initial residual = 0.0146707, Final residual = 9.72133e-05, No Iterations 86
linear solve p 86817
time step continuity errors : sum local = 8.09272e-08, global = 1.25571e-20, cumulative = 2.55908e-20
ExecutionTime = 2.84 s  ClockTime = 3 s

Time = 0.008

Courant Number mean: 0.0393976 max: 0.251424
DILUPBiCGStab:  Solving for Ux, Initial residual = 0.0151086, Final residual = 3.45539e-10, No Iterations 5
DILUPBiCGStab:  Solving for Uy, Initial residual = 0.0238589, Final residual = 8.32859e-10, No Iterations 5
DILUPBiCGStab:  Solving for Uz, Initial residual = 0.0442653, Final residual = 2.37306e-09, No Iterations 5
linear solve U 17591
[OGL LOG] init_host_sparsity_pattern : 7 ms
[OGL LOG] matrix not stored update host matrix
[OGL LOG] update_host_mtx : 4 ms
[OGL LOG] matrix is not yet sorted, sorting host matrix
[OGL LOG] sort_host_mtx_sparsity_pattern : 5 ms
[OGL LOG] sort_host_mtx : 2 ms
[OGL LOG] init_preconditioner : 0 ms
[OGL LOG] solve : 65 ms
noneompGKOCG:  Solving for p, Initial residual = 0.0158222, Final residual = 9.92721e-05, No Iterations 88
linear solve p 88231
time step continuity errors : sum local = 9.1525e-08, global = 3.36714e-21, cumulative = 2.89579e-20
[OGL LOG] init_host_sparsity_pattern : 7 ms
[OGL LOG] matrix not stored update host matrix
[OGL LOG] update_host_mtx : 4 ms
[OGL LOG] matrix is not yet sorted, sorting host matrix
[OGL LOG] sort_host_mtx_sparsity_pattern : 5 ms
[OGL LOG] sort_host_mtx : 2 ms
[OGL LOG] init_preconditioner : 0 ms
[OGL LOG] solve : 62 ms
noneompGKOCG:  Solving for p, Initial residual = 0.0119725, Final residual = 9.76671e-05, No Iterations 84
linear solve p 85213
time step continuity errors : sum local = 8.40748e-08, global = -2.00564e-20, cumulative = 8.90155e-21
ExecutionTime = 3.04 s  ClockTime = 3 s

Time = 0.009

Courant Number mean: 0.0410398 max: 0.253855
DILUPBiCGStab:  Solving for Ux, Initial residual = 0.0126598, Final residual = 2.44306e-10, No Iterations 5
DILUPBiCGStab:  Solving for Uy, Initial residual = 0.0201118, Final residual = 6.2461e-10, No Iterations 5
DILUPBiCGStab:  Solving for Uz, Initial residual = 0.037998, Final residual = 1.5798e-09, No Iterations 5
linear solve U 17655
[OGL LOG] init_host_sparsity_pattern : 8 ms
[OGL LOG] matrix not stored update host matrix
[OGL LOG] update_host_mtx : 4 ms
[OGL LOG] matrix is not yet sorted, sorting host matrix
[OGL LOG] sort_host_mtx_sparsity_pattern : 5 ms
[OGL LOG] sort_host_mtx : 2 ms
[OGL LOG] init_preconditioner : 0 ms
[OGL LOG] solve : 65 ms
noneompGKOCG:  Solving for p, Initial residual = 0.0131492, Final residual = 9.84187e-05, No Iterations 87
linear solve p 90123
time step continuity errors : sum local = 9.29277e-08, global = -2.2621e-20, cumulative = -1.37195e-20
[OGL LOG] init_host_sparsity_pattern : 7 ms
[OGL LOG] matrix not stored update host matrix
[OGL LOG] update_host_mtx : 3 ms
[OGL LOG] matrix is not yet sorted, sorting host matrix
[OGL LOG] sort_host_mtx_sparsity_pattern : 5 ms
[OGL LOG] sort_host_mtx : 2 ms
[OGL LOG] init_preconditioner : 0 ms
[OGL LOG] solve : 61 ms
noneompGKOCG:  Solving for p, Initial residual = 0.00999592, Final residual = 9.88529e-05, No Iterations 83
linear solve p 84132
time step continuity errors : sum local = 8.77353e-08, global = -1.19054e-20, cumulative = -2.56248e-20
ExecutionTime = 3.24 s  ClockTime = 3 s

Time = 0.01

Courant Number mean: 0.0424712 max: 0.255787
DILUPBiCGStab:  Solving for Ux, Initial residual = 0.010786, Final residual = 1.85985e-10, No Iterations 5
DILUPBiCGStab:  Solving for Uy, Initial residual = 0.0172533, Final residual = 4.82432e-10, No Iterations 5
DILUPBiCGStab:  Solving for Uz, Initial residual = 0.0330643, Final residual = 1.10738e-09, No Iterations 5
linear solve U 17555
[OGL LOG] init_host_sparsity_pattern : 7 ms
[OGL LOG] matrix not stored update host matrix
[OGL LOG] update_host_mtx : 4 ms
[OGL LOG] matrix is not yet sorted, sorting host matrix
[OGL LOG] sort_host_mtx_sparsity_pattern : 5 ms
[OGL LOG] sort_host_mtx : 2 ms
[OGL LOG] init_preconditioner : 0 ms
[OGL LOG] solve : 63 ms
noneompGKOCG:  Solving for p, Initial residual = 0.0111382, Final residual = 9.68923e-05, No Iterations 86
linear solve p 86660
time step continuity errors : sum local = 9.28159e-08, global = 6.8367e-21, cumulative = -1.87881e-20
[OGL LOG] init_host_sparsity_pattern : 7 ms
[OGL LOG] matrix not stored update host matrix
[OGL LOG] update_host_mtx : 3 ms
[OGL LOG] matrix is not yet sorted, sorting host matrix
[OGL LOG] sort_host_mtx_sparsity_pattern : 5 ms
[OGL LOG] sort_host_mtx : 2 ms
[OGL LOG] init_preconditioner : 0 ms
[OGL LOG] solve : 61 ms
noneompGKOCG:  Solving for p, Initial residual = 0.00850358, Final residual = 9.20461e-05, No Iterations 83
linear solve p 84182
time step continuity errors : sum local = 8.45758e-08, global = -4.45059e-21, cumulative = -2.32387e-20
ExecutionTime = 3.44 s  ClockTime = 4 s

End

