/*---------------------------------------------------------------------------*\
  =========                 |
  \\      /  F ield         | OpenFOAM: The Open Source CFD Toolbox
   \\    /   O peration     | Website:  https://openfoam.org
    \\  /    A nd           | Version:  8
     \\/     M anipulation  |
\*---------------------------------------------------------------------------*/
Build  : 8-ef60d22ea792
Exec   : icoFoam
Date   : Jul 28 2021
Time   : 14:56:12
Host   : "nla-gpu2.ianm.kit.edu"
PID    : 1498745
I/O    : uncollated
Case   : /home/greole/code/OBR/lidDrivenCavity3D/Variation_mesh/85/Variation_matrix_solver/BiCGStab_NoPrecond_HIP/base
nProcs : 1
sigFpe : Enabling floating point exception trapping (FOAM_SIGFPE).
fileModificationChecking : Monitoring run-time modified files using timeStampMaster (fileModificationSkew 10)
allowSystemOperations : Allowing user-supplied system call operations

// * * * * * * * * * * * * * * * * * * * * * * * * * * * * * * * * * * * * * //
Create time

Create mesh for time = 0

Reading transportProperties

Reading field p

Reading field U

Reading/calculating face flux field phi


Starting time loop

Time = 0.001

Courant Number mean: 0 max: 0
DILUPBiCGStab:  Solving for Ux, Initial residual = 1, Final residual = 0.00382019, No Iterations 5
DILUPBiCGStab:  Solving for Uy:  solution singularity
DILUPBiCGStab:  Solving for Uz:  solution singularity
linear solve U 249077
[OGL LOG] init_host_sparsity_pattern : 275 ms
[OGL LOG] matrix not stored update host matrix
[OGL LOG] update_host_mtx : 141 ms
[OGL LOG] matrix is not yet sorted, compute sorting idxs
[OGL LOG] compute_sort : 5946 ms
[OGL LOG] matrix is not yet sorted, sorting host matrix
[OGL LOG] sort_host_mtx_sparsity_pattern : 125 ms
[OGL LOG] sort_host_mtx : 77 ms
[OGL LOG] init_preconditioner : 0 ms
[OGL LOG] solve : 485 ms
nonehipGKOBiCGStab:  Solving for p, Initial residual = 1, Final residual = 5.34487e-05, No Iterations 551
linear solve p 7521747
time step continuity errors : sum local = 0.0413884, global = -3.72088e-18, cumulative = -3.72088e-18
[OGL LOG] init_host_sparsity_pattern : 277 ms
[OGL LOG] matrix not stored update host matrix
[OGL LOG] update_host_mtx : 141 ms
[OGL LOG] matrix is not yet sorted, sorting host matrix
[OGL LOG] sort_host_mtx_sparsity_pattern : 111 ms
[OGL LOG] sort_host_mtx : 68 ms
[OGL LOG] init_preconditioner : 0 ms
[OGL LOG] solve : 159 ms
nonehipGKOBiCGStab:  Solving for p, Initial residual = 0.985398, Final residual = 9.8996e-05, No Iterations 190
linear solve p 784516
time step continuity errors : sum local = 0.000232451, global = -2.3354e-20, cumulative = -3.74423e-18
ExecutionTime = 12.09 s  ClockTime = 11 s

Time = 0.002

Courant Number mean: 0.0486775 max: 0.673461
DILUPBiCGStab:  Solving for Ux, Initial residual = 0.156228, Final residual = 0.00157279, No Iterations 5
DILUPBiCGStab:  Solving for Uy, Initial residual = 0.629454, Final residual = 0.00417271, No Iterations 5
DILUPBiCGStab:  Solving for Uz, Initial residual = 0.88904, Final residual = 0.00619707, No Iterations 5
linear solve U 489013
[OGL LOG] init_host_sparsity_pattern : 269 ms
[OGL LOG] matrix not stored update host matrix
[OGL LOG] update_host_mtx : 136 ms
[OGL LOG] matrix is not yet sorted, sorting host matrix
[OGL LOG] sort_host_mtx_sparsity_pattern : 108 ms
[OGL LOG] sort_host_mtx : 72 ms
[OGL LOG] init_preconditioner : 0 ms
[OGL LOG] solve : 351 ms
nonehipGKOBiCGStab:  Solving for p, Initial residual = 0.931211, Final residual = 9.20451e-05, No Iterations 417
linear solve p 964480
time step continuity errors : sum local = 0.315641, global = -1.98745e-16, cumulative = -2.02489e-16
[OGL LOG] init_host_sparsity_pattern : 277 ms
[OGL LOG] matrix not stored update host matrix
[OGL LOG] update_host_mtx : 141 ms
[OGL LOG] matrix is not yet sorted, sorting host matrix
[OGL LOG] sort_host_mtx_sparsity_pattern : 110 ms
[OGL LOG] sort_host_mtx : 70 ms
[OGL LOG] init_preconditioner : 0 ms
[OGL LOG] solve : 137 ms
nonehipGKOBiCGStab:  Solving for p, Initial residual = 0.975454, Final residual = 9.76676e-05, No Iterations 161
linear solve p 763435
time step continuity errors : sum local = 4.17989e-05, global = 3.26598e-19, cumulative = -2.02163e-16
ExecutionTime = 14.96 s  ClockTime = 14 s

Time = 0.003

Courant Number mean: 0.0871709 max: 0.918595
DILUPBiCGStab:  Solving for Ux, Initial residual = 0.154503, Final residual = 0.00132941, No Iterations 5
DILUPBiCGStab:  Solving for Uy, Initial residual = 0.75595, Final residual = 0.00314263, No Iterations 5
DILUPBiCGStab:  Solving for Uz, Initial residual = 0.875266, Final residual = 0.00316322, No Iterations 5
linear solve U 493813
[OGL LOG] init_host_sparsity_pattern : 272 ms
[OGL LOG] matrix not stored update host matrix
[OGL LOG] update_host_mtx : 137 ms
[OGL LOG] matrix is not yet sorted, sorting host matrix
[OGL LOG] sort_host_mtx_sparsity_pattern : 108 ms
[OGL LOG] sort_host_mtx : 72 ms
[OGL LOG] init_preconditioner : 0 ms
[OGL LOG] solve : 158 ms
nonehipGKOBiCGStab:  Solving for p, Initial residual = 0.984584, Final residual = 9.94328e-05, No Iterations 189
linear solve p 776568
time step continuity errors : sum local = 0.000358995, global = 4.90672e-19, cumulative = -2.01672e-16
[OGL LOG] init_host_sparsity_pattern : 270 ms
[OGL LOG] matrix not stored update host matrix
[OGL LOG] update_host_mtx : 141 ms
[OGL LOG] matrix is not yet sorted, sorting host matrix
[OGL LOG] sort_host_mtx_sparsity_pattern : 108 ms
[OGL LOG] sort_host_mtx : 73 ms
[OGL LOG] init_preconditioner : 0 ms
[OGL LOG] solve : 147 ms
nonehipGKOBiCGStab:  Solving for p, Initial residual = 0.802199, Final residual = 8.59936e-05, No Iterations 173
linear solve p 766282
time step continuity errors : sum local = 5.41841e-05, global = -2.00993e-19, cumulative = -2.01873e-16
ExecutionTime = 17.53 s  ClockTime = 16 s

Time = 0.004

Courant Number mean: 0.154473 max: 2.75945
DILUPBiCGStab:  Solving for Ux, Initial residual = 0.197221, Final residual = 0.00178164, No Iterations 5
DILUPBiCGStab:  Solving for Uy, Initial residual = 0.771685, Final residual = 0.00377162, No Iterations 5
DILUPBiCGStab:  Solving for Uz, Initial residual = 0.92932, Final residual = 0.00248941, No Iterations 5
linear solve U 489632
[OGL LOG] init_host_sparsity_pattern : 269 ms
[OGL LOG] matrix not stored update host matrix
[OGL LOG] update_host_mtx : 136 ms
[OGL LOG] matrix is not yet sorted, sorting host matrix
[OGL LOG] sort_host_mtx_sparsity_pattern : 114 ms
[OGL LOG] sort_host_mtx : 70 ms
[OGL LOG] init_preconditioner : 0 ms
[OGL LOG] solve : 288 ms
nonehipGKOBiCGStab:  Solving for p, Initial residual = 0.994634, Final residual = 9.99986e-05, No Iterations 345
linear solve p 905579
time step continuity errors : sum local = 8.18221e-05, global = -2.14183e-18, cumulative = -2.04015e-16
[OGL LOG] init_host_sparsity_pattern : 272 ms
[OGL LOG] matrix not stored update host matrix
[OGL LOG] update_host_mtx : 142 ms
[OGL LOG] matrix is not yet sorted, sorting host matrix
[OGL LOG] sort_host_mtx_sparsity_pattern : 108 ms
[OGL LOG] sort_host_mtx : 71 ms
[OGL LOG] init_preconditioner : 0 ms
[OGL LOG] solve : 144 ms
nonehipGKOBiCGStab:  Solving for p, Initial residual = 0.803097, Final residual = 9.92363e-05, No Iterations 171
linear solve p 763976
time step continuity errors : sum local = 0.000209333, global = -4.0675e-20, cumulative = -2.04056e-16
ExecutionTime = 20.32 s  ClockTime = 19 s

Time = 0.005

Courant Number mean: 0.125279 max: 3.46125
DILUPBiCGStab:  Solving for Ux, Initial residual = 0.201526, Final residual = 0.00199996, No Iterations 5
DILUPBiCGStab:  Solving for Uy, Initial residual = 0.718289, Final residual = 0.00353386, No Iterations 5
DILUPBiCGStab:  Solving for Uz, Initial residual = 0.946267, Final residual = 0.00172281, No Iterations 5
linear solve U 488462
[OGL LOG] init_host_sparsity_pattern : 277 ms
[OGL LOG] matrix not stored update host matrix
[OGL LOG] update_host_mtx : 136 ms
[OGL LOG] matrix is not yet sorted, sorting host matrix
[OGL LOG] sort_host_mtx_sparsity_pattern : 116 ms
[OGL LOG] sort_host_mtx : 69 ms
[OGL LOG] init_preconditioner : 0 ms
[OGL LOG] solve : 383 ms
nonehipGKOBiCGStab:  Solving for p, Initial residual = 0.995407, Final residual = 9.81736e-05, No Iterations 461
linear solve p 1007787
time step continuity errors : sum local = 3.34719e-05, global = 2.7943e-20, cumulative = -2.04028e-16
[OGL LOG] init_host_sparsity_pattern : 269 ms
[OGL LOG] matrix not stored update host matrix
[OGL LOG] update_host_mtx : 141 ms
[OGL LOG] matrix is not yet sorted, sorting host matrix
[OGL LOG] sort_host_mtx_sparsity_pattern : 114 ms
[OGL LOG] sort_host_mtx : 72 ms
[OGL LOG] init_preconditioner : 0 ms
[OGL LOG] solve : 411 ms
nonehipGKOBiCGStab:  Solving for p, Initial residual = 0.80287, Final residual = 9.85136e-05, No Iterations 494
linear solve p 1035343
time step continuity errors : sum local = 3.25204e-05, global = -2.27654e-19, cumulative = -2.04255e-16
ExecutionTime = 23.75 s  ClockTime = 21 s

Time = 0.006

Courant Number mean: 0.135551 max: 3.05038
DILUPBiCGStab:  Solving for Ux, Initial residual = 0.208619, Final residual = 0.00222191, No Iterations 5
DILUPBiCGStab:  Solving for Uy, Initial residual = 0.675261, Final residual = 0.00408233, No Iterations 5
DILUPBiCGStab:  Solving for Uz, Initial residual = 0.950504, Final residual = 0.000843581, No Iterations 5
linear solve U 493019
[OGL LOG] init_host_sparsity_pattern : 270 ms
[OGL LOG] matrix not stored update host matrix
[OGL LOG] update_host_mtx : 136 ms
[OGL LOG] matrix is not yet sorted, sorting host matrix
[OGL LOG] sort_host_mtx_sparsity_pattern : 113 ms
[OGL LOG] sort_host_mtx : 72 ms
[OGL LOG] init_preconditioner : 0 ms
[OGL LOG] solve : 337 ms
nonehipGKOBiCGStab:  Solving for p, Initial residual = 0.995446, Final residual = 9.73957e-05, No Iterations 406
linear solve p 955329
time step continuity errors : sum local = 0.836454, global = -2.28269e-16, cumulative = -4.32525e-16
[OGL LOG] init_host_sparsity_pattern : 277 ms
[OGL LOG] matrix not stored update host matrix
[OGL LOG] update_host_mtx : 141 ms
[OGL LOG] matrix is not yet sorted, sorting host matrix
[OGL LOG] sort_host_mtx_sparsity_pattern : 112 ms
[OGL LOG] sort_host_mtx : 70 ms
[OGL LOG] init_preconditioner : 0 ms
[OGL LOG] solve : 129 ms
nonehipGKOBiCGStab:  Solving for p, Initial residual = 0.821839, Final residual = 8.45882e-05, No Iterations 154
linear solve p 756470
time step continuity errors : sum local = 0.000108024, global = -2.44075e-19, cumulative = -4.32769e-16
ExecutionTime = 26.6 s  ClockTime = 24 s

Time = 0.007

Courant Number mean: 0.14921 max: 2.15458
DILUPBiCGStab:  Solving for Ux, Initial residual = 0.335629, Final residual = 0.00364003, No Iterations 5
DILUPBiCGStab:  Solving for Uy, Initial residual = 0.749368, Final residual = 0.0049299, No Iterations 5
DILUPBiCGStab:  Solving for Uz, Initial residual = 0.87646, Final residual = 0.00255622, No Iterations 5
linear solve U 490611
[OGL LOG] init_host_sparsity_pattern : 271 ms
[OGL LOG] matrix not stored update host matrix
[OGL LOG] update_host_mtx : 137 ms
[OGL LOG] matrix is not yet sorted, sorting host matrix
[OGL LOG] sort_host_mtx_sparsity_pattern : 114 ms
[OGL LOG] sort_host_mtx : 68 ms
[OGL LOG] init_preconditioner : 0 ms
[OGL LOG] solve : 161 ms
nonehipGKOBiCGStab:  Solving for p, Initial residual = 0.990969, Final residual = 9.97774e-05, No Iterations 191
linear solve p 778546
time step continuity errors : sum local = 0.000330205, global = -5.40868e-18, cumulative = -4.38177e-16
[OGL LOG] init_host_sparsity_pattern : 278 ms
[OGL LOG] matrix not stored update host matrix
[OGL LOG] update_host_mtx : 136 ms
[OGL LOG] matrix is not yet sorted, sorting host matrix
[OGL LOG] sort_host_mtx_sparsity_pattern : 111 ms
[OGL LOG] sort_host_mtx : 73 ms
[OGL LOG] init_preconditioner : 0 ms
[OGL LOG] solve : 148 ms
nonehipGKOBiCGStab:  Solving for p, Initial residual = 0.802749, Final residual = 9.8922e-05, No Iterations 177
linear solve p 772776
time step continuity errors : sum local = 0.000518886, global = -7.40466e-19, cumulative = -4.38918e-16
ExecutionTime = 29.17 s  ClockTime = 26 s

Time = 0.008

Courant Number mean: 0.327337 max: 18.9256
DILUPBiCGStab:  Solving for Ux, Initial residual = 0.368065, Final residual = 0.00384166, No Iterations 5
DILUPBiCGStab:  Solving for Uy, Initial residual = 0.791341, Final residual = 0.00409484, No Iterations 5
DILUPBiCGStab:  Solving for Uz, Initial residual = 0.933153, Final residual = 0.00207698, No Iterations 5
linear solve U 488342
[OGL LOG] init_host_sparsity_pattern : 269 ms
[OGL LOG] matrix not stored update host matrix
[OGL LOG] update_host_mtx : 136 ms
[OGL LOG] matrix is not yet sorted, sorting host matrix
[OGL LOG] sort_host_mtx_sparsity_pattern : 116 ms
[OGL LOG] sort_host_mtx : 68 ms
[OGL LOG] init_preconditioner : 0 ms
[OGL LOG] solve : 338 ms
nonehipGKOBiCGStab:  Solving for p, Initial residual = 0.995882, Final residual = 9.97162e-05, No Iterations 405
linear solve p 955409
time step continuity errors : sum local = 26.899, global = -2.53999e-15, cumulative = -2.97891e-15
[OGL LOG] init_host_sparsity_pattern : 277 ms
[OGL LOG] matrix not stored update host matrix
[OGL LOG] update_host_mtx : 141 ms
[OGL LOG] matrix is not yet sorted, sorting host matrix
[OGL LOG] sort_host_mtx_sparsity_pattern : 110 ms
[OGL LOG] sort_host_mtx : 72 ms
[OGL LOG] init_preconditioner : 0 ms
[OGL LOG] solve : 116 ms
nonehipGKOBiCGStab:  Solving for p, Initial residual = 0.957925, Final residual = 6.65444e-05, No Iterations 135
linear solve p 743364
time step continuity errors : sum local = 0.344229, global = 5.25861e-17, cumulative = -2.92632e-15
ExecutionTime = 32.01 s  ClockTime = 29 s

Time = 0.009

Courant Number mean: 1.21276 max: 46.8354
DILUPBiCGStab:  Solving for Ux, Initial residual = 0.606471, Final residual = 0.00882321, No Iterations 5
DILUPBiCGStab:  Solving for Uy, Initial residual = 0.771997, Final residual = 0.00532065, No Iterations 5
DILUPBiCGStab:  Solving for Uz, Initial residual = 0.873549, Final residual = 0.00315575, No Iterations 5
linear solve U 488097
[OGL LOG] init_host_sparsity_pattern : 271 ms
[OGL LOG] matrix not stored update host matrix
[OGL LOG] update_host_mtx : 136 ms
[OGL LOG] matrix is not yet sorted, sorting host matrix
[OGL LOG] sort_host_mtx_sparsity_pattern : 108 ms
[OGL LOG] sort_host_mtx : 71 ms
[OGL LOG] init_preconditioner : 0 ms
[OGL LOG] solve : 151 ms
nonehipGKOBiCGStab:  Solving for p, Initial residual = 0.988953, Final residual = 9.99459e-05, No Iterations 181
linear solve p 764063
time step continuity errors : sum local = 0.00806052, global = 1.35988e-16, cumulative = -2.79033e-15
[OGL LOG] init_host_sparsity_pattern : 277 ms
[OGL LOG] matrix not stored update host matrix
[OGL LOG] update_host_mtx : 136 ms
[OGL LOG] matrix is not yet sorted, sorting host matrix
[OGL LOG] sort_host_mtx_sparsity_pattern : 114 ms
[OGL LOG] sort_host_mtx : 71 ms
[OGL LOG] init_preconditioner : 0 ms
[OGL LOG] solve : 140 ms
nonehipGKOBiCGStab:  Solving for p, Initial residual = 0.803398, Final residual = 9.7612e-05, No Iterations 167
linear solve p 765709
time step continuity errors : sum local = 0.00593948, global = -3.05351e-17, cumulative = -2.82087e-15
ExecutionTime = 34.55 s  ClockTime = 31 s

Time = 0.01

Courant Number mean: 8.98024 max: 332.967
DILUPBiCGStab:  Solving for Ux, Initial residual = 0.755378, Final residual = 0.0225668, No Iterations 5
DILUPBiCGStab:  Solving for Uy, Initial residual = 0.731092, Final residual = 0.0134185, No Iterations 5
DILUPBiCGStab:  Solving for Uz, Initial residual = 0.883247, Final residual = 0.0120279, No Iterations 5
linear solve U 485377
[OGL LOG] init_host_sparsity_pattern : 268 ms
[OGL LOG] matrix not stored update host matrix
[OGL LOG] update_host_mtx : 136 ms
[OGL LOG] matrix is not yet sorted, sorting host matrix
[OGL LOG] sort_host_mtx_sparsity_pattern : 110 ms
[OGL LOG] sort_host_mtx : 71 ms
[OGL LOG] init_preconditioner : 0 ms
[OGL LOG] solve : 174 ms
nonehipGKOBiCGStab:  Solving for p, Initial residual = 0.970836, Final residual = 9.48664e-05, No Iterations 205
linear solve p 785965
time step continuity errors : sum local = 0.0761588, global = -1.62719e-17, cumulative = -2.83714e-15
[OGL LOG] init_host_sparsity_pattern : 269 ms
[OGL LOG] matrix not stored update host matrix
[OGL LOG] update_host_mtx : 136 ms
[OGL LOG] matrix is not yet sorted, sorting host matrix
[OGL LOG] sort_host_mtx_sparsity_pattern : 116 ms
[OGL LOG] sort_host_mtx : 69 ms
[OGL LOG] init_preconditioner : 0 ms
[OGL LOG] solve : 159 ms
nonehipGKOBiCGStab:  Solving for p, Initial residual = 0.828368, Final residual = 9.80051e-05, No Iterations 191
linear solve p 775461
time step continuity errors : sum local = 0.0233594, global = -3.81148e-17, cumulative = -2.87525e-15
ExecutionTime = 37.14 s  ClockTime = 33 s

End

