/*---------------------------------------------------------------------------*\
  =========                 |
  \\      /  F ield         | OpenFOAM: The Open Source CFD Toolbox
   \\    /   O peration     | Website:  https://openfoam.org
    \\  /    A nd           | Version:  8
     \\/     M anipulation  |
\*---------------------------------------------------------------------------*/
Build  : 8-ef60d22ea792
Exec   : icoFoam
Date   : Jul 29 2021
Time   : 08:34:44
Host   : "nla-gpu2.ianm.kit.edu"
PID    : 1985979
I/O    : uncollated
Case   : /home/greole/code/OBR/lidDrivenCavity3D/Variation_mesh/25/Variation_matrix_solver/IR_NoPrecond_HIP/base
nProcs : 1
sigFpe : Enabling floating point exception trapping (FOAM_SIGFPE).
fileModificationChecking : Monitoring run-time modified files using timeStampMaster (fileModificationSkew 10)
allowSystemOperations : Allowing user-supplied system call operations

// * * * * * * * * * * * * * * * * * * * * * * * * * * * * * * * * * * * * * //
Create time

Create mesh for time = 0

Reading transportProperties

Reading field p

Reading field U

Reading/calculating face flux field phi


Starting time loop

Time = 0.001

Courant Number mean: 0 max: 0
DILUPBiCGStab:  Solving for Ux, Initial residual = 1, Final residual = 1.01737e-08, No Iterations 5
DILUPBiCGStab:  Solving for Uy:  solution singularity
DILUPBiCGStab:  Solving for Uz:  solution singularity
linear solve U 6351
[OGL LOG] init_host_sparsity_pattern : 7 ms
[OGL LOG] matrix not stored update host matrix
[OGL LOG] update_host_mtx : 3 ms
[OGL LOG] matrix is not yet sorted, compute sorting idxs
[OGL LOG] compute_sort : 122 ms
[OGL LOG] matrix is not yet sorted, sorting host matrix
[OGL LOG] sort_host_mtx_sparsity_pattern : 3 ms
[OGL LOG] sort_host_mtx : 1 ms
[OGL LOG] init_preconditioner : 0 ms
[OGL LOG] solve : 61 ms
nonehipGKOIR:  Solving for p, Initial residual = 1, Final residual = 6.76176e-06, No Iterations 3
linear solve p 615646
time step continuity errors : sum local = 3.49175e-09, global = -1.2284e-21, cumulative = -1.2284e-21
[OGL LOG] init_host_sparsity_pattern : 6 ms
[OGL LOG] matrix not stored update host matrix
[OGL LOG] update_host_mtx : 3 ms
[OGL LOG] matrix is not yet sorted, sorting host matrix
[OGL LOG] sort_host_mtx_sparsity_pattern : 2 ms
[OGL LOG] sort_host_mtx : 1 ms
[OGL LOG] init_preconditioner : 0 ms
[OGL LOG] solve : 31 ms
nonehipGKOIR:  Solving for p, Initial residual = 0.481402, Final residual = 1.81473e-06, No Iterations 3
linear solve p 47609
time step continuity errors : sum local = 1.50878e-09, global = 1.08981e-20, cumulative = 9.66966e-21
ExecutionTime = 0.86 s  ClockTime = 0 s

Time = 0.002

Courant Number mean: 0.0119809 max: 0.106546
DILUPBiCGStab:  Solving for Ux, Initial residual = 0.210779, Final residual = 1.44916e-09, No Iterations 5
DILUPBiCGStab:  Solving for Uy, Initial residual = 0.284219, Final residual = 1.36664e-09, No Iterations 5
DILUPBiCGStab:  Solving for Uz, Initial residual = 0.890281, Final residual = 5.3513e-09, No Iterations 5
linear solve U 10219
[OGL LOG] init_host_sparsity_pattern : 6 ms
[OGL LOG] matrix not stored update host matrix
[OGL LOG] update_host_mtx : 3 ms
[OGL LOG] matrix is not yet sorted, sorting host matrix
[OGL LOG] sort_host_mtx_sparsity_pattern : 2 ms
[OGL LOG] sort_host_mtx : 1 ms
[OGL LOG] init_preconditioner : 0 ms
[OGL LOG] solve : 26 ms
nonehipGKOIR:  Solving for p, Initial residual = 0.286219, Final residual = 6.84767e-05, No Iterations 2
linear solve p 43028
time step continuity errors : sum local = 5.31419e-08, global = -1.43421e-20, cumulative = -4.67245e-21
[OGL LOG] init_host_sparsity_pattern : 6 ms
[OGL LOG] matrix not stored update host matrix
[OGL LOG] update_host_mtx : 4 ms
[OGL LOG] matrix is not yet sorted, sorting host matrix
[OGL LOG] sort_host_mtx_sparsity_pattern : 2 ms
[OGL LOG] sort_host_mtx : 1 ms
[OGL LOG] init_preconditioner : 0 ms
[OGL LOG] solve : 27 ms
nonehipGKOIR:  Solving for p, Initial residual = 0.189891, Final residual = 4.72619e-05, No Iterations 2
linear solve p 44322
time step continuity errors : sum local = 3.8917e-08, global = -2.23205e-21, cumulative = -6.9045e-21
ExecutionTime = 1.02 s  ClockTime = 1 s

Time = 0.003

Courant Number mean: 0.0188589 max: 0.15358
DILUPBiCGStab:  Solving for Ux, Initial residual = 0.0901294, Final residual = 5.47154e-10, No Iterations 5
DILUPBiCGStab:  Solving for Uy, Initial residual = 0.124392, Final residual = 4.86075e-10, No Iterations 5
DILUPBiCGStab:  Solving for Uz, Initial residual = 0.250306, Final residual = 1.41391e-09, No Iterations 5
linear solve U 10216
[OGL LOG] init_host_sparsity_pattern : 6 ms
[OGL LOG] matrix not stored update host matrix
[OGL LOG] update_host_mtx : 4 ms
[OGL LOG] matrix is not yet sorted, sorting host matrix
[OGL LOG] sort_host_mtx_sparsity_pattern : 2 ms
[OGL LOG] sort_host_mtx : 1 ms
[OGL LOG] init_preconditioner : 0 ms
[OGL LOG] solve : 26 ms
nonehipGKOIR:  Solving for p, Initial residual = 0.103017, Final residual = 2.2134e-05, No Iterations 2
linear solve p 43830
time step continuity errors : sum local = 1.71384e-08, global = -2.09167e-21, cumulative = -8.99617e-21
[OGL LOG] init_host_sparsity_pattern : 6 ms
[OGL LOG] matrix not stored update host matrix
[OGL LOG] update_host_mtx : 3 ms
[OGL LOG] matrix is not yet sorted, sorting host matrix
[OGL LOG] sort_host_mtx_sparsity_pattern : 3 ms
[OGL LOG] sort_host_mtx : 1 ms
[OGL LOG] init_preconditioner : 0 ms
[OGL LOG] solve : 26 ms
nonehipGKOIR:  Solving for p, Initial residual = 0.0705425, Final residual = 1.41728e-05, No Iterations 2
linear solve p 43287
time step continuity errors : sum local = 1.13019e-08, global = 1.12415e-20, cumulative = 2.24533e-21
ExecutionTime = 1.17 s  ClockTime = 1 s

Time = 0.004

Courant Number mean: 0.0233284 max: 0.175141
DILUPBiCGStab:  Solving for Ux, Initial residual = 0.0520815, Final residual = 2.37849e-10, No Iterations 5
DILUPBiCGStab:  Solving for Uy, Initial residual = 0.0742338, Final residual = 1.97822e-10, No Iterations 5
DILUPBiCGStab:  Solving for Uz, Initial residual = 0.128272, Final residual = 4.9241e-10, No Iterations 5
linear solve U 10051
[OGL LOG] init_host_sparsity_pattern : 6 ms
[OGL LOG] matrix not stored update host matrix
[OGL LOG] update_host_mtx : 3 ms
[OGL LOG] matrix is not yet sorted, sorting host matrix
[OGL LOG] sort_host_mtx_sparsity_pattern : 3 ms
[OGL LOG] sort_host_mtx : 1 ms
[OGL LOG] init_preconditioner : 0 ms
[OGL LOG] solve : 26 ms
nonehipGKOIR:  Solving for p, Initial residual = 0.0554215, Final residual = 1.15879e-05, No Iterations 2
linear solve p 43748
time step continuity errors : sum local = 9.2238e-09, global = 2.10937e-20, cumulative = 2.33391e-20
[OGL LOG] init_host_sparsity_pattern : 7 ms
[OGL LOG] matrix not stored update host matrix
[OGL LOG] update_host_mtx : 3 ms
[OGL LOG] matrix is not yet sorted, sorting host matrix
[OGL LOG] sort_host_mtx_sparsity_pattern : 2 ms
[OGL LOG] sort_host_mtx : 1 ms
[OGL LOG] init_preconditioner : 0 ms
[OGL LOG] solve : 26 ms
nonehipGKOIR:  Solving for p, Initial residual = 0.0373158, Final residual = 7.95465e-06, No Iterations 2
linear solve p 43524
time step continuity errors : sum local = 6.46164e-09, global = 2.05648e-21, cumulative = 2.53955e-20
ExecutionTime = 1.32 s  ClockTime = 1 s

Time = 0.005

Courant Number mean: 0.0265076 max: 0.186525
DILUPBiCGStab:  Solving for Ux, Initial residual = 0.0351616, Final residual = 1.72277e-10, No Iterations 5
DILUPBiCGStab:  Solving for Uy, Initial residual = 0.050714, Final residual = 1.02666e-10, No Iterations 5
DILUPBiCGStab:  Solving for Uz, Initial residual = 0.0902275, Final residual = 2.76623e-10, No Iterations 5
linear solve U 10054
[OGL LOG] init_host_sparsity_pattern : 6 ms
[OGL LOG] matrix not stored update host matrix
[OGL LOG] update_host_mtx : 4 ms
[OGL LOG] matrix is not yet sorted, sorting host matrix
[OGL LOG] sort_host_mtx_sparsity_pattern : 2 ms
[OGL LOG] sort_host_mtx : 1 ms
[OGL LOG] init_preconditioner : 0 ms
[OGL LOG] solve : 26 ms
nonehipGKOIR:  Solving for p, Initial residual = 0.0349253, Final residual = 7.55355e-06, No Iterations 2
linear solve p 43453
time step continuity errors : sum local = 6.17042e-09, global = 3.43435e-20, cumulative = 5.9739e-20
[OGL LOG] init_host_sparsity_pattern : 6 ms
[OGL LOG] matrix not stored update host matrix
[OGL LOG] update_host_mtx : 4 ms
[OGL LOG] matrix is not yet sorted, sorting host matrix
[OGL LOG] sort_host_mtx_sparsity_pattern : 2 ms
[OGL LOG] sort_host_mtx : 1 ms
[OGL LOG] init_preconditioner : 0 ms
[OGL LOG] solve : 26 ms
nonehipGKOIR:  Solving for p, Initial residual = 0.0231541, Final residual = 4.23945e-06, No Iterations 2
linear solve p 43482
time step continuity errors : sum local = 3.50719e-09, global = -1.07025e-20, cumulative = 4.90366e-20
ExecutionTime = 1.47 s  ClockTime = 1 s

Time = 0.006

Courant Number mean: 0.0289086 max: 0.193356
DILUPBiCGStab:  Solving for Ux, Initial residual = 0.0259589, Final residual = 7.70557e-11, No Iterations 5
DILUPBiCGStab:  Solving for Uy, Initial residual = 0.0379163, Final residual = 6.95989e-11, No Iterations 5
DILUPBiCGStab:  Solving for Uz, Initial residual = 0.0699768, Final residual = 1.81159e-10, No Iterations 5
linear solve U 10177
[OGL LOG] init_host_sparsity_pattern : 7 ms
[OGL LOG] matrix not stored update host matrix
[OGL LOG] update_host_mtx : 3 ms
[OGL LOG] matrix is not yet sorted, sorting host matrix
[OGL LOG] sort_host_mtx_sparsity_pattern : 2 ms
[OGL LOG] sort_host_mtx : 1 ms
[OGL LOG] init_preconditioner : 0 ms
[OGL LOG] solve : 26 ms
nonehipGKOIR:  Solving for p, Initial residual = 0.0243719, Final residual = 5.61502e-06, No Iterations 2
linear solve p 43352
time step continuity errors : sum local = 4.66841e-09, global = 2.89754e-21, cumulative = 5.19341e-20
[OGL LOG] init_host_sparsity_pattern : 6 ms
[OGL LOG] matrix not stored update host matrix
[OGL LOG] update_host_mtx : 3 ms
[OGL LOG] matrix is not yet sorted, sorting host matrix
[OGL LOG] sort_host_mtx_sparsity_pattern : 3 ms
[OGL LOG] sort_host_mtx : 1 ms
[OGL LOG] init_preconditioner : 0 ms
[OGL LOG] solve : 26 ms
nonehipGKOIR:  Solving for p, Initial residual = 0.0163107, Final residual = 2.96497e-06, No Iterations 2
linear solve p 43509
time step continuity errors : sum local = 2.48483e-09, global = -1.49474e-21, cumulative = 5.04394e-20
ExecutionTime = 1.63 s  ClockTime = 1 s

Time = 0.007

Courant Number mean: 0.0308445 max: 0.197909
DILUPBiCGStab:  Solving for Ux, Initial residual = 0.0203709, Final residual = 3.51627e-11, No Iterations 5
DILUPBiCGStab:  Solving for Uy, Initial residual = 0.0299589, Final residual = 5.19013e-11, No Iterations 5
DILUPBiCGStab:  Solving for Uz, Initial residual = 0.0568592, Final residual = 1.29435e-10, No Iterations 5
linear solve U 10093
[OGL LOG] init_host_sparsity_pattern : 6 ms
[OGL LOG] matrix not stored update host matrix
[OGL LOG] update_host_mtx : 4 ms
[OGL LOG] matrix is not yet sorted, sorting host matrix
[OGL LOG] sort_host_mtx_sparsity_pattern : 3 ms
[OGL LOG] sort_host_mtx : 1 ms
[OGL LOG] init_preconditioner : 0 ms
[OGL LOG] solve : 26 ms
nonehipGKOIR:  Solving for p, Initial residual = 0.0185757, Final residual = 3.68009e-06, No Iterations 2
linear solve p 44028
time step continuity errors : sum local = 3.09704e-09, global = 1.14107e-20, cumulative = 6.18501e-20
[OGL LOG] init_host_sparsity_pattern : 6 ms
[OGL LOG] matrix not stored update host matrix
[OGL LOG] update_host_mtx : 4 ms
[OGL LOG] matrix is not yet sorted, sorting host matrix
[OGL LOG] sort_host_mtx_sparsity_pattern : 2 ms
[OGL LOG] sort_host_mtx : 1 ms
[OGL LOG] init_preconditioner : 0 ms
[OGL LOG] solve : 27 ms
nonehipGKOIR:  Solving for p, Initial residual = 0.0125446, Final residual = 2.08062e-06, No Iterations 2
linear solve p 44058
time step continuity errors : sum local = 1.76047e-09, global = -2.36569e-20, cumulative = 3.81932e-20
ExecutionTime = 1.78 s  ClockTime = 1 s

Time = 0.008

Courant Number mean: 0.0324895 max: 0.201188
DILUPBiCGStab:  Solving for Ux, Initial residual = 0.0165347, Final residual = 1.96167e-11, No Iterations 5
DILUPBiCGStab:  Solving for Uy, Initial residual = 0.0245527, Final residual = 3.9543e-11, No Iterations 5
DILUPBiCGStab:  Solving for Uz, Initial residual = 0.0475335, Final residual = 9.66278e-11, No Iterations 5
linear solve U 10130
[OGL LOG] init_host_sparsity_pattern : 7 ms
[OGL LOG] matrix not stored update host matrix
[OGL LOG] update_host_mtx : 4 ms
[OGL LOG] matrix is not yet sorted, sorting host matrix
[OGL LOG] sort_host_mtx_sparsity_pattern : 2 ms
[OGL LOG] sort_host_mtx : 1 ms
[OGL LOG] init_preconditioner : 0 ms
[OGL LOG] solve : 27 ms
nonehipGKOIR:  Solving for p, Initial residual = 0.014844, Final residual = 2.91938e-06, No Iterations 2
linear solve p 43899
time step continuity errors : sum local = 2.47902e-09, global = -2.81742e-20, cumulative = 1.0019e-20
[OGL LOG] init_host_sparsity_pattern : 7 ms
[OGL LOG] matrix not stored update host matrix
[OGL LOG] update_host_mtx : 3 ms
[OGL LOG] matrix is not yet sorted, sorting host matrix
[OGL LOG] sort_host_mtx_sparsity_pattern : 2 ms
[OGL LOG] sort_host_mtx : 1 ms
[OGL LOG] init_preconditioner : 0 ms
[OGL LOG] solve : 27 ms
nonehipGKOIR:  Solving for p, Initial residual = 0.0100853, Final residual = 1.67569e-06, No Iterations 2
linear solve p 43837
time step continuity errors : sum local = 1.42879e-09, global = 2.90742e-21, cumulative = 1.29264e-20
ExecutionTime = 1.93 s  ClockTime = 1 s

Time = 0.009

Courant Number mean: 0.0338929 max: 0.203683
DILUPBiCGStab:  Solving for Ux, Initial residual = 0.0137936, Final residual = 1.28007e-11, No Iterations 5
DILUPBiCGStab:  Solving for Uy, Initial residual = 0.0206364, Final residual = 3.02669e-11, No Iterations 5
DILUPBiCGStab:  Solving for Uz, Initial residual = 0.0405349, Final residual = 7.46133e-11, No Iterations 5
linear solve U 10102
[OGL LOG] init_host_sparsity_pattern : 6 ms
[OGL LOG] matrix not stored update host matrix
[OGL LOG] update_host_mtx : 4 ms
[OGL LOG] matrix is not yet sorted, sorting host matrix
[OGL LOG] sort_host_mtx_sparsity_pattern : 3 ms
[OGL LOG] sort_host_mtx : 1 ms
[OGL LOG] init_preconditioner : 0 ms
[OGL LOG] solve : 27 ms
nonehipGKOIR:  Solving for p, Initial residual = 0.0122956, Final residual = 2.27804e-06, No Iterations 2
linear solve p 44362
time step continuity errors : sum local = 1.94856e-09, global = 4.20898e-21, cumulative = 1.71354e-20
[OGL LOG] init_host_sparsity_pattern : 6 ms
[OGL LOG] matrix not stored update host matrix
[OGL LOG] update_host_mtx : 4 ms
[OGL LOG] matrix is not yet sorted, sorting host matrix
[OGL LOG] sort_host_mtx_sparsity_pattern : 2 ms
[OGL LOG] sort_host_mtx : 1 ms
[OGL LOG] init_preconditioner : 0 ms
[OGL LOG] solve : 27 ms
nonehipGKOIR:  Solving for p, Initial residual = 0.00840003, Final residual = 1.42237e-06, No Iterations 2
linear solve p 43860
time step continuity errors : sum local = 1.22039e-09, global = 1.80667e-20, cumulative = 3.52021e-20
ExecutionTime = 2.09 s  ClockTime = 1 s

Time = 0.01

Courant Number mean: 0.0351034 max: 0.205656
DILUPBiCGStab:  Solving for Ux, Initial residual = 0.0117269, Final residual = 9.28934e-12, No Iterations 5
DILUPBiCGStab:  Solving for Uy, Initial residual = 0.0176653, Final residual = 2.34151e-11, No Iterations 5
DILUPBiCGStab:  Solving for Uz, Initial residual = 0.0350809, Final residual = 5.82957e-11, No Iterations 5
linear solve U 10114
[OGL LOG] init_host_sparsity_pattern : 7 ms
[OGL LOG] matrix not stored update host matrix
[OGL LOG] update_host_mtx : 3 ms
[OGL LOG] matrix is not yet sorted, sorting host matrix
[OGL LOG] sort_host_mtx_sparsity_pattern : 2 ms
[OGL LOG] sort_host_mtx : 1 ms
[OGL LOG] init_preconditioner : 0 ms
[OGL LOG] solve : 26 ms
nonehipGKOIR:  Solving for p, Initial residual = 0.0103786, Final residual = 1.78373e-06, No Iterations 2
linear solve p 43741
time step continuity errors : sum local = 1.53469e-09, global = 6.08508e-21, cumulative = 4.12872e-20
[OGL LOG] init_host_sparsity_pattern : 6 ms
[OGL LOG] matrix not stored update host matrix
[OGL LOG] update_host_mtx : 4 ms
[OGL LOG] matrix is not yet sorted, sorting host matrix
[OGL LOG] sort_host_mtx_sparsity_pattern : 4 ms
[OGL LOG] sort_host_mtx : 2 ms
[OGL LOG] init_preconditioner : 0 ms
[OGL LOG] solve : 29 ms
nonehipGKOIR:  Solving for p, Initial residual = 0.00712431, Final residual = 1.14487e-06, No Iterations 2
linear solve p 51053
time step continuity errors : sum local = 9.87359e-10, global = -3.0408e-21, cumulative = 3.82464e-20
ExecutionTime = 2.25 s  ClockTime = 1 s

End

