/*---------------------------------------------------------------------------*\
  =========                 |
  \\      /  F ield         | OpenFOAM: The Open Source CFD Toolbox
   \\    /   O peration     | Website:  https://openfoam.org
    \\  /    A nd           | Version:  8
     \\/     M anipulation  |
\*---------------------------------------------------------------------------*/
Build  : 8-14d69e1ee166
Exec   : icoFoam
Date   : Jul 29 2021
Time   : 08:36:18
Host   : "guyot.icl.utk.edu"
PID    : 150553
I/O    : uncollated
Case   : /home/greole/code/OBR/lidDrivenCavity3D/Variation_mesh/15/Variation_matrix_solver/CG_BJ_CUDA/base
nProcs : 1
sigFpe : Enabling floating point exception trapping (FOAM_SIGFPE).
fileModificationChecking : Monitoring run-time modified files using timeStampMaster (fileModificationSkew 10)
allowSystemOperations : Allowing user-supplied system call operations

// * * * * * * * * * * * * * * * * * * * * * * * * * * * * * * * * * * * * * //
Create time

Create mesh for time = 0

Reading transportProperties

Reading field p

Reading field U

Reading/calculating face flux field phi


Starting time loop

Time = 0.001

Courant Number mean: 0 max: 0
DILUPBiCGStab:  Solving for Ux, Initial residual = 1, Final residual = 1.1028e-13, No Iterations 5
DILUPBiCGStab:  Solving for Uy:  solution singularity
DILUPBiCGStab:  Solving for Uz:  solution singularity
linear solve U 1353
[OGL LOG] init_host_sparsity_pattern : 1 ms
[OGL LOG] matrix not stored update host matrix
[OGL LOG] update_host_mtx : 0 ms
[OGL LOG] matrix is not yet sorted, compute sorting idxs
[OGL LOG] compute_sort : 24 ms
[OGL LOG] matrix is not yet sorted, sorting host matrix
[OGL LOG] sort_host_mtx_sparsity_pattern : 0 ms
[OGL LOG] sort_host_mtx : 0 ms
[OGL LOG] init_preconditioner : 1 ms
 CG create  precond 
[OGL LOG] solve : 21 ms
BJcudaGKOCG:  Solving for p, Initial residual = 1, Final residual = 8.8985e-05, No Iterations 94
linear solve p 1694708
time step continuity errors : sum local = 3.73784e-08, global = -1.13424e-20, cumulative = -1.13424e-20
[OGL LOG] init_host_sparsity_pattern : 1 ms
[OGL LOG] matrix not stored update host matrix
[OGL LOG] update_host_mtx : 0 ms
[OGL LOG] matrix is not yet sorted, sorting host matrix
[OGL LOG] sort_host_mtx_sparsity_pattern : 0 ms
[OGL LOG] sort_host_mtx : 0 ms
[OGL LOG] init_preconditioner : 0 ms
 CG create  precond 
[OGL LOG] solve : 19 ms
BJcudaGKOCG:  Solving for p, Initial residual = 0.316804, Final residual = 8.85325e-05, No Iterations 89
linear solve p 22912
time step continuity errors : sum local = 6.50866e-08, global = 6.11347e-21, cumulative = -5.22894e-21
ExecutionTime = 1.77 s  ClockTime = 2 s

Time = 0.002

Courant Number mean: 0.00559441 max: 0.0357002
DILUPBiCGStab:  Solving for Ux, Initial residual = 0.242393, Final residual = 1.13972e-14, No Iterations 5
DILUPBiCGStab:  Solving for Uy, Initial residual = 0.296208, Final residual = 1.1243e-14, No Iterations 5
DILUPBiCGStab:  Solving for Uz, Initial residual = 0.684738, Final residual = 3.38467e-14, No Iterations 5
linear solve U 2089
[OGL LOG] init_host_sparsity_pattern : 1 ms
[OGL LOG] matrix not stored update host matrix
[OGL LOG] update_host_mtx : 0 ms
[OGL LOG] matrix is not yet sorted, sorting host matrix
[OGL LOG] sort_host_mtx_sparsity_pattern : 0 ms
[OGL LOG] sort_host_mtx : 0 ms
[OGL LOG] init_preconditioner : 0 ms
 CG create  precond 
[OGL LOG] solve : 18 ms
BJcudaGKOCG:  Solving for p, Initial residual = 0.156969, Final residual = 9.01756e-05, No Iterations 82
linear solve p 21433
time step continuity errors : sum local = 6.46395e-08, global = -4.25657e-21, cumulative = -9.48551e-21
[OGL LOG] init_host_sparsity_pattern : 1 ms
[OGL LOG] matrix not stored update host matrix
[OGL LOG] update_host_mtx : 0 ms
[OGL LOG] matrix is not yet sorted, sorting host matrix
[OGL LOG] sort_host_mtx_sparsity_pattern : 0 ms
[OGL LOG] sort_host_mtx : 0 ms
[OGL LOG] init_preconditioner : 0 ms
 CG create  precond 
[OGL LOG] solve : 16 ms
BJcudaGKOCG:  Solving for p, Initial residual = 0.0605701, Final residual = 8.2831e-05, No Iterations 77
linear solve p 20206
time step continuity errors : sum local = 6.46463e-08, global = 1.75875e-20, cumulative = 8.102e-21
ExecutionTime = 1.81 s  ClockTime = 2 s

Time = 0.003

Courant Number mean: 0.00940318 max: 0.0587296
DILUPBiCGStab:  Solving for Ux, Initial residual = 0.117973, Final residual = 5.344e-15, No Iterations 5
DILUPBiCGStab:  Solving for Uy, Initial residual = 0.148717, Final residual = 5.3485e-15, No Iterations 5
DILUPBiCGStab:  Solving for Uz, Initial residual = 0.319414, Final residual = 1.48423e-14, No Iterations 5
linear solve U 2074
[OGL LOG] init_host_sparsity_pattern : 1 ms
[OGL LOG] matrix not stored update host matrix
[OGL LOG] update_host_mtx : 0 ms
[OGL LOG] matrix is not yet sorted, sorting host matrix
[OGL LOG] sort_host_mtx_sparsity_pattern : 0 ms
[OGL LOG] sort_host_mtx : 0 ms
[OGL LOG] init_preconditioner : 0 ms
 CG create  precond 
[OGL LOG] solve : 17 ms
BJcudaGKOCG:  Solving for p, Initial residual = 0.0758882, Final residual = 8.87359e-05, No Iterations 79
linear solve p 20718
time step continuity errors : sum local = 7.1236e-08, global = 1.74446e-20, cumulative = 2.55466e-20
[OGL LOG] init_host_sparsity_pattern : 1 ms
[OGL LOG] matrix not stored update host matrix
[OGL LOG] update_host_mtx : 0 ms
[OGL LOG] matrix is not yet sorted, sorting host matrix
[OGL LOG] sort_host_mtx_sparsity_pattern : 0 ms
[OGL LOG] sort_host_mtx : 0 ms
[OGL LOG] init_preconditioner : 0 ms
 CG create  precond 
[OGL LOG] solve : 16 ms
BJcudaGKOCG:  Solving for p, Initial residual = 0.0340652, Final residual = 7.43599e-05, No Iterations 75
linear solve p 19833
time step continuity errors : sum local = 6.23292e-08, global = 1.86901e-20, cumulative = 4.42368e-20
ExecutionTime = 1.86 s  ClockTime = 2 s

Time = 0.004

Courant Number mean: 0.0121905 max: 0.0737268
DILUPBiCGStab:  Solving for Ux, Initial residual = 0.0723349, Final residual = 2.98996e-15, No Iterations 5
DILUPBiCGStab:  Solving for Uy, Initial residual = 0.0916578, Final residual = 3.02129e-15, No Iterations 5
DILUPBiCGStab:  Solving for Uz, Initial residual = 0.182401, Final residual = 7.95617e-15, No Iterations 5
linear solve U 2074
[OGL LOG] init_host_sparsity_pattern : 1 ms
[OGL LOG] matrix not stored update host matrix
[OGL LOG] update_host_mtx : 0 ms
[OGL LOG] matrix is not yet sorted, sorting host matrix
[OGL LOG] sort_host_mtx_sparsity_pattern : 0 ms
[OGL LOG] sort_host_mtx : 0 ms
[OGL LOG] init_preconditioner : 0 ms
 CG create  precond 
[OGL LOG] solve : 16 ms
BJcudaGKOCG:  Solving for p, Initial residual = 0.049196, Final residual = 7.62941e-05, No Iterations 77
linear solve p 20292
time step continuity errors : sum local = 6.51346e-08, global = 1.89806e-20, cumulative = 6.32174e-20
[OGL LOG] init_host_sparsity_pattern : 1 ms
[OGL LOG] matrix not stored update host matrix
[OGL LOG] update_host_mtx : 0 ms
[OGL LOG] matrix is not yet sorted, sorting host matrix
[OGL LOG] sort_host_mtx_sparsity_pattern : 0 ms
[OGL LOG] sort_host_mtx : 0 ms
[OGL LOG] init_preconditioner : 0 ms
 CG create  precond 
[OGL LOG] solve : 16 ms
BJcudaGKOCG:  Solving for p, Initial residual = 0.0220925, Final residual = 7.23317e-05, No Iterations 74
linear solve p 19602
time step continuity errors : sum local = 6.33059e-08, global = 1.08136e-20, cumulative = 7.4031e-20
ExecutionTime = 1.9 s  ClockTime = 2 s

Time = 0.005

Courant Number mean: 0.014306 max: 0.0838051
DILUPBiCGStab:  Solving for Ux, Initial residual = 0.0485641, Final residual = 1.79907e-15, No Iterations 5
DILUPBiCGStab:  Solving for Uy, Initial residual = 0.0627374, Final residual = 1.7476e-15, No Iterations 5
DILUPBiCGStab:  Solving for Uz, Initial residual = 0.12972, Final residual = 5.47922e-15, No Iterations 5
linear solve U 2078
[OGL LOG] init_host_sparsity_pattern : 1 ms
[OGL LOG] matrix not stored update host matrix
[OGL LOG] update_host_mtx : 0 ms
[OGL LOG] matrix is not yet sorted, sorting host matrix
[OGL LOG] sort_host_mtx_sparsity_pattern : 0 ms
[OGL LOG] sort_host_mtx : 0 ms
[OGL LOG] init_preconditioner : 0 ms
 CG create  precond 
[OGL LOG] solve : 16 ms
BJcudaGKOCG:  Solving for p, Initial residual = 0.035935, Final residual = 9.7838e-05, No Iterations 75
linear solve p 19836
time step continuity errors : sum local = 8.67894e-08, global = 4.02195e-20, cumulative = 1.14251e-19
[OGL LOG] init_host_sparsity_pattern : 1 ms
[OGL LOG] matrix not stored update host matrix
[OGL LOG] update_host_mtx : 0 ms
[OGL LOG] matrix is not yet sorted, sorting host matrix
[OGL LOG] sort_host_mtx_sparsity_pattern : 0 ms
[OGL LOG] sort_host_mtx : 0 ms
[OGL LOG] init_preconditioner : 0 ms
 CG create  precond 
[OGL LOG] solve : 15 ms
BJcudaGKOCG:  Solving for p, Initial residual = 0.0152467, Final residual = 8.82086e-05, No Iterations 72
linear solve p 19159
time step continuity errors : sum local = 7.96448e-08, global = 5.21624e-21, cumulative = 1.19467e-19
ExecutionTime = 1.94 s  ClockTime = 2 s

Time = 0.006

Courant Number mean: 0.0159484 max: 0.0908032
DILUPBiCGStab:  Solving for Ux, Initial residual = 0.0353496, Final residual = 1.17444e-15, No Iterations 5
DILUPBiCGStab:  Solving for Uy, Initial residual = 0.0460981, Final residual = 1.06315e-15, No Iterations 5
DILUPBiCGStab:  Solving for Uz, Initial residual = 0.0994511, Final residual = 3.99733e-15, No Iterations 5
linear solve U 2083
[OGL LOG] init_host_sparsity_pattern : 1 ms
[OGL LOG] matrix not stored update host matrix
[OGL LOG] update_host_mtx : 0 ms
[OGL LOG] matrix is not yet sorted, sorting host matrix
[OGL LOG] sort_host_mtx_sparsity_pattern : 0 ms
[OGL LOG] sort_host_mtx : 0 ms
[OGL LOG] init_preconditioner : 0 ms
 CG create  precond 
[OGL LOG] solve : 16 ms
BJcudaGKOCG:  Solving for p, Initial residual = 0.0288413, Final residual = 9.18222e-05, No Iterations 74
linear solve p 19647
time step continuity errors : sum local = 8.41638e-08, global = -1.82583e-20, cumulative = 1.01208e-19
[OGL LOG] init_host_sparsity_pattern : 1 ms
[OGL LOG] matrix not stored update host matrix
[OGL LOG] update_host_mtx : 0 ms
[OGL LOG] matrix is not yet sorted, sorting host matrix
[OGL LOG] sort_host_mtx_sparsity_pattern : 0 ms
[OGL LOG] sort_host_mtx : 0 ms
[OGL LOG] init_preconditioner : 0 ms
 CG create  precond 
[OGL LOG] solve : 15 ms
BJcudaGKOCG:  Solving for p, Initial residual = 0.0110215, Final residual = 9.31738e-05, No Iterations 70
linear solve p 18815
time step continuity errors : sum local = 8.6656e-08, global = -5.84703e-21, cumulative = 9.53614e-20
ExecutionTime = 1.99 s  ClockTime = 2 s

Time = 0.007

Courant Number mean: 0.0172719 max: 0.0958251
DILUPBiCGStab:  Solving for Ux, Initial residual = 0.0271632, Final residual = 8.70848e-16, No Iterations 5
DILUPBiCGStab:  Solving for Uy, Initial residual = 0.0356267, Final residual = 7.40825e-16, No Iterations 5
DILUPBiCGStab:  Solving for Uz, Initial residual = 0.0794463, Final residual = 3.12034e-15, No Iterations 5
linear solve U 2078
[OGL LOG] init_host_sparsity_pattern : 1 ms
[OGL LOG] matrix not stored update host matrix
[OGL LOG] update_host_mtx : 0 ms
[OGL LOG] matrix is not yet sorted, sorting host matrix
[OGL LOG] sort_host_mtx_sparsity_pattern : 0 ms
[OGL LOG] sort_host_mtx : 0 ms
[OGL LOG] init_preconditioner : 0 ms
 CG create  precond 
[OGL LOG] solve : 16 ms
BJcudaGKOCG:  Solving for p, Initial residual = 0.0217441, Final residual = 8.79891e-05, No Iterations 73
linear solve p 19395
time step continuity errors : sum local = 8.26822e-08, global = -1.89436e-20, cumulative = 7.64178e-20
[OGL LOG] init_host_sparsity_pattern : 1 ms
[OGL LOG] matrix not stored update host matrix
[OGL LOG] update_host_mtx : 0 ms
[OGL LOG] matrix is not yet sorted, sorting host matrix
[OGL LOG] sort_host_mtx_sparsity_pattern : 0 ms
[OGL LOG] sort_host_mtx : 0 ms
[OGL LOG] init_preconditioner : 0 ms
 CG create  precond 
[OGL LOG] solve : 7 ms
BJcudaGKOCG:  Solving for p, Initial residual = 0.00860086, Final residual = 8.93814e-05, No Iterations 33
linear solve p 11000
time step continuity errors : sum local = 1.10361e-07, global = -2.71111e-20, cumulative = 4.93068e-20
ExecutionTime = 2.02 s  ClockTime = 2 s

Time = 0.008

Courant Number mean: 0.0183554 max: 0.0995503
DILUPBiCGStab:  Solving for Ux, Initial residual = 0.0216519, Final residual = 6.39037e-16, No Iterations 5
DILUPBiCGStab:  Solving for Uy, Initial residual = 0.0286206, Final residual = 5.78671e-16, No Iterations 5
DILUPBiCGStab:  Solving for Uz, Initial residual = 0.0649636, Final residual = 2.4936e-15, No Iterations 5
linear solve U 2078
[OGL LOG] init_host_sparsity_pattern : 1 ms
[OGL LOG] matrix not stored update host matrix
[OGL LOG] update_host_mtx : 0 ms
[OGL LOG] matrix is not yet sorted, sorting host matrix
[OGL LOG] sort_host_mtx_sparsity_pattern : 0 ms
[OGL LOG] sort_host_mtx : 0 ms
[OGL LOG] init_preconditioner : 0 ms
 CG create  precond 
[OGL LOG] solve : 7 ms
BJcudaGKOCG:  Solving for p, Initial residual = 0.0163342, Final residual = 9.85258e-05, No Iterations 34
linear solve p 11182
time step continuity errors : sum local = 9.59003e-08, global = -1.32018e-21, cumulative = 4.79866e-20
[OGL LOG] init_host_sparsity_pattern : 1 ms
[OGL LOG] matrix not stored update host matrix
[OGL LOG] update_host_mtx : 0 ms
[OGL LOG] matrix is not yet sorted, sorting host matrix
[OGL LOG] sort_host_mtx_sparsity_pattern : 0 ms
[OGL LOG] sort_host_mtx : 0 ms
[OGL LOG] init_preconditioner : 0 ms
 CG create  precond 
[OGL LOG] solve : 6 ms
BJcudaGKOCG:  Solving for p, Initial residual = 0.00664682, Final residual = 9.77994e-05, No Iterations 29
linear solve p 10088
time step continuity errors : sum local = 1.08664e-07, global = -3.26013e-21, cumulative = 4.47265e-20
ExecutionTime = 2.04 s  ClockTime = 2 s

Time = 0.009

Courant Number mean: 0.0192552 max: 0.102395
DILUPBiCGStab:  Solving for Ux, Initial residual = 0.0176813, Final residual = 4.36975e-16, No Iterations 5
DILUPBiCGStab:  Solving for Uy, Initial residual = 0.0236222, Final residual = 4.83065e-16, No Iterations 5
DILUPBiCGStab:  Solving for Uz, Initial residual = 0.0544414, Final residual = 1.87805e-15, No Iterations 5
linear solve U 2077
[OGL LOG] init_host_sparsity_pattern : 1 ms
[OGL LOG] matrix not stored update host matrix
[OGL LOG] update_host_mtx : 0 ms
[OGL LOG] matrix is not yet sorted, sorting host matrix
[OGL LOG] sort_host_mtx_sparsity_pattern : 0 ms
[OGL LOG] sort_host_mtx : 0 ms
[OGL LOG] init_preconditioner : 0 ms
 CG create  precond 
[OGL LOG] solve : 7 ms
BJcudaGKOCG:  Solving for p, Initial residual = 0.0132668, Final residual = 8.21628e-05, No Iterations 34
linear solve p 11148
time step continuity errors : sum local = 9.65216e-08, global = 6.75899e-21, cumulative = 5.14855e-20
[OGL LOG] init_host_sparsity_pattern : 1 ms
[OGL LOG] matrix not stored update host matrix
[OGL LOG] update_host_mtx : 0 ms
[OGL LOG] matrix is not yet sorted, sorting host matrix
[OGL LOG] sort_host_mtx_sparsity_pattern : 0 ms
[OGL LOG] sort_host_mtx : 0 ms
[OGL LOG] init_preconditioner : 0 ms
 CG create  precond 
[OGL LOG] solve : 6 ms
BJcudaGKOCG:  Solving for p, Initial residual = 0.0053939, Final residual = 7.97347e-05, No Iterations 29
linear solve p 10059
time step continuity errors : sum local = 8.22958e-08, global = 4.0755e-20, cumulative = 9.22404e-20
ExecutionTime = 2.07 s  ClockTime = 2 s

Time = 0.01

Courant Number mean: 0.0200143 max: 0.104627
DILUPBiCGStab:  Solving for Ux, Initial residual = 0.0147299, Final residual = 2.84321e-16, No Iterations 5
DILUPBiCGStab:  Solving for Uy, Initial residual = 0.0199284, Final residual = 4.01652e-16, No Iterations 5
DILUPBiCGStab:  Solving for Uz, Initial residual = 0.04634, Final residual = 1.54047e-15, No Iterations 5
linear solve U 2078
[OGL LOG] init_host_sparsity_pattern : 1 ms
[OGL LOG] matrix not stored update host matrix
[OGL LOG] update_host_mtx : 0 ms
[OGL LOG] matrix is not yet sorted, sorting host matrix
[OGL LOG] sort_host_mtx_sparsity_pattern : 0 ms
[OGL LOG] sort_host_mtx : 0 ms
[OGL LOG] init_preconditioner : 0 ms
 CG create  precond 
[OGL LOG] solve : 7 ms
BJcudaGKOCG:  Solving for p, Initial residual = 0.0111358, Final residual = 8.68973e-05, No Iterations 34
linear solve p 11159
time step continuity errors : sum local = 1.17232e-07, global = 7.73021e-21, cumulative = 9.99707e-20
[OGL LOG] init_host_sparsity_pattern : 1 ms
[OGL LOG] matrix not stored update host matrix
[OGL LOG] update_host_mtx : 0 ms
[OGL LOG] matrix is not yet sorted, sorting host matrix
[OGL LOG] sort_host_mtx_sparsity_pattern : 0 ms
[OGL LOG] sort_host_mtx : 0 ms
[OGL LOG] init_preconditioner : 0 ms
 CG create  precond 
[OGL LOG] solve : 6 ms
BJcudaGKOCG:  Solving for p, Initial residual = 0.00449091, Final residual = 9.46097e-05, No Iterations 28
linear solve p 9874
time step continuity errors : sum local = 1.14806e-07, global = -3.94001e-20, cumulative = 6.05706e-20
ExecutionTime = 2.09 s  ClockTime = 2 s

End

