/*---------------------------------------------------------------------------*\
  =========                 |
  \\      /  F ield         | OpenFOAM: The Open Source CFD Toolbox
   \\    /   O peration     | Website:  https://openfoam.org
    \\  /    A nd           | Version:  8
     \\/     M anipulation  |
\*---------------------------------------------------------------------------*/
Build  : 8-14d69e1ee166
Exec   : icoFoam
Date   : Jul 29 2021
Time   : 07:09:34
Host   : "guyot.icl.utk.edu"
PID    : 232924
I/O    : uncollated
Case   : /home/greole/code/OBR/lidDrivenCavity3D/Variation_mesh/85/Variation_matrix_solver/CG_NoPrecond_Serial/base
nProcs : 1
sigFpe : Enabling floating point exception trapping (FOAM_SIGFPE).
fileModificationChecking : Monitoring run-time modified files using timeStampMaster (fileModificationSkew 10)
allowSystemOperations : Allowing user-supplied system call operations

// * * * * * * * * * * * * * * * * * * * * * * * * * * * * * * * * * * * * * //
Create time

Create mesh for time = 0

Reading transportProperties

Reading field p

Reading field U

Reading/calculating face flux field phi


Starting time loop

Time = 0.001

Courant Number mean: 0 max: 0
DILUPBiCGStab:  Solving for Ux, Initial residual = 1, Final residual = 0.00382019, No Iterations 5
DILUPBiCGStab:  Solving for Uy:  solution singularity
DILUPBiCGStab:  Solving for Uz:  solution singularity
linear solve U 240237
nonePCG:  Solving for p, Initial residual = 1, Final residual = 9.93068e-05, No Iterations 670
linear solve p 4451056
time step continuity errors : sum local = 5.8023e-08, global = -1.5973e-20, cumulative = -1.5973e-20
nonePCG:  Solving for p, Initial residual = 0.755067, Final residual = 9.60688e-05, No Iterations 662
linear solve p 4415432
time step continuity errors : sum local = 7.23856e-08, global = -5.48904e-21, cumulative = -2.14621e-20
ExecutionTime = 11.98 s  ClockTime = 12 s

Time = 0.002

Courant Number mean: 0.0479746 max: 0.661591
DILUPBiCGStab:  Solving for Ux, Initial residual = 0.144106, Final residual = 0.00147913, No Iterations 5
DILUPBiCGStab:  Solving for Uy, Initial residual = 0.396913, Final residual = 0.00365136, No Iterations 5
DILUPBiCGStab:  Solving for Uz, Initial residual = 0.988281, Final residual = 0.0100644, No Iterations 5
linear solve U 462145
nonePCG:  Solving for p, Initial residual = 0.745874, Final residual = 9.48171e-05, No Iterations 659
linear solve p 4333618
time step continuity errors : sum local = 8.81623e-08, global = -1.72107e-21, cumulative = -2.31832e-20
nonePCG:  Solving for p, Initial residual = 0.680842, Final residual = 9.5481e-05, No Iterations 657
linear solve p 4336909
time step continuity errors : sum local = 9.06152e-08, global = -1.0469e-21, cumulative = -2.42301e-20
ExecutionTime = 21.38 s  ClockTime = 21 s

Time = 0.003

Courant Number mean: 0.0723207 max: 0.775882
DILUPBiCGStab:  Solving for Ux, Initial residual = 0.0580474, Final residual = 0.000501144, No Iterations 5
DILUPBiCGStab:  Solving for Uy, Initial residual = 0.162042, Final residual = 0.0014036, No Iterations 5
DILUPBiCGStab:  Solving for Uz, Initial residual = 0.731048, Final residual = 0.0067981, No Iterations 5
linear solve U 463886
nonePCG:  Solving for p, Initial residual = 0.746304, Final residual = 9.8349e-05, No Iterations 393
linear solve p 2641667
time step continuity errors : sum local = 8.19787e-08, global = -8.73435e-21, cumulative = -3.29644e-20
nonePCG:  Solving for p, Initial residual = 0.706521, Final residual = 9.53006e-05, No Iterations 388
linear solve p 2612268
time step continuity errors : sum local = 7.23984e-08, global = 1.2397e-20, cumulative = -2.05674e-20
ExecutionTime = 27.37 s  ClockTime = 27 s

Time = 0.004

Courant Number mean: 0.0841985 max: 0.778372
DILUPBiCGStab:  Solving for Ux, Initial residual = 0.0310188, Final residual = 0.00029341, No Iterations 5
DILUPBiCGStab:  Solving for Uy, Initial residual = 0.113894, Final residual = 0.000994811, No Iterations 5
DILUPBiCGStab:  Solving for Uz, Initial residual = 0.457894, Final residual = 0.00357772, No Iterations 5
linear solve U 464374
nonePCG:  Solving for p, Initial residual = 0.59245, Final residual = 9.94008e-05, No Iterations 362
linear solve p 2424218
time step continuity errors : sum local = 6.69543e-08, global = -4.71455e-21, cumulative = -2.52819e-20
nonePCG:  Solving for p, Initial residual = 0.52883, Final residual = 9.83185e-05, No Iterations 357
linear solve p 2413897
time step continuity errors : sum local = 6.56169e-08, global = 1.76814e-20, cumulative = -7.6005e-21
ExecutionTime = 32.94 s  ClockTime = 33 s

Time = 0.005

Courant Number mean: 0.0944146 max: 0.789472
DILUPBiCGStab:  Solving for Ux, Initial residual = 0.0232298, Final residual = 0.000192051, No Iterations 5
DILUPBiCGStab:  Solving for Uy, Initial residual = 0.0587772, Final residual = 0.000431794, No Iterations 5
DILUPBiCGStab:  Solving for Uz, Initial residual = 0.267122, Final residual = 0.00208932, No Iterations 5
linear solve U 462682
nonePCG:  Solving for p, Initial residual = 0.548346, Final residual = 9.88737e-05, No Iterations 629
linear solve p 4247274
time step continuity errors : sum local = 5.03427e-08, global = -1.64759e-20, cumulative = -2.40764e-20
nonePCG:  Solving for p, Initial residual = 0.495421, Final residual = 9.6225e-05, No Iterations 644
linear solve p 4323122
time step continuity errors : sum local = 4.84537e-08, global = 5.49632e-21, cumulative = -1.85801e-20
ExecutionTime = 42.24 s  ClockTime = 42 s

Time = 0.006

Courant Number mean: 0.101921 max: 0.79516
DILUPBiCGStab:  Solving for Ux, Initial residual = 0.0150869, Final residual = 0.000114136, No Iterations 5
DILUPBiCGStab:  Solving for Uy, Initial residual = 0.0475356, Final residual = 0.000338808, No Iterations 5
DILUPBiCGStab:  Solving for Uz, Initial residual = 0.192139, Final residual = 0.00152863, No Iterations 5
linear solve U 461464
nonePCG:  Solving for p, Initial residual = 0.404052, Final residual = 9.78962e-05, No Iterations 338
linear solve p 2259815
time step continuity errors : sum local = 5.09294e-08, global = 1.18795e-20, cumulative = -6.70059e-21
nonePCG:  Solving for p, Initial residual = 0.35285, Final residual = 9.78079e-05, No Iterations 308
linear solve p 2062936
time step continuity errors : sum local = 4.78811e-08, global = -1.43503e-20, cumulative = -2.10509e-20
ExecutionTime = 47.29 s  ClockTime = 47 s

Time = 0.007

Courant Number mean: 0.108308 max: 0.798726
DILUPBiCGStab:  Solving for Ux, Initial residual = 0.0125487, Final residual = 8.34826e-05, No Iterations 5
DILUPBiCGStab:  Solving for Uy, Initial residual = 0.0315104, Final residual = 0.000143871, No Iterations 5
DILUPBiCGStab:  Solving for Uz, Initial residual = 0.108452, Final residual = 0.00106073, No Iterations 5
linear solve U 462383
nonePCG:  Solving for p, Initial residual = 0.348869, Final residual = 9.94903e-05, No Iterations 302
linear solve p 2027542
time step continuity errors : sum local = 4.1108e-08, global = 3.42255e-20, cumulative = 1.31747e-20
nonePCG:  Solving for p, Initial residual = 0.303433, Final residual = 9.0471e-05, No Iterations 302
linear solve p 2012191
time step continuity errors : sum local = 3.71931e-08, global = -1.97499e-21, cumulative = 1.11997e-20
ExecutionTime = 52.07 s  ClockTime = 52 s

Time = 0.008

Courant Number mean: 0.11358 max: 0.802059
DILUPBiCGStab:  Solving for Ux, Initial residual = 0.00947147, Final residual = 5.53814e-05, No Iterations 5
DILUPBiCGStab:  Solving for Uy, Initial residual = 0.0266815, Final residual = 0.000128763, No Iterations 5
DILUPBiCGStab:  Solving for Uz, Initial residual = 0.0871249, Final residual = 0.000747354, No Iterations 5
linear solve U 463228
nonePCG:  Solving for p, Initial residual = 0.254626, Final residual = 9.80233e-05, No Iterations 303
linear solve p 2014446
time step continuity errors : sum local = 4.44783e-08, global = 1.4042e-20, cumulative = 2.52417e-20
nonePCG:  Solving for p, Initial residual = 0.219043, Final residual = 9.72914e-05, No Iterations 300
linear solve p 1999385
time step continuity errors : sum local = 4.05406e-08, global = -2.76965e-20, cumulative = -2.45478e-21
ExecutionTime = 56.81 s  ClockTime = 56 s

Time = 0.009

Courant Number mean: 0.118147 max: 0.804085
DILUPBiCGStab:  Solving for Ux, Initial residual = 0.00804442, Final residual = 4.21652e-05, No Iterations 5
DILUPBiCGStab:  Solving for Uy, Initial residual = 0.0203992, Final residual = 6.91565e-05, No Iterations 5
DILUPBiCGStab:  Solving for Uz, Initial residual = 0.0549982, Final residual = 0.00039222, No Iterations 5
linear solve U 468506
nonePCG:  Solving for p, Initial residual = 0.208466, Final residual = 9.63023e-05, No Iterations 293
linear solve p 1967154
time step continuity errors : sum local = 3.92783e-08, global = -8.12103e-21, cumulative = -1.05758e-20
nonePCG:  Solving for p, Initial residual = 0.178067, Final residual = 9.8135e-05, No Iterations 290
linear solve p 1970451
time step continuity errors : sum local = 3.74404e-08, global = 1.46355e-20, cumulative = 4.05964e-21
ExecutionTime = 61.48 s  ClockTime = 61 s

Time = 0.01

Courant Number mean: 0.122092 max: 0.806136
DILUPBiCGStab:  Solving for Ux, Initial residual = 0.00663589, Final residual = 3.18135e-05, No Iterations 5
DILUPBiCGStab:  Solving for Uy, Initial residual = 0.0177254, Final residual = 5.76116e-05, No Iterations 5
DILUPBiCGStab:  Solving for Uz, Initial residual = 0.0483985, Final residual = 0.00034427, No Iterations 5
linear solve U 462438
nonePCG:  Solving for p, Initial residual = 0.156315, Final residual = 9.61366e-05, No Iterations 605
linear solve p 4051706
time step continuity errors : sum local = 3.48915e-08, global = 2.92534e-20, cumulative = 3.33131e-20
nonePCG:  Solving for p, Initial residual = 0.132583, Final residual = 9.75173e-05, No Iterations 603
linear solve p 4028783
time step continuity errors : sum local = 3.53211e-08, global = -2.42367e-20, cumulative = 9.07642e-21
ExecutionTime = 70.29 s  ClockTime = 70 s

End

