/*---------------------------------------------------------------------------*\
  =========                 |
  \\      /  F ield         | OpenFOAM: The Open Source CFD Toolbox
   \\    /   O peration     | Website:  https://openfoam.org
    \\  /    A nd           | Version:  8
     \\/     M anipulation  |
\*---------------------------------------------------------------------------*/
Build  : 8-ef60d22ea792
Exec   : icoFoam
Date   : Jul 29 2021
Time   : 02:35:59
Host   : "uc2n489.localdomain"
PID    : 3408082
I/O    : uncollated
Case   : /pfs/data5/home/kit/scc/nq7776/code/OBR/lidDrivenCavity3D/Variation_mesh/90/Variation_matrix_solver/IR_NoPrecond_CUDA/base
nProcs : 1
sigFpe : Enabling floating point exception trapping (FOAM_SIGFPE).
fileModificationChecking : Monitoring run-time modified files using timeStampMaster (fileModificationSkew 10)
allowSystemOperations : Allowing user-supplied system call operations

// * * * * * * * * * * * * * * * * * * * * * * * * * * * * * * * * * * * * * //
Create time

Create mesh for time = 0

Reading transportProperties

Reading field p

Reading field U

Reading/calculating face flux field phi


Starting time loop

Time = 0.001

Courant Number mean: 0 max: 0
DILUPBiCGStab:  Solving for Ux, Initial residual = 1, Final residual = 0.00485432, No Iterations 5
DILUPBiCGStab:  Solving for Uy:  solution singularity
DILUPBiCGStab:  Solving for Uz:  solution singularity
linear solve U 362788
[OGL LOG] init_host_sparsity_pattern : 208 ms
[OGL LOG] matrix not stored update host matrix
[OGL LOG] update_host_mtx : 107 ms
[OGL LOG] matrix is not yet sorted, compute sorting idxs
[OGL LOG] compute_sort : 6562 ms
[OGL LOG] matrix is not yet sorted, sorting host matrix
[OGL LOG] sort_host_mtx_sparsity_pattern : 149 ms
[OGL LOG] sort_host_mtx : 83 ms
[OGL LOG] init_preconditioner : 0 ms
[OGL LOG] solve : 347 ms
nonecudaGKOIR:  Solving for p, Initial residual = 1, Final residual = 1.30558e-05, No Iterations 3
linear solve p 8253806
time step continuity errors : sum local = 7.61696e-09, global = 8.22474e-21, cumulative = 8.22474e-21
[OGL LOG] init_host_sparsity_pattern : 201 ms
[OGL LOG] matrix not stored update host matrix
[OGL LOG] update_host_mtx : 107 ms
[OGL LOG] matrix is not yet sorted, sorting host matrix
[OGL LOG] sort_host_mtx_sparsity_pattern : 157 ms
[OGL LOG] sort_host_mtx : 75 ms
[OGL LOG] init_preconditioner : 0 ms
[OGL LOG] solve : 351 ms
nonecudaGKOIR:  Solving for p, Initial residual = 0.763308, Final residual = 6.99444e-06, No Iterations 3
linear solve p 937969
time step continuity errors : sum local = 5.21866e-09, global = -2.5231e-21, cumulative = 5.70164e-21
ExecutionTime = 12.61 s  ClockTime = 12 s

Time = 0.002

Courant Number mean: 0.0507368 max: 0.709498
DILUPBiCGStab:  Solving for Ux, Initial residual = 0.142056, Final residual = 0.00197771, No Iterations 5
DILUPBiCGStab:  Solving for Uy, Initial residual = 0.408402, Final residual = 0.00514586, No Iterations 5
DILUPBiCGStab:  Solving for Uz, Initial residual = 0.989084, Final residual = 0.0136246, No Iterations 5
linear solve U 745313
[OGL LOG] init_host_sparsity_pattern : 203 ms
[OGL LOG] matrix not stored update host matrix
[OGL LOG] update_host_mtx : 111 ms
[OGL LOG] matrix is not yet sorted, sorting host matrix
[OGL LOG] sort_host_mtx_sparsity_pattern : 164 ms
[OGL LOG] sort_host_mtx : 75 ms
[OGL LOG] init_preconditioner : 0 ms
[OGL LOG] solve : 353 ms
nonecudaGKOIR:  Solving for p, Initial residual = 0.765676, Final residual = 4.06601e-06, No Iterations 3
linear solve p 963671
time step continuity errors : sum local = 3.91713e-09, global = -7.40163e-22, cumulative = 4.96147e-21
[OGL LOG] init_host_sparsity_pattern : 208 ms
[OGL LOG] matrix not stored update host matrix
[OGL LOG] update_host_mtx : 110 ms
[OGL LOG] matrix is not yet sorted, sorting host matrix
[OGL LOG] sort_host_mtx_sparsity_pattern : 154 ms
[OGL LOG] sort_host_mtx : 74 ms
[OGL LOG] init_preconditioner : 0 ms
[OGL LOG] solve : 351 ms
nonecudaGKOIR:  Solving for p, Initial residual = 0.702757, Final residual = 3.57672e-06, No Iterations 3
linear solve p 948547
time step continuity errors : sum local = 3.51616e-09, global = 4.63286e-21, cumulative = 9.59434e-21
ExecutionTime = 15.79 s  ClockTime = 16 s

Time = 0.003

Courant Number mean: 0.0767031 max: 0.830944
DILUPBiCGStab:  Solving for Ux, Initial residual = 0.0602979, Final residual = 0.000670334, No Iterations 5
DILUPBiCGStab:  Solving for Uy, Initial residual = 0.1814, Final residual = 0.0018351, No Iterations 5
DILUPBiCGStab:  Solving for Uz, Initial residual = 0.75958, Final residual = 0.00949569, No Iterations 5
linear solve U 740989
[OGL LOG] init_host_sparsity_pattern : 200 ms
[OGL LOG] matrix not stored update host matrix
[OGL LOG] update_host_mtx : 108 ms
[OGL LOG] matrix is not yet sorted, sorting host matrix
[OGL LOG] sort_host_mtx_sparsity_pattern : 150 ms
[OGL LOG] sort_host_mtx : 74 ms
[OGL LOG] init_preconditioner : 0 ms
[OGL LOG] solve : 369 ms
nonecudaGKOIR:  Solving for p, Initial residual = 0.780653, Final residual = 3.04836e-06, No Iterations 3
linear solve p 953115
time step continuity errors : sum local = 2.48793e-09, global = 1.30618e-20, cumulative = 2.26562e-20
[OGL LOG] init_host_sparsity_pattern : 208 ms
[OGL LOG] matrix not stored update host matrix
[OGL LOG] update_host_mtx : 107 ms
[OGL LOG] matrix is not yet sorted, sorting host matrix
[OGL LOG] sort_host_mtx_sparsity_pattern : 152 ms
[OGL LOG] sort_host_mtx : 79 ms
[OGL LOG] init_preconditioner : 0 ms
[OGL LOG] solve : 368 ms
nonecudaGKOIR:  Solving for p, Initial residual = 0.74401, Final residual = 2.76007e-06, No Iterations 3
linear solve p 967180
time step continuity errors : sum local = 2.19096e-09, global = 8.51029e-21, cumulative = 3.11665e-20
ExecutionTime = 18.92 s  ClockTime = 19 s

Time = 0.004

Courant Number mean: 0.0889412 max: 0.827773
DILUPBiCGStab:  Solving for Ux, Initial residual = 0.0330623, Final residual = 0.00043935, No Iterations 5
DILUPBiCGStab:  Solving for Uy, Initial residual = 0.129996, Final residual = 0.00153298, No Iterations 5
DILUPBiCGStab:  Solving for Uz, Initial residual = 0.520685, Final residual = 0.00548958, No Iterations 5
linear solve U 724038
[OGL LOG] init_host_sparsity_pattern : 200 ms
[OGL LOG] matrix not stored update host matrix
[OGL LOG] update_host_mtx : 107 ms
[OGL LOG] matrix is not yet sorted, sorting host matrix
[OGL LOG] sort_host_mtx_sparsity_pattern : 165 ms
[OGL LOG] sort_host_mtx : 75 ms
[OGL LOG] init_preconditioner : 0 ms
[OGL LOG] solve : 364 ms
nonecudaGKOIR:  Solving for p, Initial residual = 0.652364, Final residual = 2.48355e-06, No Iterations 3
linear solve p 965567
time step continuity errors : sum local = 1.77444e-09, global = -2.56675e-21, cumulative = 2.85997e-20
[OGL LOG] init_host_sparsity_pattern : 214 ms
[OGL LOG] matrix not stored update host matrix
[OGL LOG] update_host_mtx : 108 ms
[OGL LOG] matrix is not yet sorted, sorting host matrix
[OGL LOG] sort_host_mtx_sparsity_pattern : 150 ms
[OGL LOG] sort_host_mtx : 74 ms
[OGL LOG] init_preconditioner : 0 ms
[OGL LOG] solve : 365 ms
nonecudaGKOIR:  Solving for p, Initial residual = 0.586945, Final residual = 2.05197e-06, No Iterations 3
linear solve p 961553
time step continuity errors : sum local = 1.48669e-09, global = 6.76805e-21, cumulative = 3.53678e-20
ExecutionTime = 22.02 s  ClockTime = 22 s

Time = 0.005

Courant Number mean: 0.0998624 max: 0.839544
DILUPBiCGStab:  Solving for Ux, Initial residual = 0.0250827, Final residual = 0.000294976, No Iterations 5
DILUPBiCGStab:  Solving for Uy, Initial residual = 0.0681918, Final residual = 0.000857101, No Iterations 5
DILUPBiCGStab:  Solving for Uz, Initial residual = 0.370406, Final residual = 0.0036913, No Iterations 5
linear solve U 718884
[OGL LOG] init_host_sparsity_pattern : 200 ms
[OGL LOG] matrix not stored update host matrix
[OGL LOG] update_host_mtx : 108 ms
[OGL LOG] matrix is not yet sorted, sorting host matrix
[OGL LOG] sort_host_mtx_sparsity_pattern : 150 ms
[OGL LOG] sort_host_mtx : 74 ms
[OGL LOG] init_preconditioner : 0 ms
[OGL LOG] solve : 352 ms
nonecudaGKOIR:  Solving for p, Initial residual = 0.628267, Final residual = 2.17738e-06, No Iterations 3
linear solve p 934017
time step continuity errors : sum local = 1.23476e-09, global = 9.29503e-21, cumulative = 4.46628e-20
[OGL LOG] init_host_sparsity_pattern : 208 ms
[OGL LOG] matrix not stored update host matrix
[OGL LOG] update_host_mtx : 108 ms
[OGL LOG] matrix is not yet sorted, sorting host matrix
[OGL LOG] sort_host_mtx_sparsity_pattern : 150 ms
[OGL LOG] sort_host_mtx : 74 ms
[OGL LOG] init_preconditioner : 0 ms
[OGL LOG] solve : 357 ms
nonecudaGKOIR:  Solving for p, Initial residual = 0.576284, Final residual = 1.57076e-06, No Iterations 3
linear solve p 945345
time step continuity errors : sum local = 8.79593e-10, global = 1.01131e-20, cumulative = 5.47759e-20
ExecutionTime = 25.07 s  ClockTime = 25 s

Time = 0.006

Courant Number mean: 0.107709 max: 0.845113
DILUPBiCGStab:  Solving for Ux, Initial residual = 0.0160844, Final residual = 0.000182773, No Iterations 5
DILUPBiCGStab:  Solving for Uy, Initial residual = 0.0558401, Final residual = 0.000624167, No Iterations 5
DILUPBiCGStab:  Solving for Uz, Initial residual = 0.261793, Final residual = 0.00268401, No Iterations 5
linear solve U 720126
[OGL LOG] init_host_sparsity_pattern : 203 ms
[OGL LOG] matrix not stored update host matrix
[OGL LOG] update_host_mtx : 109 ms
[OGL LOG] matrix is not yet sorted, sorting host matrix
[OGL LOG] sort_host_mtx_sparsity_pattern : 156 ms
[OGL LOG] sort_host_mtx : 77 ms
[OGL LOG] init_preconditioner : 0 ms
[OGL LOG] solve : 375 ms
nonecudaGKOIR:  Solving for p, Initial residual = 0.494285, Final residual = 1.5367e-06, No Iterations 3
linear solve p 967300
time step continuity errors : sum local = 8.06903e-10, global = -3.44706e-20, cumulative = 2.03053e-20
[OGL LOG] init_host_sparsity_pattern : 208 ms
[OGL LOG] matrix not stored update host matrix
[OGL LOG] update_host_mtx : 107 ms
[OGL LOG] matrix is not yet sorted, sorting host matrix
[OGL LOG] sort_host_mtx_sparsity_pattern : 149 ms
[OGL LOG] sort_host_mtx : 74 ms
[OGL LOG] init_preconditioner : 0 ms
[OGL LOG] solve : 375 ms
nonecudaGKOIR:  Solving for p, Initial residual = 0.438527, Final residual = 1.3148e-06, No Iterations 3
linear solve p 963516
time step continuity errors : sum local = 6.91868e-10, global = -9.13117e-21, cumulative = 1.11741e-20
ExecutionTime = 28.15 s  ClockTime = 28 s

Time = 0.007

Courant Number mean: 0.114495 max: 0.848538
DILUPBiCGStab:  Solving for Ux, Initial residual = 0.0135927, Final residual = 0.000136439, No Iterations 5
DILUPBiCGStab:  Solving for Uy, Initial residual = 0.0360937, Final residual = 0.000312124, No Iterations 5
DILUPBiCGStab:  Solving for Uz, Initial residual = 0.169997, Final residual = 0.00193728, No Iterations 5
linear solve U 731782
[OGL LOG] init_host_sparsity_pattern : 200 ms
[OGL LOG] matrix not stored update host matrix
[OGL LOG] update_host_mtx : 107 ms
[OGL LOG] matrix is not yet sorted, sorting host matrix
[OGL LOG] sort_host_mtx_sparsity_pattern : 149 ms
[OGL LOG] sort_host_mtx : 74 ms
[OGL LOG] init_preconditioner : 0 ms
[OGL LOG] solve : 334 ms
nonecudaGKOIR:  Solving for p, Initial residual = 0.454951, Final residual = 1.26025e-06, No Iterations 3
linear solve p 914926
time step continuity errors : sum local = 5.54909e-10, global = 1.26723e-20, cumulative = 2.38464e-20
[OGL LOG] init_host_sparsity_pattern : 209 ms
[OGL LOG] matrix not stored update host matrix
[OGL LOG] update_host_mtx : 107 ms
[OGL LOG] matrix is not yet sorted, sorting host matrix
[OGL LOG] sort_host_mtx_sparsity_pattern : 150 ms
[OGL LOG] sort_host_mtx : 74 ms
[OGL LOG] init_preconditioner : 0 ms
[OGL LOG] solve : 130 ms
nonecudaGKOIR:  Solving for p, Initial residual = 0.401936, Final residual = 8.68682e-05, No Iterations 2
linear solve p 721460
time step continuity errors : sum local = 4.08239e-08, global = 9.93919e-21, cumulative = 3.37856e-20
ExecutionTime = 30.96 s  ClockTime = 31 s

Time = 0.008

Courant Number mean: 0.120057 max: 0.852061
DILUPBiCGStab:  Solving for Ux, Initial residual = 0.0099617, Final residual = 8.9599e-05, No Iterations 5
DILUPBiCGStab:  Solving for Uy, Initial residual = 0.0308188, Final residual = 0.000267872, No Iterations 5
DILUPBiCGStab:  Solving for Uz, Initial residual = 0.130017, Final residual = 0.00147334, No Iterations 5
linear solve U 719219
[OGL LOG] init_host_sparsity_pattern : 200 ms
[OGL LOG] matrix not stored update host matrix
[OGL LOG] update_host_mtx : 107 ms
[OGL LOG] matrix is not yet sorted, sorting host matrix
[OGL LOG] sort_host_mtx_sparsity_pattern : 150 ms
[OGL LOG] sort_host_mtx : 74 ms
[OGL LOG] init_preconditioner : 0 ms
[OGL LOG] solve : 177 ms
nonecudaGKOIR:  Solving for p, Initial residual = 0.351107, Final residual = 9.11214e-05, No Iterations 2
linear solve p 757839
time step continuity errors : sum local = 4.40817e-08, global = 1.43043e-20, cumulative = 4.80899e-20
[OGL LOG] init_host_sparsity_pattern : 208 ms
[OGL LOG] matrix not stored update host matrix
[OGL LOG] update_host_mtx : 108 ms
[OGL LOG] matrix is not yet sorted, sorting host matrix
[OGL LOG] sort_host_mtx_sparsity_pattern : 150 ms
[OGL LOG] sort_host_mtx : 74 ms
[OGL LOG] init_preconditioner : 0 ms
[OGL LOG] solve : 178 ms
nonecudaGKOIR:  Solving for p, Initial residual = 0.30635, Final residual = 7.44319e-05, No Iterations 2
linear solve p 766892
time step continuity errors : sum local = 3.59007e-08, global = -2.57671e-22, cumulative = 4.78322e-20
ExecutionTime = 33.62 s  ClockTime = 33 s

Time = 0.009

Courant Number mean: 0.124912 max: 0.853936
DILUPBiCGStab:  Solving for Ux, Initial residual = 0.00859246, Final residual = 6.83247e-05, No Iterations 5
DILUPBiCGStab:  Solving for Uy, Initial residual = 0.0226715, Final residual = 0.000134505, No Iterations 5
DILUPBiCGStab:  Solving for Uz, Initial residual = 0.0868989, Final residual = 0.00114197, No Iterations 5
linear solve U 723163
[OGL LOG] init_host_sparsity_pattern : 199 ms
[OGL LOG] matrix not stored update host matrix
[OGL LOG] update_host_mtx : 108 ms
[OGL LOG] matrix is not yet sorted, sorting host matrix
[OGL LOG] sort_host_mtx_sparsity_pattern : 150 ms
[OGL LOG] sort_host_mtx : 74 ms
[OGL LOG] init_preconditioner : 0 ms
[OGL LOG] solve : 162 ms
nonecudaGKOIR:  Solving for p, Initial residual = 0.306615, Final residual = 7.24261e-05, No Iterations 2
linear solve p 742137
time step continuity errors : sum local = 3.07547e-08, global = -6.13768e-21, cumulative = 4.16945e-20
[OGL LOG] init_host_sparsity_pattern : 208 ms
[OGL LOG] matrix not stored update host matrix
[OGL LOG] update_host_mtx : 107 ms
[OGL LOG] matrix is not yet sorted, sorting host matrix
[OGL LOG] sort_host_mtx_sparsity_pattern : 150 ms
[OGL LOG] sort_host_mtx : 74 ms
[OGL LOG] init_preconditioner : 0 ms
[OGL LOG] solve : 162 ms
nonecudaGKOIR:  Solving for p, Initial residual = 0.265367, Final residual = 6.43602e-05, No Iterations 2
linear solve p 750912
time step continuity errors : sum local = 2.65958e-08, global = 1.36439e-20, cumulative = 5.53384e-20
ExecutionTime = 36.28 s  ClockTime = 36 s

Time = 0.01

Courant Number mean: 0.129095 max: 0.856118
DILUPBiCGStab:  Solving for Ux, Initial residual = 0.00686126, Final residual = 4.81451e-05, No Iterations 5
DILUPBiCGStab:  Solving for Uy, Initial residual = 0.0198732, Final residual = 0.000120286, No Iterations 5
DILUPBiCGStab:  Solving for Uz, Initial residual = 0.0713682, Final residual = 0.000853863, No Iterations 5
linear solve U 719167
[OGL LOG] init_host_sparsity_pattern : 200 ms
[OGL LOG] matrix not stored update host matrix
[OGL LOG] update_host_mtx : 108 ms
[OGL LOG] matrix is not yet sorted, sorting host matrix
[OGL LOG] sort_host_mtx_sparsity_pattern : 155 ms
[OGL LOG] sort_host_mtx : 75 ms
[OGL LOG] init_preconditioner : 0 ms
[OGL LOG] solve : 277 ms
nonecudaGKOIR:  Solving for p, Initial residual = 0.240449, Final residual = 5.46947e-05, No Iterations 2
linear solve p 862517
time step continuity errors : sum local = 2.05257e-08, global = 6.25029e-21, cumulative = 6.15887e-20
[OGL LOG] init_host_sparsity_pattern : 208 ms
[OGL LOG] matrix not stored update host matrix
[OGL LOG] update_host_mtx : 107 ms
[OGL LOG] matrix is not yet sorted, sorting host matrix
[OGL LOG] sort_host_mtx_sparsity_pattern : 150 ms
[OGL LOG] sort_host_mtx : 74 ms
[OGL LOG] init_preconditioner : 0 ms
[OGL LOG] solve : 277 ms
nonecudaGKOIR:  Solving for p, Initial residual = 0.207448, Final residual = 4.82888e-05, No Iterations 2
linear solve p 866264
time step continuity errors : sum local = 1.80632e-08, global = -4.39944e-21, cumulative = 5.71893e-20
ExecutionTime = 39.16 s  ClockTime = 39 s

End

