/*---------------------------------------------------------------------------*\
  =========                 |
  \\      /  F ield         | OpenFOAM: The Open Source CFD Toolbox
   \\    /   O peration     | Website:  https://openfoam.org
    \\  /    A nd           | Version:  8
     \\/     M anipulation  |
\*---------------------------------------------------------------------------*/
Build  : 8-14d69e1ee166
Exec   : icoFoam
Date   : Jul 29 2021
Time   : 05:15:23
Host   : "guyot.icl.utk.edu"
PID    : 3151
I/O    : uncollated
Case   : /home/greole/code/OBR/lidDrivenCavity3D/Variation_mesh/100/Variation_matrix_solver/CG_BJ_CUDA/base
nProcs : 1
sigFpe : Enabling floating point exception trapping (FOAM_SIGFPE).
fileModificationChecking : Monitoring run-time modified files using timeStampMaster (fileModificationSkew 10)
allowSystemOperations : Allowing user-supplied system call operations

// * * * * * * * * * * * * * * * * * * * * * * * * * * * * * * * * * * * * * //
Create time

Create mesh for time = 0

Reading transportProperties

Reading field p

Reading field U

Reading/calculating face flux field phi


Starting time loop

Time = 0.001

Courant Number mean: 0 max: 0
DILUPBiCGStab:  Solving for Ux, Initial residual = 1, Final residual = 0.00717233, No Iterations 5
DILUPBiCGStab:  Solving for Uy:  solution singularity
DILUPBiCGStab:  Solving for Uz:  solution singularity
linear solve U 391893
[OGL LOG] init_host_sparsity_pattern : 449 ms
[OGL LOG] matrix not stored update host matrix
[OGL LOG] update_host_mtx : 222 ms
[OGL LOG] matrix is not yet sorted, compute sorting idxs
[OGL LOG] compute_sort : 10709 ms
[OGL LOG] matrix is not yet sorted, sorting host matrix
[OGL LOG] sort_host_mtx_sparsity_pattern : 205 ms
[OGL LOG] sort_host_mtx : 120 ms
[OGL LOG] init_preconditioner : 154 ms
 CG create  precond 
[OGL LOG] solve : 973 ms
BJcudaGKOCG:  Solving for p, Initial residual = 1, Final residual = 9.90887e-05, No Iterations 651
linear solve p 14532563
time step continuity errors : sum local = 5.67611e-08, global = 1.50241e-20, cumulative = 1.50241e-20
[OGL LOG] init_host_sparsity_pattern : 430 ms
[OGL LOG] matrix not stored update host matrix
[OGL LOG] update_host_mtx : 220 ms
[OGL LOG] matrix is not yet sorted, sorting host matrix
[OGL LOG] sort_host_mtx_sparsity_pattern : 187 ms
[OGL LOG] sort_host_mtx : 115 ms
[OGL LOG] init_preconditioner : 0 ms
 CG create  precond 
[OGL LOG] solve : 942 ms
BJcudaGKOCG:  Solving for p, Initial residual = 0.777276, Final residual = 9.64958e-05, No Iterations 643
linear solve p 1956497
time step continuity errors : sum local = 6.97447e-08, global = -4.96806e-21, cumulative = 1.0056e-20
ExecutionTime = 21.22 s  ClockTime = 22 s

Time = 0.002

Courant Number mean: 0.0560717 max: 0.805494
DILUPBiCGStab:  Solving for Ux, Initial residual = 0.138283, Final residual = 0.00319031, No Iterations 5
DILUPBiCGStab:  Solving for Uy, Initial residual = 0.430534, Final residual = 0.00909548, No Iterations 5
DILUPBiCGStab:  Solving for Uz, Initial residual = 0.990256, Final residual = 0.0225855, No Iterations 5
linear solve U 832765
[OGL LOG] init_host_sparsity_pattern : 430 ms
[OGL LOG] matrix not stored update host matrix
[OGL LOG] update_host_mtx : 219 ms
[OGL LOG] matrix is not yet sorted, sorting host matrix
[OGL LOG] sort_host_mtx_sparsity_pattern : 182 ms
[OGL LOG] sort_host_mtx : 115 ms
[OGL LOG] init_preconditioner : 0 ms
 CG create  precond 
[OGL LOG] solve : 944 ms
BJcudaGKOCG:  Solving for p, Initial residual = 0.799817, Final residual = 9.45978e-05, No Iterations 639
linear solve p 1952322
time step continuity errors : sum local = 9.68051e-08, global = 4.11339e-21, cumulative = 1.41694e-20
[OGL LOG] init_host_sparsity_pattern : 430 ms
[OGL LOG] matrix not stored update host matrix
[OGL LOG] update_host_mtx : 220 ms
[OGL LOG] matrix is not yet sorted, sorting host matrix
[OGL LOG] sort_host_mtx_sparsity_pattern : 180 ms
[OGL LOG] sort_host_mtx : 112 ms
[OGL LOG] init_preconditioner : 0 ms
 CG create  precond 
[OGL LOG] solve : 930 ms
BJcudaGKOCG:  Solving for p, Initial residual = 0.740773, Final residual = 9.53982e-05, No Iterations 636
linear solve p 1934136
time step continuity errors : sum local = 9.96428e-08, global = 1.84923e-20, cumulative = 3.26617e-20
ExecutionTime = 26.51 s  ClockTime = 27 s

Time = 0.003

Courant Number mean: 0.0852774 max: 0.943652
DILUPBiCGStab:  Solving for Ux, Initial residual = 0.0649268, Final residual = 0.00112819, No Iterations 5
DILUPBiCGStab:  Solving for Uy, Initial residual = 0.225997, Final residual = 0.00296743, No Iterations 5
DILUPBiCGStab:  Solving for Uz, Initial residual = 0.792274, Final residual = 0.016224, No Iterations 5
linear solve U 827704
[OGL LOG] init_host_sparsity_pattern : 429 ms
[OGL LOG] matrix not stored update host matrix
[OGL LOG] update_host_mtx : 219 ms
[OGL LOG] matrix is not yet sorted, sorting host matrix
[OGL LOG] sort_host_mtx_sparsity_pattern : 182 ms
[OGL LOG] sort_host_mtx : 106 ms
[OGL LOG] init_preconditioner : 0 ms
 CG create  precond 
[OGL LOG] solve : 565 ms
BJcudaGKOCG:  Solving for p, Initial residual = 0.832986, Final residual = 9.55344e-05, No Iterations 382
linear solve p 1564914
time step continuity errors : sum local = 9.28903e-08, global = -1.07645e-20, cumulative = 2.18972e-20
[OGL LOG] init_host_sparsity_pattern : 429 ms
[OGL LOG] matrix not stored update host matrix
[OGL LOG] update_host_mtx : 219 ms
[OGL LOG] matrix is not yet sorted, sorting host matrix
[OGL LOG] sort_host_mtx_sparsity_pattern : 197 ms
[OGL LOG] sort_host_mtx : 121 ms
[OGL LOG] init_preconditioner : 0 ms
 CG create  precond 
[OGL LOG] solve : 559 ms
BJcudaGKOCG:  Solving for p, Initial residual = 0.802272, Final residual = 9.84979e-05, No Iterations 380
linear solve p 1585754
time step continuity errors : sum local = 9.28999e-08, global = -8.71244e-21, cumulative = 1.31847e-20
ExecutionTime = 31.06 s  ClockTime = 31 s

Time = 0.004

Courant Number mean: 0.0982044 max: 0.92638
DILUPBiCGStab:  Solving for Ux, Initial residual = 0.0388077, Final residual = 0.000835233, No Iterations 5
DILUPBiCGStab:  Solving for Uy, Initial residual = 0.168221, Final residual = 0.00318247, No Iterations 5
DILUPBiCGStab:  Solving for Uz, Initial residual = 0.629565, Final residual = 0.0109805, No Iterations 5
linear solve U 827835
[OGL LOG] init_host_sparsity_pattern : 429 ms
[OGL LOG] matrix not stored update host matrix
[OGL LOG] update_host_mtx : 219 ms
[OGL LOG] matrix is not yet sorted, sorting host matrix
[OGL LOG] sort_host_mtx_sparsity_pattern : 176 ms
[OGL LOG] sort_host_mtx : 113 ms
[OGL LOG] init_preconditioner : 0 ms
 CG create  precond 
[OGL LOG] solve : 567 ms
BJcudaGKOCG:  Solving for p, Initial residual = 0.749501, Final residual = 9.96713e-05, No Iterations 375
linear solve p 1566791
time step continuity errors : sum local = 9.29397e-08, global = -6.34805e-21, cumulative = 6.83667e-21
[OGL LOG] init_host_sparsity_pattern : 429 ms
[OGL LOG] matrix not stored update host matrix
[OGL LOG] update_host_mtx : 219 ms
[OGL LOG] matrix is not yet sorted, sorting host matrix
[OGL LOG] sort_host_mtx_sparsity_pattern : 181 ms
[OGL LOG] sort_host_mtx : 111 ms
[OGL LOG] init_preconditioner : 0 ms
 CG create  precond 
[OGL LOG] solve : 512 ms
BJcudaGKOCG:  Solving for p, Initial residual = 0.685193, Final residual = 9.85599e-05, No Iterations 347
linear solve p 1513611
time step continuity errors : sum local = 9.0526e-08, global = 9.81238e-21, cumulative = 1.66491e-20
ExecutionTime = 35.54 s  ClockTime = 36 s

Time = 0.005

Courant Number mean: 0.110594 max: 0.944583
DILUPBiCGStab:  Solving for Ux, Initial residual = 0.0304954, Final residual = 0.000612163, No Iterations 5
DILUPBiCGStab:  Solving for Uy, Initial residual = 0.0983663, Final residual = 0.00202364, No Iterations 5
DILUPBiCGStab:  Solving for Uz, Initial residual = 0.588931, Final residual = 0.00952867, No Iterations 5
linear solve U 831927
[OGL LOG] init_host_sparsity_pattern : 429 ms
[OGL LOG] matrix not stored update host matrix
[OGL LOG] update_host_mtx : 219 ms
[OGL LOG] matrix is not yet sorted, sorting host matrix
[OGL LOG] sort_host_mtx_sparsity_pattern : 177 ms
[OGL LOG] sort_host_mtx : 106 ms
[OGL LOG] init_preconditioner : 0 ms
 CG create  precond 
[OGL LOG] solve : 508 ms
BJcudaGKOCG:  Solving for p, Initial residual = 0.757818, Final residual = 9.68453e-05, No Iterations 341
linear solve p 1501695
time step continuity errors : sum local = 7.52375e-08, global = -1.43505e-20, cumulative = 2.29853e-21
[OGL LOG] init_host_sparsity_pattern : 429 ms
[OGL LOG] matrix not stored update host matrix
[OGL LOG] update_host_mtx : 219 ms
[OGL LOG] matrix is not yet sorted, sorting host matrix
[OGL LOG] sort_host_mtx_sparsity_pattern : 191 ms
[OGL LOG] sort_host_mtx : 111 ms
[OGL LOG] init_preconditioner : 0 ms
 CG create  precond 
[OGL LOG] solve : 466 ms
BJcudaGKOCG:  Solving for p, Initial residual = 0.709869, Final residual = 9.99603e-05, No Iterations 315
linear solve p 1478063
time step continuity errors : sum local = 7.44508e-08, global = -1.32484e-20, cumulative = -1.09499e-20
ExecutionTime = 39.91 s  ClockTime = 40 s

Time = 0.006

Courant Number mean: 0.118979 max: 0.944967
DILUPBiCGStab:  Solving for Ux, Initial residual = 0.0203424, Final residual = 0.000433486, No Iterations 5
DILUPBiCGStab:  Solving for Uy, Initial residual = 0.0819502, Final residual = 0.0016364, No Iterations 5
DILUPBiCGStab:  Solving for Uz, Initial residual = 0.435977, Final residual = 0.0070362, No Iterations 5
linear solve U 826201
[OGL LOG] init_host_sparsity_pattern : 429 ms
[OGL LOG] matrix not stored update host matrix
[OGL LOG] update_host_mtx : 219 ms
[OGL LOG] matrix is not yet sorted, sorting host matrix
[OGL LOG] sort_host_mtx_sparsity_pattern : 181 ms
[OGL LOG] sort_host_mtx : 106 ms
[OGL LOG] init_preconditioner : 0 ms
 CG create  precond 
[OGL LOG] solve : 510 ms
BJcudaGKOCG:  Solving for p, Initial residual = 0.66165, Final residual = 9.93871e-05, No Iterations 337
linear solve p 1507641
time step continuity errors : sum local = 7.06601e-08, global = 8.35342e-21, cumulative = -2.59649e-21
[OGL LOG] init_host_sparsity_pattern : 430 ms
[OGL LOG] matrix not stored update host matrix
[OGL LOG] update_host_mtx : 219 ms
[OGL LOG] matrix is not yet sorted, sorting host matrix
[OGL LOG] sort_host_mtx_sparsity_pattern : 184 ms
[OGL LOG] sort_host_mtx : 112 ms
[OGL LOG] init_preconditioner : 0 ms
 CG create  precond 
[OGL LOG] solve : 483 ms
BJcudaGKOCG:  Solving for p, Initial residual = 0.60078, Final residual = 9.9057e-05, No Iterations 329
linear solve p 1488870
time step continuity errors : sum local = 7.01511e-08, global = 1.41085e-21, cumulative = -1.18564e-21
ExecutionTime = 44.31 s  ClockTime = 45 s

Time = 0.007

Courant Number mean: 0.12661 max: 0.947973
DILUPBiCGStab:  Solving for Ux, Initial residual = 0.0176511, Final residual = 0.00035534, No Iterations 5
DILUPBiCGStab:  Solving for Uy, Initial residual = 0.0557101, Final residual = 0.00126626, No Iterations 5
DILUPBiCGStab:  Solving for Uz, Initial residual = 0.380661, Final residual = 0.00590957, No Iterations 5
linear solve U 828977
[OGL LOG] init_host_sparsity_pattern : 430 ms
[OGL LOG] matrix not stored update host matrix
[OGL LOG] update_host_mtx : 220 ms
[OGL LOG] matrix is not yet sorted, sorting host matrix
[OGL LOG] sort_host_mtx_sparsity_pattern : 181 ms
[OGL LOG] sort_host_mtx : 111 ms
[OGL LOG] init_preconditioner : 0 ms
 CG create  precond 
[OGL LOG] solve : 475 ms
BJcudaGKOCG:  Solving for p, Initial residual = 0.659707, Final residual = 9.73399e-05, No Iterations 310
linear solve p 1480269
time step continuity errors : sum local = 6.06945e-08, global = -2.16052e-20, cumulative = -2.27908e-20
[OGL LOG] init_host_sparsity_pattern : 430 ms
[OGL LOG] matrix not stored update host matrix
[OGL LOG] update_host_mtx : 220 ms
[OGL LOG] matrix is not yet sorted, sorting host matrix
[OGL LOG] sort_host_mtx_sparsity_pattern : 167 ms
[OGL LOG] sort_host_mtx : 110 ms
[OGL LOG] init_preconditioner : 0 ms
 CG create  precond 
[OGL LOG] solve : 455 ms
BJcudaGKOCG:  Solving for p, Initial residual = 0.602127, Final residual = 9.77864e-05, No Iterations 307
linear solve p 1444872
time step continuity errors : sum local = 5.82893e-08, global = 8.46291e-22, cumulative = -2.19446e-20
ExecutionTime = 48.62 s  ClockTime = 49 s

Time = 0.008

Courant Number mean: 0.132628 max: 0.951936
DILUPBiCGStab:  Solving for Ux, Initial residual = 0.0129729, Final residual = 0.000261847, No Iterations 5
DILUPBiCGStab:  Solving for Uy, Initial residual = 0.0477339, Final residual = 0.00100354, No Iterations 5
DILUPBiCGStab:  Solving for Uz, Initial residual = 0.288025, Final residual = 0.00452592, No Iterations 5
linear solve U 831677
[OGL LOG] init_host_sparsity_pattern : 429 ms
[OGL LOG] matrix not stored update host matrix
[OGL LOG] update_host_mtx : 219 ms
[OGL LOG] matrix is not yet sorted, sorting host matrix
[OGL LOG] sort_host_mtx_sparsity_pattern : 171 ms
[OGL LOG] sort_host_mtx : 112 ms
[OGL LOG] init_preconditioner : 0 ms
 CG create  precond 
[OGL LOG] solve : 476 ms
BJcudaGKOCG:  Solving for p, Initial residual = 0.567238, Final residual = 9.70111e-05, No Iterations 316
linear solve p 1471675
time step continuity errors : sum local = 5.56202e-08, global = 1.34416e-20, cumulative = -8.50294e-21
[OGL LOG] init_host_sparsity_pattern : 430 ms
[OGL LOG] matrix not stored update host matrix
[OGL LOG] update_host_mtx : 220 ms
[OGL LOG] matrix is not yet sorted, sorting host matrix
[OGL LOG] sort_host_mtx_sparsity_pattern : 167 ms
[OGL LOG] sort_host_mtx : 110 ms
[OGL LOG] init_preconditioner : 0 ms
 CG create  precond 
[OGL LOG] solve : 462 ms
BJcudaGKOCG:  Solving for p, Initial residual = 0.509472, Final residual = 9.91636e-05, No Iterations 313
linear solve p 1450077
time step continuity errors : sum local = 5.58385e-08, global = 1.92099e-20, cumulative = 1.0707e-20
ExecutionTime = 52.95 s  ClockTime = 53 s

Time = 0.009

Courant Number mean: 0.138049 max: 0.953446
DILUPBiCGStab:  Solving for Ux, Initial residual = 0.0114678, Final residual = 0.000214304, No Iterations 5
DILUPBiCGStab:  Solving for Uy, Initial residual = 0.0356996, Final residual = 0.00079369, No Iterations 5
DILUPBiCGStab:  Solving for Uz, Initial residual = 0.246508, Final residual = 0.00394108, No Iterations 5
linear solve U 822024
[OGL LOG] init_host_sparsity_pattern : 429 ms
[OGL LOG] matrix not stored update host matrix
[OGL LOG] update_host_mtx : 219 ms
[OGL LOG] matrix is not yet sorted, sorting host matrix
[OGL LOG] sort_host_mtx_sparsity_pattern : 185 ms
[OGL LOG] sort_host_mtx : 110 ms
[OGL LOG] init_preconditioner : 0 ms
 CG create  precond 
[OGL LOG] solve : 937 ms
BJcudaGKOCG:  Solving for p, Initial residual = 0.556086, Final residual = 9.41174e-05, No Iterations 626
linear solve p 1945102
time step continuity errors : sum local = 4.57786e-08, global = -9.43658e-22, cumulative = 9.7633e-21
[OGL LOG] init_host_sparsity_pattern : 430 ms
[OGL LOG] matrix not stored update host matrix
[OGL LOG] update_host_mtx : 219 ms
[OGL LOG] matrix is not yet sorted, sorting host matrix
[OGL LOG] sort_host_mtx_sparsity_pattern : 180 ms
[OGL LOG] sort_host_mtx : 106 ms
[OGL LOG] init_preconditioner : 0 ms
 CG create  precond 
[OGL LOG] solve : 498 ms
BJcudaGKOCG:  Solving for p, Initial residual = 0.496613, Final residual = 9.83609e-05, No Iterations 338
linear solve p 1494770
time step continuity errors : sum local = 5.59647e-08, global = -8.93032e-21, cumulative = 8.32978e-22
ExecutionTime = 57.78 s  ClockTime = 58 s

Time = 0.01

Courant Number mean: 0.142642 max: 0.955919
DILUPBiCGStab:  Solving for Ux, Initial residual = 0.00898588, Final residual = 0.000162031, No Iterations 5
DILUPBiCGStab:  Solving for Uy, Initial residual = 0.0309879, Final residual = 0.000638051, No Iterations 5
DILUPBiCGStab:  Solving for Uz, Initial residual = 0.192862, Final residual = 0.00319165, No Iterations 5
linear solve U 828475
[OGL LOG] init_host_sparsity_pattern : 429 ms
[OGL LOG] matrix not stored update host matrix
[OGL LOG] update_host_mtx : 219 ms
[OGL LOG] matrix is not yet sorted, sorting host matrix
[OGL LOG] sort_host_mtx_sparsity_pattern : 186 ms
[OGL LOG] sort_host_mtx : 111 ms
[OGL LOG] init_preconditioner : 0 ms
 CG create  precond 
[OGL LOG] solve : 932 ms
BJcudaGKOCG:  Solving for p, Initial residual = 0.477543, Final residual = 9.92619e-05, No Iterations 623
linear solve p 1940201
time step continuity errors : sum local = 4.72704e-08, global = 1.62706e-20, cumulative = 1.71035e-20
[OGL LOG] init_host_sparsity_pattern : 430 ms
[OGL LOG] matrix not stored update host matrix
[OGL LOG] update_host_mtx : 220 ms
[OGL LOG] matrix is not yet sorted, sorting host matrix
[OGL LOG] sort_host_mtx_sparsity_pattern : 167 ms
[OGL LOG] sort_host_mtx : 114 ms
[OGL LOG] init_preconditioner : 0 ms
 CG create  precond 
[OGL LOG] solve : 900 ms
BJcudaGKOCG:  Solving for p, Initial residual = 0.42468, Final residual = 9.61645e-05, No Iterations 622
linear solve p 1892430
time step continuity errors : sum local = 4.56447e-08, global = 8.60832e-21, cumulative = 2.57119e-20
ExecutionTime = 63.01 s  ClockTime = 63 s

End

