/*---------------------------------------------------------------------------*\
  =========                 |
  \\      /  F ield         | OpenFOAM: The Open Source CFD Toolbox
   \\    /   O peration     | Website:  https://openfoam.org
    \\  /    A nd           | Version:  8
     \\/     M anipulation  |
\*---------------------------------------------------------------------------*/
Build  : 8-ef60d22ea792
Exec   : icoFoam
Date   : Jul 28 2021
Time   : 22:02:14
Host   : "uc2n478.localdomain"
PID    : 3632013
I/O    : uncollated
Case   : /pfs/data5/home/kit/scc/nq7776/code/OBR/lidDrivenCavity3D/Variation_mesh/15/Variation_matrix_solver/BiCGStab_NoPrecond_OMP/base
nProcs : 1
sigFpe : Enabling floating point exception trapping (FOAM_SIGFPE).
fileModificationChecking : Monitoring run-time modified files using timeStampMaster (fileModificationSkew 10)
allowSystemOperations : Allowing user-supplied system call operations

// * * * * * * * * * * * * * * * * * * * * * * * * * * * * * * * * * * * * * //
Create time

Create mesh for time = 0

Reading transportProperties

Reading field p

Reading field U

Reading/calculating face flux field phi


Starting time loop

Time = 0.001

Courant Number mean: 0 max: 0
DILUPBiCGStab:  Solving for Ux, Initial residual = 1, Final residual = 1.1028e-13, No Iterations 5
DILUPBiCGStab:  Solving for Uy:  solution singularity
DILUPBiCGStab:  Solving for Uz:  solution singularity
linear solve U 1272
[OGL LOG] init_host_sparsity_pattern : 1 ms
[OGL LOG] matrix not stored update host matrix
[OGL LOG] update_host_mtx : 0 ms
[OGL LOG] matrix is not yet sorted, compute sorting idxs
[OGL LOG] compute_sort : 21 ms
[OGL LOG] matrix is not yet sorted, sorting host matrix
[OGL LOG] sort_host_mtx_sparsity_pattern : 0 ms
[OGL LOG] sort_host_mtx : 0 ms
[OGL LOG] init_preconditioner : 0 ms
[OGL LOG] solve : 17 ms
noneompGKOBiCGStab:  Solving for p, Initial residual = 1, Final residual = 3.62624e-05, No Iterations 98
linear solve p 48864
time step continuity errors : sum local = 1.34112e-06, global = -1.8916e-20, cumulative = -1.8916e-20
[OGL LOG] init_host_sparsity_pattern : 0 ms
[OGL LOG] matrix not stored update host matrix
[OGL LOG] update_host_mtx : 0 ms
[OGL LOG] matrix is not yet sorted, sorting host matrix
[OGL LOG] sort_host_mtx_sparsity_pattern : 0 ms
[OGL LOG] sort_host_mtx : 0 ms
[OGL LOG] init_preconditioner : 0 ms
[OGL LOG] solve : 14 ms
noneompGKOBiCGStab:  Solving for p, Initial residual = 0.317631, Final residual = 9.57657e-05, No Iterations 88
linear solve p 17892
time step continuity errors : sum local = 1.32073e-06, global = 2.18397e-20, cumulative = 2.92377e-21
ExecutionTime = 0.73 s  ClockTime = 0 s

Time = 0.002

Courant Number mean: 0.0055951 max: 0.0357001
DILUPBiCGStab:  Solving for Ux, Initial residual = 0.242419, Final residual = 1.13978e-14, No Iterations 5
DILUPBiCGStab:  Solving for Uy, Initial residual = 0.296209, Final residual = 1.12418e-14, No Iterations 5
DILUPBiCGStab:  Solving for Uz, Initial residual = 0.656853, Final residual = 3.30674e-14, No Iterations 5
linear solve U 2363
[OGL LOG] init_host_sparsity_pattern : 0 ms
[OGL LOG] matrix not stored update host matrix
[OGL LOG] update_host_mtx : 0 ms
[OGL LOG] matrix is not yet sorted, sorting host matrix
[OGL LOG] sort_host_mtx_sparsity_pattern : 0 ms
[OGL LOG] sort_host_mtx : 0 ms
[OGL LOG] init_preconditioner : 0 ms
[OGL LOG] solve : 14 ms
noneompGKOBiCGStab:  Solving for p, Initial residual = 0.158549, Final residual = 3.32008e-05, No Iterations 85
linear solve p 17410
time step continuity errors : sum local = 2.88958e-06, global = 6.63192e-21, cumulative = 9.55569e-21
[OGL LOG] init_host_sparsity_pattern : 0 ms
[OGL LOG] matrix not stored update host matrix
[OGL LOG] update_host_mtx : 0 ms
[OGL LOG] matrix is not yet sorted, sorting host matrix
[OGL LOG] sort_host_mtx_sparsity_pattern : 0 ms
[OGL LOG] sort_host_mtx : 0 ms
[OGL LOG] init_preconditioner : 0 ms
[OGL LOG] solve : 13 ms
noneompGKOBiCGStab:  Solving for p, Initial residual = 0.0636538, Final residual = 9.73643e-05, No Iterations 79
linear solve p 16537
time step continuity errors : sum local = 2.40231e-07, global = 2.60314e-21, cumulative = 1.21588e-20
ExecutionTime = 1.31 s  ClockTime = 0 s

Time = 0.003

Courant Number mean: 0.0094032 max: 0.0587301
DILUPBiCGStab:  Solving for Ux, Initial residual = 0.117894, Final residual = 5.34259e-15, No Iterations 5
DILUPBiCGStab:  Solving for Uy, Initial residual = 0.148854, Final residual = 5.35232e-15, No Iterations 5
DILUPBiCGStab:  Solving for Uz, Initial residual = 0.334728, Final residual = 2.08219e-14, No Iterations 5
linear solve U 2235
[OGL LOG] init_host_sparsity_pattern : 0 ms
[OGL LOG] matrix not stored update host matrix
[OGL LOG] update_host_mtx : 0 ms
[OGL LOG] matrix is not yet sorted, sorting host matrix
[OGL LOG] sort_host_mtx_sparsity_pattern : 0 ms
[OGL LOG] sort_host_mtx : 0 ms
[OGL LOG] init_preconditioner : 0 ms
[OGL LOG] solve : 7 ms
noneompGKOBiCGStab:  Solving for p, Initial residual = 0.0768745, Final residual = 9.3119e-05, No Iterations 43
linear solve p 10756
time step continuity errors : sum local = 1.00955e-07, global = 1.24615e-20, cumulative = 2.46203e-20
[OGL LOG] init_host_sparsity_pattern : 0 ms
[OGL LOG] matrix not stored update host matrix
[OGL LOG] update_host_mtx : 0 ms
[OGL LOG] matrix is not yet sorted, sorting host matrix
[OGL LOG] sort_host_mtx_sparsity_pattern : 0 ms
[OGL LOG] sort_host_mtx : 0 ms
[OGL LOG] init_preconditioner : 0 ms
[OGL LOG] solve : 5 ms
noneompGKOBiCGStab:  Solving for p, Initial residual = 0.0343202, Final residual = 9.27233e-05, No Iterations 35
linear solve p 9357
time step continuity errors : sum local = 1.34332e-07, global = -1.10991e-20, cumulative = 1.35212e-20
ExecutionTime = 1.65 s  ClockTime = 0 s

Time = 0.004

Courant Number mean: 0.0121904 max: 0.073727
DILUPBiCGStab:  Solving for Ux, Initial residual = 0.0723284, Final residual = 2.99012e-15, No Iterations 5
DILUPBiCGStab:  Solving for Uy, Initial residual = 0.0916603, Final residual = 3.02121e-15, No Iterations 5
DILUPBiCGStab:  Solving for Uz, Initial residual = 0.183534, Final residual = 7.07772e-15, No Iterations 5
linear solve U 2165
[OGL LOG] init_host_sparsity_pattern : 0 ms
[OGL LOG] matrix not stored update host matrix
[OGL LOG] update_host_mtx : 0 ms
[OGL LOG] matrix is not yet sorted, sorting host matrix
[OGL LOG] sort_host_mtx_sparsity_pattern : 0 ms
[OGL LOG] sort_host_mtx : 0 ms
[OGL LOG] init_preconditioner : 0 ms
[OGL LOG] solve : 10 ms
noneompGKOBiCGStab:  Solving for p, Initial residual = 0.0493324, Final residual = 9.98729e-05, No Iterations 64
linear solve p 14176
time step continuity errors : sum local = 1.70365e-07, global = -2.46169e-21, cumulative = 1.10595e-20
[OGL LOG] init_host_sparsity_pattern : 0 ms
[OGL LOG] matrix not stored update host matrix
[OGL LOG] update_host_mtx : 0 ms
[OGL LOG] matrix is not yet sorted, sorting host matrix
[OGL LOG] sort_host_mtx_sparsity_pattern : 0 ms
[OGL LOG] sort_host_mtx : 0 ms
[OGL LOG] init_preconditioner : 0 ms
[OGL LOG] solve : 5 ms
noneompGKOBiCGStab:  Solving for p, Initial residual = 0.0221955, Final residual = 9.31462e-05, No Iterations 32
linear solve p 8795
time step continuity errors : sum local = 1.20522e-07, global = -3.83233e-21, cumulative = 7.22717e-21
ExecutionTime = 2.07 s  ClockTime = 0 s

Time = 0.005

Courant Number mean: 0.0143061 max: 0.0838051
DILUPBiCGStab:  Solving for Ux, Initial residual = 0.0485651, Final residual = 1.79918e-15, No Iterations 5
DILUPBiCGStab:  Solving for Uy, Initial residual = 0.0627396, Final residual = 1.74777e-15, No Iterations 5
DILUPBiCGStab:  Solving for Uz, Initial residual = 0.13003, Final residual = 5.35407e-15, No Iterations 5
linear solve U 2235
[OGL LOG] init_host_sparsity_pattern : 0 ms
[OGL LOG] matrix not stored update host matrix
[OGL LOG] update_host_mtx : 0 ms
[OGL LOG] matrix is not yet sorted, sorting host matrix
[OGL LOG] sort_host_mtx_sparsity_pattern : 0 ms
[OGL LOG] sort_host_mtx : 0 ms
[OGL LOG] init_preconditioner : 0 ms
[OGL LOG] solve : 12 ms
noneompGKOBiCGStab:  Solving for p, Initial residual = 0.0359701, Final residual = 9.45433e-05, No Iterations 75
linear solve p 15831
time step continuity errors : sum local = 2.47048e-06, global = -2.7512e-21, cumulative = 4.47597e-21
[OGL LOG] init_host_sparsity_pattern : 0 ms
[OGL LOG] matrix not stored update host matrix
[OGL LOG] update_host_mtx : 0 ms
[OGL LOG] matrix is not yet sorted, sorting host matrix
[OGL LOG] sort_host_mtx_sparsity_pattern : 0 ms
[OGL LOG] sort_host_mtx : 0 ms
[OGL LOG] init_preconditioner : 0 ms
[OGL LOG] solve : 5 ms
noneompGKOBiCGStab:  Solving for p, Initial residual = 0.0176192, Final residual = 9.85634e-05, No Iterations 33
linear solve p 9070
time step continuity errors : sum local = 1.69411e-07, global = -4.32864e-21, cumulative = 1.47333e-22
ExecutionTime = 2.5 s  ClockTime = 0 s

Time = 0.006

Courant Number mean: 0.0159487 max: 0.0908033
DILUPBiCGStab:  Solving for Ux, Initial residual = 0.0353491, Final residual = 1.17462e-15, No Iterations 5
DILUPBiCGStab:  Solving for Uy, Initial residual = 0.046103, Final residual = 1.06363e-15, No Iterations 5
DILUPBiCGStab:  Solving for Uz, Initial residual = 0.099437, Final residual = 4.05847e-15, No Iterations 5
linear solve U 2108
[OGL LOG] init_host_sparsity_pattern : 0 ms
[OGL LOG] matrix not stored update host matrix
[OGL LOG] update_host_mtx : 0 ms
[OGL LOG] matrix is not yet sorted, sorting host matrix
[OGL LOG] sort_host_mtx_sparsity_pattern : 0 ms
[OGL LOG] sort_host_mtx : 0 ms
[OGL LOG] init_preconditioner : 0 ms
[OGL LOG] solve : 11 ms
noneompGKOBiCGStab:  Solving for p, Initial residual = 0.029077, Final residual = 8.63071e-05, No Iterations 71
linear solve p 15056
time step continuity errors : sum local = 1.5042e-07, global = -1.41861e-20, cumulative = -1.40388e-20
[OGL LOG] init_host_sparsity_pattern : 0 ms
[OGL LOG] matrix not stored update host matrix
[OGL LOG] update_host_mtx : 0 ms
[OGL LOG] matrix is not yet sorted, sorting host matrix
[OGL LOG] sort_host_mtx_sparsity_pattern : 0 ms
[OGL LOG] sort_host_mtx : 0 ms
[OGL LOG] init_preconditioner : 0 ms
[OGL LOG] solve : 7 ms
noneompGKOBiCGStab:  Solving for p, Initial residual = 0.0110775, Final residual = 9.86562e-05, No Iterations 29
linear solve p 11181
time step continuity errors : sum local = 1.26566e-07, global = 1.6336e-20, cumulative = 2.29719e-21
ExecutionTime = 2.97 s  ClockTime = 0 s

Time = 0.007

Courant Number mean: 0.017272 max: 0.0958251
DILUPBiCGStab:  Solving for Ux, Initial residual = 0.0271522, Final residual = 8.71289e-16, No Iterations 5
DILUPBiCGStab:  Solving for Uy, Initial residual = 0.0356485, Final residual = 7.40278e-16, No Iterations 5
DILUPBiCGStab:  Solving for Uz, Initial residual = 0.0797386, Final residual = 3.3368e-15, No Iterations 5
linear solve U 1995
[OGL LOG] init_host_sparsity_pattern : 0 ms
[OGL LOG] matrix not stored update host matrix
[OGL LOG] update_host_mtx : 0 ms
[OGL LOG] matrix is not yet sorted, sorting host matrix
[OGL LOG] sort_host_mtx_sparsity_pattern : 0 ms
[OGL LOG] sort_host_mtx : 0 ms
[OGL LOG] init_preconditioner : 0 ms
[OGL LOG] solve : 9 ms
noneompGKOBiCGStab:  Solving for p, Initial residual = 0.0218378, Final residual = 9.16632e-05, No Iterations 33
linear solve p 12356
time step continuity errors : sum local = 1.6289e-07, global = 9.80168e-21, cumulative = 1.20989e-20
[OGL LOG] init_host_sparsity_pattern : 0 ms
[OGL LOG] matrix not stored update host matrix
[OGL LOG] update_host_mtx : 0 ms
[OGL LOG] matrix is not yet sorted, sorting host matrix
[OGL LOG] sort_host_mtx_sparsity_pattern : 0 ms
[OGL LOG] sort_host_mtx : 0 ms
[OGL LOG] init_preconditioner : 0 ms
[OGL LOG] solve : 7 ms
noneompGKOBiCGStab:  Solving for p, Initial residual = 0.00870521, Final residual = 8.70707e-05, No Iterations 26
linear solve p 10209
time step continuity errors : sum local = 1.71013e-07, global = -2.09248e-20, cumulative = -8.82591e-21
ExecutionTime = 3.36 s  ClockTime = 0 s

Time = 0.008

Courant Number mean: 0.0183556 max: 0.0995502
DILUPBiCGStab:  Solving for Ux, Initial residual = 0.0216418, Final residual = 6.39302e-16, No Iterations 5
DILUPBiCGStab:  Solving for Uy, Initial residual = 0.0286346, Final residual = 5.78635e-16, No Iterations 5
DILUPBiCGStab:  Solving for Uz, Initial residual = 0.0650941, Final residual = 2.39057e-15, No Iterations 5
linear solve U 1869
[OGL LOG] init_host_sparsity_pattern : 0 ms
[OGL LOG] matrix not stored update host matrix
[OGL LOG] update_host_mtx : 0 ms
[OGL LOG] matrix is not yet sorted, sorting host matrix
[OGL LOG] sort_host_mtx_sparsity_pattern : 0 ms
[OGL LOG] sort_host_mtx : 0 ms
[OGL LOG] init_preconditioner : 0 ms
[OGL LOG] solve : 9 ms
noneompGKOBiCGStab:  Solving for p, Initial residual = 0.0163638, Final residual = 9.94586e-05, No Iterations 33
linear solve p 12182
time step continuity errors : sum local = 1.74523e-07, global = 3.69642e-20, cumulative = 2.81383e-20
[OGL LOG] init_host_sparsity_pattern : 0 ms
[OGL LOG] matrix not stored update host matrix
[OGL LOG] update_host_mtx : 0 ms
[OGL LOG] matrix is not yet sorted, sorting host matrix
[OGL LOG] sort_host_mtx_sparsity_pattern : 0 ms
[OGL LOG] sort_host_mtx : 0 ms
[OGL LOG] init_preconditioner : 0 ms
[OGL LOG] solve : 7 ms
noneompGKOBiCGStab:  Solving for p, Initial residual = 0.00669938, Final residual = 8.66029e-05, No Iterations 26
linear solve p 10161
time step continuity errors : sum local = 1.73047e-07, global = 2.76005e-20, cumulative = 5.57388e-20
ExecutionTime = 3.75 s  ClockTime = 0 s

Time = 0.009

Courant Number mean: 0.0192556 max: 0.102395
DILUPBiCGStab:  Solving for Ux, Initial residual = 0.0176766, Final residual = 4.37079e-16, No Iterations 5
DILUPBiCGStab:  Solving for Uy, Initial residual = 0.0236312, Final residual = 4.82919e-16, No Iterations 5
DILUPBiCGStab:  Solving for Uz, Initial residual = 0.054541, Final residual = 1.87779e-15, No Iterations 5
linear solve U 1891
[OGL LOG] init_host_sparsity_pattern : 0 ms
[OGL LOG] matrix not stored update host matrix
[OGL LOG] update_host_mtx : 0 ms
[OGL LOG] matrix is not yet sorted, sorting host matrix
[OGL LOG] sort_host_mtx_sparsity_pattern : 0 ms
[OGL LOG] sort_host_mtx : 0 ms
[OGL LOG] init_preconditioner : 0 ms
[OGL LOG] solve : 9 ms
noneompGKOBiCGStab:  Solving for p, Initial residual = 0.0133022, Final residual = 9.94317e-05, No Iterations 33
linear solve p 12183
time step continuity errors : sum local = 1.94895e-07, global = -2.23314e-20, cumulative = 3.34075e-20
[OGL LOG] init_host_sparsity_pattern : 0 ms
[OGL LOG] matrix not stored update host matrix
[OGL LOG] update_host_mtx : 0 ms
[OGL LOG] matrix is not yet sorted, sorting host matrix
[OGL LOG] sort_host_mtx_sparsity_pattern : 0 ms
[OGL LOG] sort_host_mtx : 0 ms
[OGL LOG] init_preconditioner : 0 ms
[OGL LOG] solve : 7 ms
noneompGKOBiCGStab:  Solving for p, Initial residual = 0.00544539, Final residual = 9.08619e-05, No Iterations 27
linear solve p 10591
time step continuity errors : sum local = 1.82493e-07, global = -2.24803e-20, cumulative = 1.09272e-20
ExecutionTime = 4.15 s  ClockTime = 0 s

Time = 0.01

Courant Number mean: 0.0200147 max: 0.104627
DILUPBiCGStab:  Solving for Ux, Initial residual = 0.0147289, Final residual = 2.84323e-16, No Iterations 5
DILUPBiCGStab:  Solving for Uy, Initial residual = 0.0199326, Final residual = 4.01569e-16, No Iterations 5
DILUPBiCGStab:  Solving for Uz, Initial residual = 0.0463501, Final residual = 1.53785e-15, No Iterations 5
linear solve U 1839
[OGL LOG] init_host_sparsity_pattern : 0 ms
[OGL LOG] matrix not stored update host matrix
[OGL LOG] update_host_mtx : 0 ms
[OGL LOG] matrix is not yet sorted, sorting host matrix
[OGL LOG] sort_host_mtx_sparsity_pattern : 0 ms
[OGL LOG] sort_host_mtx : 0 ms
[OGL LOG] init_preconditioner : 0 ms
[OGL LOG] solve : 16 ms
noneompGKOBiCGStab:  Solving for p, Initial residual = 0.0111672, Final residual = 9.98252e-05, No Iterations 59
linear solve p 19324
time step continuity errors : sum local = 1.91737e-07, global = 1.78109e-20, cumulative = 2.8738e-20
[OGL LOG] init_host_sparsity_pattern : 0 ms
[OGL LOG] matrix not stored update host matrix
[OGL LOG] update_host_mtx : 0 ms
[OGL LOG] matrix is not yet sorted, sorting host matrix
[OGL LOG] sort_host_mtx_sparsity_pattern : 0 ms
[OGL LOG] sort_host_mtx : 0 ms
[OGL LOG] init_preconditioner : 0 ms
[OGL LOG] solve : 7 ms
noneompGKOBiCGStab:  Solving for p, Initial residual = 0.00449238, Final residual = 9.31891e-05, No Iterations 26
linear solve p 10291
time step continuity errors : sum local = 1.90489e-07, global = -2.74566e-20, cumulative = 1.28141e-21
ExecutionTime = 4.65 s  ClockTime = 0 s

End

