/*---------------------------------------------------------------------------*\
  =========                 |
  \\      /  F ield         | OpenFOAM: The Open Source CFD Toolbox
   \\    /   O peration     | Website:  https://openfoam.org
    \\  /    A nd           | Version:  8
     \\/     M anipulation  |
\*---------------------------------------------------------------------------*/
Build  : 8-ef60d22ea792
Exec   : icoFoam
Date   : Jul 29 2021
Time   : 03:45:37
Host   : "uc2n489.localdomain"
PID    : 3422399
I/O    : uncollated
Case   : /pfs/data5/home/kit/scc/nq7776/code/OBR/lidDrivenCavity3D/Variation_mesh/80/Variation_matrix_solver/BiCGStab_NoPrecond_CUDA/base
nProcs : 1
sigFpe : Enabling floating point exception trapping (FOAM_SIGFPE).
fileModificationChecking : Monitoring run-time modified files using timeStampMaster (fileModificationSkew 10)
allowSystemOperations : Allowing user-supplied system call operations

// * * * * * * * * * * * * * * * * * * * * * * * * * * * * * * * * * * * * * //
Create time

Create mesh for time = 0

Reading transportProperties

Reading field p

Reading field U

Reading/calculating face flux field phi


Starting time loop

Time = 0.001

Courant Number mean: 0 max: 0
DILUPBiCGStab:  Solving for Ux, Initial residual = 1, Final residual = 0.00289442, No Iterations 5
DILUPBiCGStab:  Solving for Uy:  solution singularity
DILUPBiCGStab:  Solving for Uz:  solution singularity
linear solve U 253782
[OGL LOG] init_host_sparsity_pattern : 146 ms
[OGL LOG] matrix not stored update host matrix
[OGL LOG] update_host_mtx : 75 ms
[OGL LOG] matrix is not yet sorted, compute sorting idxs
[OGL LOG] compute_sort : 4438 ms
[OGL LOG] matrix is not yet sorted, sorting host matrix
[OGL LOG] sort_host_mtx_sparsity_pattern : 102 ms
[OGL LOG] sort_host_mtx : 58 ms
[OGL LOG] init_preconditioner : 0 ms
[OGL LOG] solve : 683 ms
nonecudaGKOBiCGStab:  Solving for p, Initial residual = 1, Final residual = 3.18833e-05, No Iterations 478
linear solve p 6276044
time step continuity errors : sum local = 0.00342522, global = -5.86277e-19, cumulative = -5.86277e-19
[OGL LOG] init_host_sparsity_pattern : 141 ms
[OGL LOG] matrix not stored update host matrix
[OGL LOG] update_host_mtx : 76 ms
[OGL LOG] matrix is not yet sorted, sorting host matrix
[OGL LOG] sort_host_mtx_sparsity_pattern : 108 ms
[OGL LOG] sort_host_mtx : 52 ms
[OGL LOG] init_preconditioner : 0 ms
[OGL LOG] solve : 310 ms
nonecudaGKOBiCGStab:  Solving for p, Initial residual = 0.963867, Final residual = 8.37801e-05, No Iterations 214
linear solve p 724900
time step continuity errors : sum local = 5.05953e-07, global = -1.3285e-21, cumulative = -5.87606e-19
ExecutionTime = 9.3 s  ClockTime = 9 s

Time = 0.002

Courant Number mean: 0.0452081 max: 0.620592
DILUPBiCGStab:  Solving for Ux, Initial residual = 0.147688, Final residual = 0.00106364, No Iterations 5
DILUPBiCGStab:  Solving for Uy, Initial residual = 0.39177, Final residual = 0.00261797, No Iterations 5
DILUPBiCGStab:  Solving for Uz, Initial residual = 0.882787, Final residual = 0.010959, No Iterations 5
linear solve U 494277
[OGL LOG] init_host_sparsity_pattern : 143 ms
[OGL LOG] matrix not stored update host matrix
[OGL LOG] update_host_mtx : 75 ms
[OGL LOG] matrix is not yet sorted, sorting host matrix
[OGL LOG] sort_host_mtx_sparsity_pattern : 104 ms
[OGL LOG] sort_host_mtx : 52 ms
[OGL LOG] init_preconditioner : 0 ms
[OGL LOG] solve : 613 ms
nonecudaGKOBiCGStab:  Solving for p, Initial residual = 0.98611, Final residual = 9.94898e-05, No Iterations 428
linear solve p 1021766
time step continuity errors : sum local = 0.000439242, global = 2.16857e-19, cumulative = -3.70749e-19
[OGL LOG] init_host_sparsity_pattern : 141 ms
[OGL LOG] matrix not stored update host matrix
[OGL LOG] update_host_mtx : 77 ms
[OGL LOG] matrix is not yet sorted, sorting host matrix
[OGL LOG] sort_host_mtx_sparsity_pattern : 104 ms
[OGL LOG] sort_host_mtx : 52 ms
[OGL LOG] init_preconditioner : 0 ms
[OGL LOG] solve : 596 ms
nonecudaGKOBiCGStab:  Solving for p, Initial residual = 0.862593, Final residual = 9.45285e-05, No Iterations 416
linear solve p 1009119
time step continuity errors : sum local = 3.26469e-06, global = -2.53891e-20, cumulative = -3.96138e-19
ExecutionTime = 12.14 s  ClockTime = 12 s

Time = 0.003

Courant Number mean: 0.078558 max: 0.892772
DILUPBiCGStab:  Solving for Ux, Initial residual = 0.080348, Final residual = 0.000423407, No Iterations 5
DILUPBiCGStab:  Solving for Uy, Initial residual = 0.281565, Final residual = 0.00168451, No Iterations 5
DILUPBiCGStab:  Solving for Uz, Initial residual = 0.82243, Final residual = 0.0055697, No Iterations 5
linear solve U 500663
[OGL LOG] init_host_sparsity_pattern : 141 ms
[OGL LOG] matrix not stored update host matrix
[OGL LOG] update_host_mtx : 75 ms
[OGL LOG] matrix is not yet sorted, sorting host matrix
[OGL LOG] sort_host_mtx_sparsity_pattern : 104 ms
[OGL LOG] sort_host_mtx : 52 ms
[OGL LOG] init_preconditioner : 0 ms
[OGL LOG] solve : 704 ms
nonecudaGKOBiCGStab:  Solving for p, Initial residual = 0.967143, Final residual = 9.36108e-05, No Iterations 492
linear solve p 1111546
time step continuity errors : sum local = 0.0176446, global = -9.04956e-18, cumulative = -9.4457e-18
[OGL LOG] init_host_sparsity_pattern : 141 ms
[OGL LOG] matrix not stored update host matrix
[OGL LOG] update_host_mtx : 75 ms
[OGL LOG] matrix is not yet sorted, sorting host matrix
[OGL LOG] sort_host_mtx_sparsity_pattern : 104 ms
[OGL LOG] sort_host_mtx : 52 ms
[OGL LOG] init_preconditioner : 0 ms
[OGL LOG] solve : 650 ms
nonecudaGKOBiCGStab:  Solving for p, Initial residual = 0.985986, Final residual = 9.92219e-05, No Iterations 452
linear solve p 1058892
time step continuity errors : sum local = 6.28643e-06, global = 6.07281e-20, cumulative = -9.38497e-18
ExecutionTime = 15.12 s  ClockTime = 15 s

Time = 0.004

Courant Number mean: 0.0826743 max: 0.785065
DILUPBiCGStab:  Solving for Ux, Initial residual = 0.0632593, Final residual = 0.000370574, No Iterations 5
DILUPBiCGStab:  Solving for Uy, Initial residual = 0.257892, Final residual = 0.00269409, No Iterations 5
DILUPBiCGStab:  Solving for Uz, Initial residual = 0.878606, Final residual = 0.0103632, No Iterations 5
linear solve U 493462
[OGL LOG] init_host_sparsity_pattern : 141 ms
[OGL LOG] matrix not stored update host matrix
[OGL LOG] update_host_mtx : 75 ms
[OGL LOG] matrix is not yet sorted, sorting host matrix
[OGL LOG] sort_host_mtx_sparsity_pattern : 108 ms
[OGL LOG] sort_host_mtx : 52 ms
[OGL LOG] init_preconditioner : 0 ms
[OGL LOG] solve : 610 ms
nonecudaGKOBiCGStab:  Solving for p, Initial residual = 0.995065, Final residual = 9.87473e-05, No Iterations 424
linear solve p 1021048
time step continuity errors : sum local = 0.00294232, global = -2.90467e-18, cumulative = -1.22896e-17
[OGL LOG] init_host_sparsity_pattern : 141 ms
[OGL LOG] matrix not stored update host matrix
[OGL LOG] update_host_mtx : 75 ms
[OGL LOG] matrix is not yet sorted, sorting host matrix
[OGL LOG] sort_host_mtx_sparsity_pattern : 105 ms
[OGL LOG] sort_host_mtx : 52 ms
[OGL LOG] init_preconditioner : 0 ms
[OGL LOG] solve : 296 ms
nonecudaGKOBiCGStab:  Solving for p, Initial residual = 0.870297, Final residual = 9.66394e-05, No Iterations 204
linear solve p 702917
time step continuity errors : sum local = 8.58105e-06, global = -1.13473e-20, cumulative = -1.2301e-17
ExecutionTime = 17.64 s  ClockTime = 18 s

Time = 0.005

Courant Number mean: 0.147944 max: 1.59052
DILUPBiCGStab:  Solving for Ux, Initial residual = 0.15534, Final residual = 0.000837444, No Iterations 5
DILUPBiCGStab:  Solving for Uy, Initial residual = 0.49779, Final residual = 0.00294608, No Iterations 5
DILUPBiCGStab:  Solving for Uz, Initial residual = 0.816432, Final residual = 0.00588944, No Iterations 5
linear solve U 503323
[OGL LOG] init_host_sparsity_pattern : 141 ms
[OGL LOG] matrix not stored update host matrix
[OGL LOG] update_host_mtx : 75 ms
[OGL LOG] matrix is not yet sorted, sorting host matrix
[OGL LOG] sort_host_mtx_sparsity_pattern : 104 ms
[OGL LOG] sort_host_mtx : 52 ms
[OGL LOG] init_preconditioner : 0 ms
[OGL LOG] solve : 695 ms
nonecudaGKOBiCGStab:  Solving for p, Initial residual = 0.979978, Final residual = 9.60078e-05, No Iterations 485
linear solve p 1102081
time step continuity errors : sum local = 0.0097023, global = 2.11507e-17, cumulative = 8.84975e-18
[OGL LOG] init_host_sparsity_pattern : 141 ms
[OGL LOG] matrix not stored update host matrix
[OGL LOG] update_host_mtx : 77 ms
[OGL LOG] matrix is not yet sorted, sorting host matrix
[OGL LOG] sort_host_mtx_sparsity_pattern : 107 ms
[OGL LOG] sort_host_mtx : 53 ms
[OGL LOG] init_preconditioner : 0 ms
[OGL LOG] solve : 633 ms
nonecudaGKOBiCGStab:  Solving for p, Initial residual = 0.83179, Final residual = 9.92413e-05, No Iterations 441
linear solve p 1048835
time step continuity errors : sum local = 0.00120636, global = 4.03335e-20, cumulative = 8.89009e-18
ExecutionTime = 20.59 s  ClockTime = 21 s

Time = 0.006

Courant Number mean: 0.113246 max: 1.6602
DILUPBiCGStab:  Solving for Ux, Initial residual = 0.12342, Final residual = 0.000780693, No Iterations 5
DILUPBiCGStab:  Solving for Uy, Initial residual = 0.384864, Final residual = 0.00311465, No Iterations 5
DILUPBiCGStab:  Solving for Uz, Initial residual = 0.853771, Final residual = 0.00747025, No Iterations 5
linear solve U 493147
[OGL LOG] init_host_sparsity_pattern : 141 ms
[OGL LOG] matrix not stored update host matrix
[OGL LOG] update_host_mtx : 75 ms
[OGL LOG] matrix is not yet sorted, sorting host matrix
[OGL LOG] sort_host_mtx_sparsity_pattern : 104 ms
[OGL LOG] sort_host_mtx : 52 ms
[OGL LOG] init_preconditioner : 0 ms
[OGL LOG] solve : 685 ms
nonecudaGKOBiCGStab:  Solving for p, Initial residual = 0.979856, Final residual = 5.09284e-05, No Iterations 478
linear solve p 1091873
time step continuity errors : sum local = 0.136488, global = 1.25451e-16, cumulative = 1.34341e-16
[OGL LOG] init_host_sparsity_pattern : 141 ms
[OGL LOG] matrix not stored update host matrix
[OGL LOG] update_host_mtx : 75 ms
[OGL LOG] matrix is not yet sorted, sorting host matrix
[OGL LOG] sort_host_mtx_sparsity_pattern : 104 ms
[OGL LOG] sort_host_mtx : 52 ms
[OGL LOG] init_preconditioner : 0 ms
[OGL LOG] solve : 544 ms
nonecudaGKOBiCGStab:  Solving for p, Initial residual = 0.787287, Final residual = 9.65981e-05, No Iterations 379
linear solve p 950903
time step continuity errors : sum local = 4.6078e-05, global = -3.26257e-20, cumulative = 1.34309e-16
ExecutionTime = 23.41 s  ClockTime = 24 s

Time = 0.007

Courant Number mean: 0.15967 max: 5.29067
DILUPBiCGStab:  Solving for Ux, Initial residual = 0.189039, Final residual = 0.00151103, No Iterations 5
DILUPBiCGStab:  Solving for Uy, Initial residual = 0.526565, Final residual = 0.00853056, No Iterations 5
DILUPBiCGStab:  Solving for Uz, Initial residual = 0.853904, Final residual = 0.0102787, No Iterations 5
linear solve U 496412
[OGL LOG] init_host_sparsity_pattern : 141 ms
[OGL LOG] matrix not stored update host matrix
[OGL LOG] update_host_mtx : 75 ms
[OGL LOG] matrix is not yet sorted, sorting host matrix
[OGL LOG] sort_host_mtx_sparsity_pattern : 107 ms
[OGL LOG] sort_host_mtx : 52 ms
[OGL LOG] init_preconditioner : 0 ms
[OGL LOG] solve : 635 ms
nonecudaGKOBiCGStab:  Solving for p, Initial residual = 0.995566, Final residual = 8.39975e-05, No Iterations 442
linear solve p 1044635
time step continuity errors : sum local = 0.335698, global = 1.7057e-16, cumulative = 3.04879e-16
[OGL LOG] init_host_sparsity_pattern : 141 ms
[OGL LOG] matrix not stored update host matrix
[OGL LOG] update_host_mtx : 75 ms
[OGL LOG] matrix is not yet sorted, sorting host matrix
[OGL LOG] sort_host_mtx_sparsity_pattern : 106 ms
[OGL LOG] sort_host_mtx : 52 ms
[OGL LOG] init_preconditioner : 0 ms
[OGL LOG] solve : 613 ms
nonecudaGKOBiCGStab:  Solving for p, Initial residual = 0.791039, Final residual = 9.98903e-05, No Iterations 428
linear solve p 1021600
time step continuity errors : sum local = 0.216819, global = -6.61533e-18, cumulative = 2.98264e-16
ExecutionTime = 26.29 s  ClockTime = 26 s

Time = 0.008

Courant Number mean: 0.763257 max: 21.5809
DILUPBiCGStab:  Solving for Ux, Initial residual = 0.602411, Final residual = 0.00436369, No Iterations 5
DILUPBiCGStab:  Solving for Uy, Initial residual = 0.763516, Final residual = 0.0100324, No Iterations 5
DILUPBiCGStab:  Solving for Uz, Initial residual = 0.851774, Final residual = 0.0186288, No Iterations 5
linear solve U 494589
[OGL LOG] init_host_sparsity_pattern : 141 ms
[OGL LOG] matrix not stored update host matrix
[OGL LOG] update_host_mtx : 75 ms
[OGL LOG] matrix is not yet sorted, sorting host matrix
[OGL LOG] sort_host_mtx_sparsity_pattern : 104 ms
[OGL LOG] sort_host_mtx : 52 ms
[OGL LOG] init_preconditioner : 0 ms
[OGL LOG] solve : 638 ms
nonecudaGKOBiCGStab:  Solving for p, Initial residual = 0.935996, Final residual = 9.59503e-05, No Iterations 442
linear solve p 1045026
time step continuity errors : sum local = 3.69041, global = -2.92375e-15, cumulative = -2.62548e-15
[OGL LOG] init_host_sparsity_pattern : 144 ms
[OGL LOG] matrix not stored update host matrix
[OGL LOG] update_host_mtx : 75 ms
[OGL LOG] matrix is not yet sorted, sorting host matrix
[OGL LOG] sort_host_mtx_sparsity_pattern : 104 ms
[OGL LOG] sort_host_mtx : 52 ms
[OGL LOG] init_preconditioner : 0 ms
[OGL LOG] solve : 232 ms
nonecudaGKOBiCGStab:  Solving for p, Initial residual = 0.760267, Final residual = 9.97283e-05, No Iterations 160
linear solve p 642503
time step continuity errors : sum local = 0.000896955, global = 5.84585e-19, cumulative = -2.6249e-15
ExecutionTime = 28.78 s  ClockTime = 29 s

Time = 0.009

Courant Number mean: 2.81571 max: 49.4667
DILUPBiCGStab:  Solving for Ux, Initial residual = 0.728123, Final residual = 0.0155385, No Iterations 5
DILUPBiCGStab:  Solving for Uy, Initial residual = 0.720437, Final residual = 0.0177229, No Iterations 5
DILUPBiCGStab:  Solving for Uz, Initial residual = 0.791554, Final residual = 0.0185489, No Iterations 5
linear solve U 493401
[OGL LOG] init_host_sparsity_pattern : 141 ms
[OGL LOG] matrix not stored update host matrix
[OGL LOG] update_host_mtx : 75 ms
[OGL LOG] matrix is not yet sorted, sorting host matrix
[OGL LOG] sort_host_mtx_sparsity_pattern : 116 ms
[OGL LOG] sort_host_mtx : 58 ms
[OGL LOG] init_preconditioner : 0 ms
[OGL LOG] solve : 565 ms
nonecudaGKOBiCGStab:  Solving for p, Initial residual = 0.982779, Final residual = 8.03247e-05, No Iterations 394
linear solve p 991872
time step continuity errors : sum local = 94.706, global = 6.83955e-15, cumulative = 4.21466e-15
[OGL LOG] init_host_sparsity_pattern : 141 ms
[OGL LOG] matrix not stored update host matrix
[OGL LOG] update_host_mtx : 75 ms
[OGL LOG] matrix is not yet sorted, sorting host matrix
[OGL LOG] sort_host_mtx_sparsity_pattern : 104 ms
[OGL LOG] sort_host_mtx : 52 ms
[OGL LOG] init_preconditioner : 0 ms
[OGL LOG] solve : 215 ms
nonecudaGKOBiCGStab:  Solving for p, Initial residual = 0.928899, Final residual = 6.36655e-05, No Iterations 147
linear solve p 621516
time step continuity errors : sum local = 0.0952723, global = -6.77568e-17, cumulative = 4.1469e-15
ExecutionTime = 31.17 s  ClockTime = 31 s

Time = 0.01

Courant Number mean: 25.8511 max: 891.228
DILUPBiCGStab:  Solving for Ux, Initial residual = 0.782592, Final residual = 2.01355, No Iterations 5
DILUPBiCGStab:  Solving for Uy, Initial residual = 0.794596, Final residual = 1.02205, No Iterations 5
DILUPBiCGStab:  Solving for Uz, Initial residual = 0.760895, Final residual = 1.3707, No Iterations 5
linear solve U 493522
[OGL LOG] init_host_sparsity_pattern : 142 ms
[OGL LOG] matrix not stored update host matrix
[OGL LOG] update_host_mtx : 75 ms
[OGL LOG] matrix is not yet sorted, sorting host matrix
[OGL LOG] sort_host_mtx_sparsity_pattern : 104 ms
[OGL LOG] sort_host_mtx : 52 ms
[OGL LOG] init_preconditioner : 0 ms
[OGL LOG] solve : 328 ms
nonecudaGKOBiCGStab:  Solving for p, Initial residual = 0.830068, Final residual = 9.75123e-05, No Iterations 227
linear solve p 734575
time step continuity errors : sum local = 0.0295767, global = 1.6217e-16, cumulative = 4.30907e-15
[OGL LOG] init_host_sparsity_pattern : 141 ms
[OGL LOG] matrix not stored update host matrix
[OGL LOG] update_host_mtx : 75 ms
[OGL LOG] matrix is not yet sorted, sorting host matrix
[OGL LOG] sort_host_mtx_sparsity_pattern : 105 ms
[OGL LOG] sort_host_mtx : 52 ms
[OGL LOG] init_preconditioner : 0 ms
[OGL LOG] solve : 302 ms
nonecudaGKOBiCGStab:  Solving for p, Initial residual = 0.786566, Final residual = 9.78428e-05, No Iterations 208
linear solve p 708832
time step continuity errors : sum local = 0.0650328, global = 4.34909e-16, cumulative = 4.74398e-15
ExecutionTime = 33.4 s  ClockTime = 34 s

End

