/*---------------------------------------------------------------------------*\
  =========                 |
  \\      /  F ield         | OpenFOAM: The Open Source CFD Toolbox
   \\    /   O peration     | Website:  https://openfoam.org
    \\  /    A nd           | Version:  8
     \\/     M anipulation  |
\*---------------------------------------------------------------------------*/
Build  : 8-14d69e1ee166
Exec   : icoFoam
Date   : Jul 29 2021
Time   : 08:34:12
Host   : "guyot.icl.utk.edu"
PID    : 145594
I/O    : uncollated
Case   : /home/greole/code/OBR/lidDrivenCavity3D/Variation_mesh/10/Variation_matrix_solver/BiCGStab_NoPrecond_Serial/base
nProcs : 1
sigFpe : Enabling floating point exception trapping (FOAM_SIGFPE).
fileModificationChecking : Monitoring run-time modified files using timeStampMaster (fileModificationSkew 10)
allowSystemOperations : Allowing user-supplied system call operations

// * * * * * * * * * * * * * * * * * * * * * * * * * * * * * * * * * * * * * //
Create time

Create mesh for time = 0

Reading transportProperties

Reading field p

Reading field U

Reading/calculating face flux field phi


Starting time loop

Time = 0.001

Courant Number mean: 0 max: 0
DILUPBiCGStab:  Solving for Ux, Initial residual = 1, Final residual = 8.04173e-19, No Iterations 5
DILUPBiCGStab:  Solving for Uy:  solution singularity
DILUPBiCGStab:  Solving for Uz:  solution singularity
linear solve U 494
nonePBiCGStab:  Solving for p, Initial residual = 1, Final residual = 2.5826e-05, No Iterations 58
linear solve p 1094
time step continuity errors : sum local = 1.69389e-08, global = -3.75871e-21, cumulative = -3.75871e-21
nonePBiCGStab:  Solving for p, Initial residual = 0.190418, Final residual = 3.48831e-05, No Iterations 52
linear solve p 956
time step continuity errors : sum local = 3.13704e-08, global = -2.89182e-21, cumulative = -6.65053e-21
ExecutionTime = 0.08 s  ClockTime = 0 s

Time = 0.002

Courant Number mean: 0.00276862 max: 0.0123847
DILUPBiCGStab:  Solving for Ux, Initial residual = 0.271631, Final residual = 6.92786e-20, No Iterations 5
DILUPBiCGStab:  Solving for Uy, Initial residual = 0.305257, Final residual = 9.73346e-20, No Iterations 5
DILUPBiCGStab:  Solving for Uz, Initial residual = 0.476585, Final residual = 1.63428e-19, No Iterations 5
linear solve U 640
nonePBiCGStab:  Solving for p, Initial residual = 0.124823, Final residual = 8.38509e-05, No Iterations 50
linear solve p 913
time step continuity errors : sum local = 1.04338e-07, global = 2.3194e-21, cumulative = -4.33113e-21
nonePBiCGStab:  Solving for p, Initial residual = 0.0212635, Final residual = 9.91308e-05, No Iterations 19
linear solve p 405
time step continuity errors : sum local = 8.85066e-08, global = 1.70482e-21, cumulative = -2.62631e-21
ExecutionTime = 0.08 s  ClockTime = 0 s

Time = 0.003

Courant Number mean: 0.00491749 max: 0.0221391
DILUPBiCGStab:  Solving for Ux, Initial residual = 0.137894, Final residual = 3.70086e-20, No Iterations 5
DILUPBiCGStab:  Solving for Uy, Initial residual = 0.165996, Final residual = 4.87334e-20, No Iterations 5
DILUPBiCGStab:  Solving for Uz, Initial residual = 0.288552, Final residual = 9.79805e-20, No Iterations 5
linear solve U 634
nonePBiCGStab:  Solving for p, Initial residual = 0.0635495, Final residual = 9.96207e-05, No Iterations 50
linear solve p 921
time step continuity errors : sum local = 1.42907e-07, global = -3.61312e-21, cumulative = -6.23944e-21
nonePBiCGStab:  Solving for p, Initial residual = 0.0132694, Final residual = 9.97605e-05, No Iterations 18
linear solve p 343
time step continuity errors : sum local = 9.76646e-08, global = 1.70052e-20, cumulative = 1.07657e-20
ExecutionTime = 0.08 s  ClockTime = 0 s

Time = 0.004

Courant Number mean: 0.00660404 max: 0.0298429
DILUPBiCGStab:  Solving for Ux, Initial residual = 0.0843988, Final residual = 2.35703e-20, No Iterations 5
DILUPBiCGStab:  Solving for Uy, Initial residual = 0.107799, Final residual = 2.84373e-20, No Iterations 5
DILUPBiCGStab:  Solving for Uz, Initial residual = 0.193306, Final residual = 7.48524e-20, No Iterations 5
linear solve U 641
nonePBiCGStab:  Solving for p, Initial residual = 0.0390702, Final residual = 8.67787e-05, No Iterations 50
linear solve p 923
time step continuity errors : sum local = 1.2538e-07, global = 3.63629e-21, cumulative = 1.4402e-20
nonePBiCGStab:  Solving for p, Initial residual = 0.00958326, Final residual = 9.66355e-05, No Iterations 17
linear solve p 328
time step continuity errors : sum local = 8.94601e-08, global = 3.86881e-20, cumulative = 5.30901e-20
ExecutionTime = 0.09 s  ClockTime = 0 s

Time = 0.005

Courant Number mean: 0.00794447 max: 0.0359757
DILUPBiCGStab:  Solving for Ux, Initial residual = 0.0590326, Final residual = 1.62579e-20, No Iterations 5
DILUPBiCGStab:  Solving for Uy, Initial residual = 0.0764528, Final residual = 1.78298e-20, No Iterations 5
DILUPBiCGStab:  Solving for Uz, Initial residual = 0.150485, Final residual = 6.39804e-20, No Iterations 5
linear solve U 630
nonePBiCGStab:  Solving for p, Initial residual = 0.0281256, Final residual = 8.18702e-05, No Iterations 45
linear solve p 823
time step continuity errors : sum local = 1.19289e-07, global = -1.33341e-20, cumulative = 3.9756e-20
nonePBiCGStab:  Solving for p, Initial residual = 0.00736705, Final residual = 8.50808e-05, No Iterations 17
linear solve p 333
time step continuity errors : sum local = 9.03135e-08, global = -1.703e-20, cumulative = 2.2726e-20
ExecutionTime = 0.09 s  ClockTime = 0 s

Time = 0.006

Courant Number mean: 0.00902429 max: 0.0408975
DILUPBiCGStab:  Solving for Ux, Initial residual = 0.0444221, Final residual = 1.17372e-20, No Iterations 5
DILUPBiCGStab:  Solving for Uy, Initial residual = 0.0572693, Final residual = 1.17257e-20, No Iterations 5
DILUPBiCGStab:  Solving for Uz, Initial residual = 0.122342, Final residual = 5.10875e-20, No Iterations 5
linear solve U 637
nonePBiCGStab:  Solving for p, Initial residual = 0.0228219, Final residual = 9.62061e-05, No Iterations 49
linear solve p 889
time step continuity errors : sum local = 1.38142e-07, global = 6.52811e-21, cumulative = 2.92541e-20
nonePBiCGStab:  Solving for p, Initial residual = 0.00582113, Final residual = 9.86269e-05, No Iterations 16
linear solve p 314
time step continuity errors : sum local = 1.14951e-07, global = -1.40794e-20, cumulative = 1.51746e-20
ExecutionTime = 0.09 s  ClockTime = 0 s

Time = 0.007

Courant Number mean: 0.00990708 max: 0.04488
DILUPBiCGStab:  Solving for Ux, Initial residual = 0.0348983, Final residual = 8.75767e-21, No Iterations 5
DILUPBiCGStab:  Solving for Uy, Initial residual = 0.0446043, Final residual = 8.05625e-21, No Iterations 5
DILUPBiCGStab:  Solving for Uz, Initial residual = 0.102265, Final residual = 4.23179e-20, No Iterations 5
linear solve U 636
nonePBiCGStab:  Solving for p, Initial residual = 0.0194922, Final residual = 9.17649e-05, No Iterations 44
linear solve p 808
time step continuity errors : sum local = 1.41162e-07, global = 1.02008e-20, cumulative = 2.53754e-20
nonePBiCGStab:  Solving for p, Initial residual = 0.0047536, Final residual = 7.26274e-05, No Iterations 17
linear solve p 331
time step continuity errors : sum local = 1.03344e-07, global = 1.00899e-20, cumulative = 3.54654e-20
ExecutionTime = 0.09 s  ClockTime = 0 s

Time = 0.008

Courant Number mean: 0.0106746 max: 0.0481313
DILUPBiCGStab:  Solving for Ux, Initial residual = 0.0282091, Final residual = 6.85069e-21, No Iterations 5
DILUPBiCGStab:  Solving for Uy, Initial residual = 0.0357585, Final residual = 5.92595e-21, No Iterations 5
DILUPBiCGStab:  Solving for Uz, Initial residual = 0.0863458, Final residual = 3.55781e-20, No Iterations 5
linear solve U 634
nonePBiCGStab:  Solving for p, Initial residual = 0.0167739, Final residual = 9.42825e-05, No Iterations 45
linear solve p 827
time step continuity errors : sum local = 1.3388e-07, global = -3.61974e-21, cumulative = 3.18456e-20
nonePBiCGStab:  Solving for p, Initial residual = 0.0038686, Final residual = 8.91273e-05, No Iterations 16
linear solve p 309
time step continuity errors : sum local = 1.11349e-07, global = -2.48378e-20, cumulative = 7.00787e-21
ExecutionTime = 0.1 s  ClockTime = 0 s

Time = 0.009

Courant Number mean: 0.0113439 max: 0.0508022
DILUPBiCGStab:  Solving for Ux, Initial residual = 0.0231936, Final residual = 5.57749e-21, No Iterations 5
DILUPBiCGStab:  Solving for Uy, Initial residual = 0.0293752, Final residual = 4.75114e-21, No Iterations 5
DILUPBiCGStab:  Solving for Uz, Initial residual = 0.0734637, Final residual = 2.93969e-20, No Iterations 5
linear solve U 637
nonePBiCGStab:  Solving for p, Initial residual = 0.0150763, Final residual = 9.82503e-05, No Iterations 21
linear solve p 399
time step continuity errors : sum local = 1.63974e-07, global = 2.63614e-20, cumulative = 3.33693e-20
nonePBiCGStab:  Solving for p, Initial residual = 0.0033721, Final residual = 8.25092e-05, No Iterations 16
linear solve p 307
time step continuity errors : sum local = 1.36784e-07, global = 4.11572e-20, cumulative = 7.45265e-20
ExecutionTime = 0.1 s  ClockTime = 0 s

Time = 0.01

Courant Number mean: 0.0119442 max: 0.053017
DILUPBiCGStab:  Solving for Ux, Initial residual = 0.0193024, Final residual = 4.68974e-21, No Iterations 5
DILUPBiCGStab:  Solving for Uy, Initial residual = 0.0245457, Final residual = 4.13285e-21, No Iterations 5
DILUPBiCGStab:  Solving for Uz, Initial residual = 0.0637972, Final residual = 2.56527e-20, No Iterations 5
linear solve U 632
nonePBiCGStab:  Solving for p, Initial residual = 0.0134699, Final residual = 8.94516e-05, No Iterations 44
linear solve p 799
time step continuity errors : sum local = 1.09828e-07, global = 3.6032e-21, cumulative = 7.81297e-20
nonePBiCGStab:  Solving for p, Initial residual = 0.00272835, Final residual = 7.76865e-05, No Iterations 16
linear solve p 309
time step continuity errors : sum local = 8.17243e-08, global = -6.40362e-20, cumulative = 1.40935e-20
ExecutionTime = 0.1 s  ClockTime = 0 s

End

