/*---------------------------------------------------------------------------*\
  =========                 |
  \\      /  F ield         | OpenFOAM: The Open Source CFD Toolbox
   \\    /   O peration     | Website:  https://openfoam.org
    \\  /    A nd           | Version:  8
     \\/     M anipulation  |
\*---------------------------------------------------------------------------*/
Build  : 8-14d69e1ee166
Exec   : icoFoam
Date   : Jul 29 2021
Time   : 08:43:05
Host   : "guyot.icl.utk.edu"
PID    : 165929
I/O    : uncollated
Case   : /home/greole/code/OBR/lidDrivenCavity3D/Variation_mesh/35/Variation_matrix_solver/IR_NoPrecond_CUDA/base
nProcs : 1
sigFpe : Enabling floating point exception trapping (FOAM_SIGFPE).
fileModificationChecking : Monitoring run-time modified files using timeStampMaster (fileModificationSkew 10)
allowSystemOperations : Allowing user-supplied system call operations

// * * * * * * * * * * * * * * * * * * * * * * * * * * * * * * * * * * * * * //
Create time

Create mesh for time = 0

Reading transportProperties

Reading field p

Reading field U

Reading/calculating face flux field phi


Starting time loop

Time = 0.001

Courant Number mean: 0 max: 0
DILUPBiCGStab:  Solving for Ux, Initial residual = 1, Final residual = 2.20563e-06, No Iterations 5
DILUPBiCGStab:  Solving for Uy:  solution singularity
DILUPBiCGStab:  Solving for Uz:  solution singularity
linear solve U 15178
[OGL LOG] init_host_sparsity_pattern : 19 ms
[OGL LOG] matrix not stored update host matrix
[OGL LOG] update_host_mtx : 9 ms
[OGL LOG] matrix is not yet sorted, compute sorting idxs
[OGL LOG] compute_sort : 379 ms
[OGL LOG] matrix is not yet sorted, sorting host matrix
[OGL LOG] sort_host_mtx_sparsity_pattern : 8 ms
[OGL LOG] sort_host_mtx : 5 ms
[OGL LOG] init_preconditioner : 0 ms
[OGL LOG] solve : 62 ms
nonecudaGKOIR:  Solving for p, Initial residual = 1, Final residual = 8.1781e-06, No Iterations 3
linear solve p 2138866
time step continuity errors : sum local = 4.54587e-09, global = 4.65536e-21, cumulative = 4.65536e-21
[OGL LOG] init_host_sparsity_pattern : 18 ms
[OGL LOG] matrix not stored update host matrix
[OGL LOG] update_host_mtx : 9 ms
[OGL LOG] matrix is not yet sorted, sorting host matrix
[OGL LOG] sort_host_mtx_sparsity_pattern : 7 ms
[OGL LOG] sort_host_mtx : 4 ms
[OGL LOG] init_preconditioner : 0 ms
[OGL LOG] solve : 61 ms
nonecudaGKOIR:  Solving for p, Initial residual = 0.574359, Final residual = 3.1626e-06, No Iterations 3
linear solve p 105151
time step continuity errors : sum local = 2.66062e-09, global = -1.09599e-20, cumulative = -6.30449e-21
ExecutionTime = 2.48 s  ClockTime = 3 s

Time = 0.002

Courant Number mean: 0.0182993 max: 0.192029
DILUPBiCGStab:  Solving for Ux, Initial residual = 0.186251, Final residual = 3.84086e-07, No Iterations 5
DILUPBiCGStab:  Solving for Uy, Initial residual = 0.280736, Final residual = 4.98028e-07, No Iterations 5
DILUPBiCGStab:  Solving for Uz, Initial residual = 0.945508, Final residual = 1.91141e-06, No Iterations 5
linear solve U 28806
[OGL LOG] init_host_sparsity_pattern : 17 ms
[OGL LOG] matrix not stored update host matrix
[OGL LOG] update_host_mtx : 9 ms
[OGL LOG] matrix is not yet sorted, sorting host matrix
[OGL LOG] sort_host_mtx_sparsity_pattern : 7 ms
[OGL LOG] sort_host_mtx : 4 ms
[OGL LOG] init_preconditioner : 0 ms
[OGL LOG] solve : 62 ms
nonecudaGKOIR:  Solving for p, Initial residual = 0.410278, Final residual = 1.24579e-06, No Iterations 3
linear solve p 105479
time step continuity errors : sum local = 9.89113e-10, global = -9.59787e-21, cumulative = -1.59024e-20
[OGL LOG] init_host_sparsity_pattern : 18 ms
[OGL LOG] matrix not stored update host matrix
[OGL LOG] update_host_mtx : 9 ms
[OGL LOG] matrix is not yet sorted, sorting host matrix
[OGL LOG] sort_host_mtx_sparsity_pattern : 6 ms
[OGL LOG] sort_host_mtx : 4 ms
[OGL LOG] init_preconditioner : 0 ms
[OGL LOG] solve : 47 ms
nonecudaGKOIR:  Solving for p, Initial residual = 0.311799, Final residual = 9.44159e-05, No Iterations 2
linear solve p 91006
time step continuity errors : sum local = 7.83529e-08, global = 7.01827e-21, cumulative = -8.8841e-21
ExecutionTime = 2.71 s  ClockTime = 3 s

Time = 0.003

Courant Number mean: 0.0280032 max: 0.255325
DILUPBiCGStab:  Solving for Ux, Initial residual = 0.0713014, Final residual = 1.27854e-07, No Iterations 5
DILUPBiCGStab:  Solving for Uy, Initial residual = 0.109868, Final residual = 1.1685e-07, No Iterations 5
DILUPBiCGStab:  Solving for Uz, Initial residual = 0.165705, Final residual = 3.48146e-07, No Iterations 5
linear solve U 28147
[OGL LOG] init_host_sparsity_pattern : 18 ms
[OGL LOG] matrix not stored update host matrix
[OGL LOG] update_host_mtx : 9 ms
[OGL LOG] matrix is not yet sorted, sorting host matrix
[OGL LOG] sort_host_mtx_sparsity_pattern : 6 ms
[OGL LOG] sort_host_mtx : 4 ms
[OGL LOG] init_preconditioner : 0 ms
[OGL LOG] solve : 48 ms
nonecudaGKOIR:  Solving for p, Initial residual = 0.128598, Final residual = 2.91846e-05, No Iterations 2
linear solve p 91599
time step continuity errors : sum local = 2.00155e-08, global = 2.84963e-21, cumulative = -6.03447e-21
[OGL LOG] init_host_sparsity_pattern : 18 ms
[OGL LOG] matrix not stored update host matrix
[OGL LOG] update_host_mtx : 9 ms
[OGL LOG] matrix is not yet sorted, sorting host matrix
[OGL LOG] sort_host_mtx_sparsity_pattern : 6 ms
[OGL LOG] sort_host_mtx : 4 ms
[OGL LOG] init_preconditioner : 0 ms
[OGL LOG] solve : 48 ms
nonecudaGKOIR:  Solving for p, Initial residual = 0.0985114, Final residual = 1.96009e-05, No Iterations 2
linear solve p 91900
time step continuity errors : sum local = 1.35409e-08, global = 2.10023e-20, cumulative = 1.49678e-20
ExecutionTime = 2.95 s  ClockTime = 3 s

Time = 0.004

Courant Number mean: 0.0339239 max: 0.277399
DILUPBiCGStab:  Solving for Ux, Initial residual = 0.0415548, Final residual = 6.91784e-08, No Iterations 5
DILUPBiCGStab:  Solving for Uy, Initial residual = 0.067317, Final residual = 4.47388e-08, No Iterations 5
DILUPBiCGStab:  Solving for Uz, Initial residual = 0.104455, Final residual = 8.35453e-08, No Iterations 5
linear solve U 28063
[OGL LOG] init_host_sparsity_pattern : 18 ms
[OGL LOG] matrix not stored update host matrix
[OGL LOG] update_host_mtx : 9 ms
[OGL LOG] matrix is not yet sorted, sorting host matrix
[OGL LOG] sort_host_mtx_sparsity_pattern : 6 ms
[OGL LOG] sort_host_mtx : 4 ms
[OGL LOG] init_preconditioner : 0 ms
[OGL LOG] solve : 48 ms
nonecudaGKOIR:  Solving for p, Initial residual = 0.065, Final residual = 1.75692e-05, No Iterations 2
linear solve p 92284
time step continuity errors : sum local = 1.18053e-08, global = 7.44618e-21, cumulative = 2.2414e-20
[OGL LOG] init_host_sparsity_pattern : 18 ms
[OGL LOG] matrix not stored update host matrix
[OGL LOG] update_host_mtx : 9 ms
[OGL LOG] matrix is not yet sorted, sorting host matrix
[OGL LOG] sort_host_mtx_sparsity_pattern : 6 ms
[OGL LOG] sort_host_mtx : 4 ms
[OGL LOG] init_preconditioner : 0 ms
[OGL LOG] solve : 49 ms
nonecudaGKOIR:  Solving for p, Initial residual = 0.0496324, Final residual = 1.11556e-05, No Iterations 2
linear solve p 92003
time step continuity errors : sum local = 7.60251e-09, global = 2.04915e-20, cumulative = 4.29055e-20
ExecutionTime = 3.17 s  ClockTime = 4 s

Time = 0.005

Courant Number mean: 0.0381162 max: 0.287996
DILUPBiCGStab:  Solving for Ux, Initial residual = 0.0286374, Final residual = 1.92379e-08, No Iterations 5
DILUPBiCGStab:  Solving for Uy, Initial residual = 0.0466634, Final residual = 2.62377e-08, No Iterations 5
DILUPBiCGStab:  Solving for Uz, Initial residual = 0.0755984, Final residual = 4.75904e-08, No Iterations 5
linear solve U 28126
[OGL LOG] init_host_sparsity_pattern : 17 ms
[OGL LOG] matrix not stored update host matrix
[OGL LOG] update_host_mtx : 9 ms
[OGL LOG] matrix is not yet sorted, sorting host matrix
[OGL LOG] sort_host_mtx_sparsity_pattern : 6 ms
[OGL LOG] sort_host_mtx : 4 ms
[OGL LOG] init_preconditioner : 0 ms
[OGL LOG] solve : 49 ms
nonecudaGKOIR:  Solving for p, Initial residual = 0.038365, Final residual = 7.76678e-06, No Iterations 2
linear solve p 91895
time step continuity errors : sum local = 5.27754e-09, global = -1.20485e-21, cumulative = 4.17006e-20
[OGL LOG] init_host_sparsity_pattern : 18 ms
[OGL LOG] matrix not stored update host matrix
[OGL LOG] update_host_mtx : 9 ms
[OGL LOG] matrix is not yet sorted, sorting host matrix
[OGL LOG] sort_host_mtx_sparsity_pattern : 6 ms
[OGL LOG] sort_host_mtx : 4 ms
[OGL LOG] init_preconditioner : 0 ms
[OGL LOG] solve : 48 ms
nonecudaGKOIR:  Solving for p, Initial residual = 0.0301213, Final residual = 5.42675e-06, No Iterations 2
linear solve p 91872
time step continuity errors : sum local = 3.70971e-09, global = -1.14104e-20, cumulative = 3.02902e-20
ExecutionTime = 3.4 s  ClockTime = 4 s

Time = 0.006

Courant Number mean: 0.0413847 max: 0.29426
DILUPBiCGStab:  Solving for Ux, Initial residual = 0.0215666, Final residual = 7.68956e-09, No Iterations 5
DILUPBiCGStab:  Solving for Uy, Initial residual = 0.0355039, Final residual = 1.56859e-08, No Iterations 5
DILUPBiCGStab:  Solving for Uz, Initial residual = 0.0599349, Final residual = 4.05804e-08, No Iterations 5
linear solve U 28234
[OGL LOG] init_host_sparsity_pattern : 18 ms
[OGL LOG] matrix not stored update host matrix
[OGL LOG] update_host_mtx : 9 ms
[OGL LOG] matrix is not yet sorted, sorting host matrix
[OGL LOG] sort_host_mtx_sparsity_pattern : 6 ms
[OGL LOG] sort_host_mtx : 4 ms
[OGL LOG] init_preconditioner : 0 ms
[OGL LOG] solve : 49 ms
nonecudaGKOIR:  Solving for p, Initial residual = 0.0265851, Final residual = 6.14939e-06, No Iterations 2
linear solve p 92624
time step continuity errors : sum local = 4.20943e-09, global = -2.92123e-20, cumulative = 1.07797e-21
[OGL LOG] init_host_sparsity_pattern : 17 ms
[OGL LOG] matrix not stored update host matrix
[OGL LOG] update_host_mtx : 9 ms
[OGL LOG] matrix is not yet sorted, sorting host matrix
[OGL LOG] sort_host_mtx_sparsity_pattern : 6 ms
[OGL LOG] sort_host_mtx : 4 ms
[OGL LOG] init_preconditioner : 0 ms
[OGL LOG] solve : 49 ms
nonecudaGKOIR:  Solving for p, Initial residual = 0.0211396, Final residual = 4.12365e-06, No Iterations 2
linear solve p 92285
time step continuity errors : sum local = 2.83653e-09, global = -6.88012e-21, cumulative = -5.80215e-21
ExecutionTime = 3.63 s  ClockTime = 4 s

Time = 0.007

Courant Number mean: 0.0440604 max: 0.2985
DILUPBiCGStab:  Solving for Ux, Initial residual = 0.0171082, Final residual = 4.23155e-09, No Iterations 5
DILUPBiCGStab:  Solving for Uy, Initial residual = 0.0283541, Final residual = 1.11294e-08, No Iterations 5
DILUPBiCGStab:  Solving for Uz, Initial residual = 0.0497212, Final residual = 3.82618e-08, No Iterations 5
linear solve U 28156
[OGL LOG] init_host_sparsity_pattern : 17 ms
[OGL LOG] matrix not stored update host matrix
[OGL LOG] update_host_mtx : 9 ms
[OGL LOG] matrix is not yet sorted, sorting host matrix
[OGL LOG] sort_host_mtx_sparsity_pattern : 6 ms
[OGL LOG] sort_host_mtx : 4 ms
[OGL LOG] init_preconditioner : 0 ms
[OGL LOG] solve : 49 ms
nonecudaGKOIR:  Solving for p, Initial residual = 0.0209168, Final residual = 4.39145e-06, No Iterations 2
linear solve p 91976
time step continuity errors : sum local = 3.02615e-09, global = -1.76431e-20, cumulative = -2.34452e-20
[OGL LOG] init_host_sparsity_pattern : 18 ms
[OGL LOG] matrix not stored update host matrix
[OGL LOG] update_host_mtx : 9 ms
[OGL LOG] matrix is not yet sorted, sorting host matrix
[OGL LOG] sort_host_mtx_sparsity_pattern : 6 ms
[OGL LOG] sort_host_mtx : 4 ms
[OGL LOG] init_preconditioner : 0 ms
[OGL LOG] solve : 50 ms
nonecudaGKOIR:  Solving for p, Initial residual = 0.0168056, Final residual = 2.75686e-06, No Iterations 2
linear solve p 93750
time step continuity errors : sum local = 1.90588e-09, global = -6.6144e-21, cumulative = -3.00596e-20
ExecutionTime = 3.87 s  ClockTime = 4 s

Time = 0.008

Courant Number mean: 0.0462829 max: 0.301602
DILUPBiCGStab:  Solving for Ux, Initial residual = 0.014005, Final residual = 2.82787e-09, No Iterations 5
DILUPBiCGStab:  Solving for Uy, Initial residual = 0.0234031, Final residual = 7.84831e-09, No Iterations 5
DILUPBiCGStab:  Solving for Uz, Initial residual = 0.0422572, Final residual = 3.18307e-08, No Iterations 5
linear solve U 28088
[OGL LOG] init_host_sparsity_pattern : 18 ms
[OGL LOG] matrix not stored update host matrix
[OGL LOG] update_host_mtx : 9 ms
[OGL LOG] matrix is not yet sorted, sorting host matrix
[OGL LOG] sort_host_mtx_sparsity_pattern : 6 ms
[OGL LOG] sort_host_mtx : 4 ms
[OGL LOG] init_preconditioner : 0 ms
[OGL LOG] solve : 50 ms
nonecudaGKOIR:  Solving for p, Initial residual = 0.0168035, Final residual = 3.20745e-06, No Iterations 2
linear solve p 94067
time step continuity errors : sum local = 2.22111e-09, global = 7.98353e-21, cumulative = -2.20761e-20
[OGL LOG] init_host_sparsity_pattern : 18 ms
[OGL LOG] matrix not stored update host matrix
[OGL LOG] update_host_mtx : 9 ms
[OGL LOG] matrix is not yet sorted, sorting host matrix
[OGL LOG] sort_host_mtx_sparsity_pattern : 6 ms
[OGL LOG] sort_host_mtx : 4 ms
[OGL LOG] init_preconditioner : 0 ms
[OGL LOG] solve : 50 ms
nonecudaGKOIR:  Solving for p, Initial residual = 0.013571, Final residual = 2.18201e-06, No Iterations 2
linear solve p 93950
time step continuity errors : sum local = 1.51508e-09, global = 2.72521e-20, cumulative = 5.17606e-21
ExecutionTime = 4.09 s  ClockTime = 5 s

Time = 0.009

Courant Number mean: 0.0481616 max: 0.303992
DILUPBiCGStab:  Solving for Ux, Initial residual = 0.0117502, Final residual = 2.08664e-09, No Iterations 5
DILUPBiCGStab:  Solving for Uy, Initial residual = 0.019762, Final residual = 5.86734e-09, No Iterations 5
DILUPBiCGStab:  Solving for Uz, Initial residual = 0.0364722, Final residual = 2.405e-08, No Iterations 5
linear solve U 28091
[OGL LOG] init_host_sparsity_pattern : 18 ms
[OGL LOG] matrix not stored update host matrix
[OGL LOG] update_host_mtx : 9 ms
[OGL LOG] matrix is not yet sorted, sorting host matrix
[OGL LOG] sort_host_mtx_sparsity_pattern : 6 ms
[OGL LOG] sort_host_mtx : 4 ms
[OGL LOG] init_preconditioner : 0 ms
[OGL LOG] solve : 51 ms
nonecudaGKOIR:  Solving for p, Initial residual = 0.0140415, Final residual = 2.30143e-06, No Iterations 2
linear solve p 94423
time step continuity errors : sum local = 1.60031e-09, global = -2.15181e-20, cumulative = -1.63421e-20
[OGL LOG] init_host_sparsity_pattern : 17 ms
[OGL LOG] matrix not stored update host matrix
[OGL LOG] update_host_mtx : 9 ms
[OGL LOG] matrix is not yet sorted, sorting host matrix
[OGL LOG] sort_host_mtx_sparsity_pattern : 6 ms
[OGL LOG] sort_host_mtx : 4 ms
[OGL LOG] init_preconditioner : 0 ms
[OGL LOG] solve : 50 ms
nonecudaGKOIR:  Solving for p, Initial residual = 0.0113895, Final residual = 1.86745e-06, No Iterations 2
linear solve p 93505
time step continuity errors : sum local = 1.3013e-09, global = 4.23503e-21, cumulative = -1.21071e-20
ExecutionTime = 4.32 s  ClockTime = 5 s

Time = 0.01

Courant Number mean: 0.0498031 max: 0.305898
DILUPBiCGStab:  Solving for Ux, Initial residual = 0.0100173, Final residual = 1.62673e-09, No Iterations 5
DILUPBiCGStab:  Solving for Uy, Initial residual = 0.0169736, Final residual = 4.51933e-09, No Iterations 5
DILUPBiCGStab:  Solving for Uz, Initial residual = 0.0318568, Final residual = 1.76996e-08, No Iterations 5
linear solve U 28059
[OGL LOG] init_host_sparsity_pattern : 18 ms
[OGL LOG] matrix not stored update host matrix
[OGL LOG] update_host_mtx : 9 ms
[OGL LOG] matrix is not yet sorted, sorting host matrix
[OGL LOG] sort_host_mtx_sparsity_pattern : 6 ms
[OGL LOG] sort_host_mtx : 4 ms
[OGL LOG] init_preconditioner : 0 ms
[OGL LOG] solve : 51 ms
nonecudaGKOIR:  Solving for p, Initial residual = 0.0119144, Final residual = 1.84986e-06, No Iterations 2
linear solve p 94385
time step continuity errors : sum local = 1.29072e-09, global = -9.36331e-21, cumulative = -2.14704e-20
[OGL LOG] init_host_sparsity_pattern : 18 ms
[OGL LOG] matrix not stored update host matrix
[OGL LOG] update_host_mtx : 9 ms
[OGL LOG] matrix is not yet sorted, sorting host matrix
[OGL LOG] sort_host_mtx_sparsity_pattern : 6 ms
[OGL LOG] sort_host_mtx : 4 ms
[OGL LOG] init_preconditioner : 0 ms
[OGL LOG] solve : 50 ms
nonecudaGKOIR:  Solving for p, Initial residual = 0.00969523, Final residual = 1.47478e-06, No Iterations 2
linear solve p 93811
time step continuity errors : sum local = 1.03083e-09, global = 3.57933e-20, cumulative = 1.43229e-20
ExecutionTime = 4.55 s  ClockTime = 5 s

End

