/*---------------------------------------------------------------------------*\
  =========                 |
  \\      /  F ield         | OpenFOAM: The Open Source CFD Toolbox
   \\    /   O peration     | Website:  https://openfoam.org
    \\  /    A nd           | Version:  8
     \\/     M anipulation  |
\*---------------------------------------------------------------------------*/
Build  : 8-14d69e1ee166
Exec   : icoFoam
Date   : Jul 29 2021
Time   : 08:39:37
Host   : "guyot.icl.utk.edu"
PID    : 159190
I/O    : uncollated
Case   : /home/greole/code/OBR/lidDrivenCavity3D/Variation_mesh/15/Variation_matrix_solver/CG_DIC_Serial/base
nProcs : 1
sigFpe : Enabling floating point exception trapping (FOAM_SIGFPE).
fileModificationChecking : Monitoring run-time modified files using timeStampMaster (fileModificationSkew 10)
allowSystemOperations : Allowing user-supplied system call operations

// * * * * * * * * * * * * * * * * * * * * * * * * * * * * * * * * * * * * * //
Create time

Create mesh for time = 0

Reading transportProperties

Reading field p

Reading field U

Reading/calculating face flux field phi


Starting time loop

Time = 0.001

Courant Number mean: 0 max: 0
DILUPBiCGStab:  Solving for Ux, Initial residual = 1, Final residual = 1.1028e-13, No Iterations 5
DILUPBiCGStab:  Solving for Uy:  solution singularity
DILUPBiCGStab:  Solving for Uz:  solution singularity
linear solve U 1267
DICPCG:  Solving for p, Initial residual = 1, Final residual = 3.95162e-05, No Iterations 37
linear solve p 2180
time step continuity errors : sum local = 1.66047e-08, global = -7.4111e-21, cumulative = -7.4111e-21
DICPCG:  Solving for p, Initial residual = 0.316808, Final residual = 9.74961e-05, No Iterations 34
linear solve p 1981
time step continuity errors : sum local = 7.16468e-08, global = 8.34873e-21, cumulative = 9.37635e-22
ExecutionTime = 0.09 s  ClockTime = 0 s

Time = 0.002

Courant Number mean: 0.0055944 max: 0.0357002
DILUPBiCGStab:  Solving for Ux, Initial residual = 0.242392, Final residual = 1.13972e-14, No Iterations 5
DILUPBiCGStab:  Solving for Uy, Initial residual = 0.296209, Final residual = 1.12428e-14, No Iterations 5
DILUPBiCGStab:  Solving for Uz, Initial residual = 0.68541, Final residual = 3.42258e-14, No Iterations 5
linear solve U 2086
DICPCG:  Solving for p, Initial residual = 0.156981, Final residual = 5.85304e-05, No Iterations 33
linear solve p 1916
time step continuity errors : sum local = 4.19691e-08, global = 5.05247e-21, cumulative = 5.99011e-21
DICPCG:  Solving for p, Initial residual = 0.0605692, Final residual = 7.71584e-05, No Iterations 31
linear solve p 1798
time step continuity errors : sum local = 6.02435e-08, global = 1.7286e-20, cumulative = 2.32761e-20
ExecutionTime = 0.1 s  ClockTime = 0 s

Time = 0.003

Courant Number mean: 0.00940319 max: 0.0587295
DILUPBiCGStab:  Solving for Ux, Initial residual = 0.117973, Final residual = 5.34397e-15, No Iterations 5
DILUPBiCGStab:  Solving for Uy, Initial residual = 0.148718, Final residual = 5.34866e-15, No Iterations 5
DILUPBiCGStab:  Solving for Uz, Initial residual = 0.319205, Final residual = 1.48272e-14, No Iterations 5
linear solve U 2080
DICPCG:  Solving for p, Initial residual = 0.075874, Final residual = 9.21626e-05, No Iterations 31
linear solve p 1807
time step continuity errors : sum local = 7.4108e-08, global = -3.58377e-20, cumulative = -1.25615e-20
DICPCG:  Solving for p, Initial residual = 0.034046, Final residual = 7.49927e-05, No Iterations 30
linear solve p 1750
time step continuity errors : sum local = 6.29166e-08, global = 2.85864e-20, cumulative = 1.60248e-20
ExecutionTime = 0.11 s  ClockTime = 0 s

Time = 0.004

Courant Number mean: 0.0121906 max: 0.0737268
DILUPBiCGStab:  Solving for Ux, Initial residual = 0.0723349, Final residual = 2.98996e-15, No Iterations 5
DILUPBiCGStab:  Solving for Uy, Initial residual = 0.0916579, Final residual = 3.02114e-15, No Iterations 5
DILUPBiCGStab:  Solving for Uz, Initial residual = 0.18244, Final residual = 7.97217e-15, No Iterations 5
linear solve U 2073
DICPCG:  Solving for p, Initial residual = 0.0491732, Final residual = 5.77213e-05, No Iterations 31
linear solve p 1802
time step continuity errors : sum local = 4.93352e-08, global = -2.06178e-20, cumulative = -4.593e-21
DICPCG:  Solving for p, Initial residual = 0.0220665, Final residual = 5.03576e-05, No Iterations 30
linear solve p 1747
time step continuity errors : sum local = 4.41224e-08, global = -3.60593e-20, cumulative = -4.06523e-20
ExecutionTime = 0.11 s  ClockTime = 0 s

Time = 0.005

Courant Number mean: 0.014306 max: 0.0838051
DILUPBiCGStab:  Solving for Ux, Initial residual = 0.0485642, Final residual = 1.79907e-15, No Iterations 5
DILUPBiCGStab:  Solving for Uy, Initial residual = 0.0627374, Final residual = 1.7476e-15, No Iterations 5
DILUPBiCGStab:  Solving for Uz, Initial residual = 0.12973, Final residual = 5.48385e-15, No Iterations 5
linear solve U 2074
DICPCG:  Solving for p, Initial residual = 0.035915, Final residual = 9.26026e-05, No Iterations 30
linear solve p 1747
time step continuity errors : sum local = 8.23142e-08, global = -6.82982e-21, cumulative = -4.74822e-20
DICPCG:  Solving for p, Initial residual = 0.0152225, Final residual = 7.70323e-05, No Iterations 29
linear solve p 1699
time step continuity errors : sum local = 6.97282e-08, global = -2.1604e-20, cumulative = -6.90862e-20
ExecutionTime = 0.12 s  ClockTime = 0 s

Time = 0.006

Courant Number mean: 0.0159484 max: 0.0908034
DILUPBiCGStab:  Solving for Ux, Initial residual = 0.0353497, Final residual = 1.17445e-15, No Iterations 5
DILUPBiCGStab:  Solving for Uy, Initial residual = 0.0460968, Final residual = 1.06315e-15, No Iterations 5
DILUPBiCGStab:  Solving for Uz, Initial residual = 0.0994939, Final residual = 4.00302e-15, No Iterations 5
linear solve U 2085
DICPCG:  Solving for p, Initial residual = 0.0288173, Final residual = 7.1608e-05, No Iterations 30
linear solve p 1750
time step continuity errors : sum local = 6.57246e-08, global = -2.62008e-20, cumulative = -9.5287e-20
DICPCG:  Solving for p, Initial residual = 0.0110024, Final residual = 7.89137e-05, No Iterations 13
linear solve p 815
time step continuity errors : sum local = 1.07727e-07, global = -3.39595e-20, cumulative = -1.29246e-19
ExecutionTime = 0.13 s  ClockTime = 0 s

Time = 0.007

Courant Number mean: 0.0172718 max: 0.0958252
DILUPBiCGStab:  Solving for Ux, Initial residual = 0.0271551, Final residual = 8.71149e-16, No Iterations 5
DILUPBiCGStab:  Solving for Uy, Initial residual = 0.0356392, Final residual = 7.40475e-16, No Iterations 5
DILUPBiCGStab:  Solving for Uz, Initial residual = 0.0795324, Final residual = 3.21876e-15, No Iterations 5
linear solve U 2081
DICPCG:  Solving for p, Initial residual = 0.0218249, Final residual = 6.90984e-05, No Iterations 14
linear solve p 870
time step continuity errors : sum local = 7.09723e-08, global = -4.3568e-20, cumulative = -1.72815e-19
DICPCG:  Solving for p, Initial residual = 0.00864731, Final residual = 8.57262e-05, No Iterations 12
linear solve p 762
time step continuity errors : sum local = 1.02466e-07, global = -1.5585e-20, cumulative = -1.88399e-19
ExecutionTime = 0.13 s  ClockTime = 0 s

Time = 0.008

Courant Number mean: 0.0183554 max: 0.0995502
DILUPBiCGStab:  Solving for Ux, Initial residual = 0.0216569, Final residual = 6.38843e-16, No Iterations 5
DILUPBiCGStab:  Solving for Uy, Initial residual = 0.0286127, Final residual = 5.79058e-16, No Iterations 5
DILUPBiCGStab:  Solving for Uz, Initial residual = 0.0649716, Final residual = 2.41589e-15, No Iterations 5
linear solve U 2162
DICPCG:  Solving for p, Initial residual = 0.0162981, Final residual = 9.25315e-05, No Iterations 13
linear solve p 819
time step continuity errors : sum local = 1.0477e-07, global = 1.86104e-21, cumulative = -1.86538e-19
DICPCG:  Solving for p, Initial residual = 0.0066417, Final residual = 6.24384e-05, No Iterations 12
linear solve p 761
time step continuity errors : sum local = 6.16591e-08, global = 3.15783e-20, cumulative = -1.5496e-19
ExecutionTime = 0.14 s  ClockTime = 0 s

Time = 0.009

Courant Number mean: 0.0192553 max: 0.102395
DILUPBiCGStab:  Solving for Ux, Initial residual = 0.0176819, Final residual = 4.36969e-16, No Iterations 5
DILUPBiCGStab:  Solving for Uy, Initial residual = 0.0236222, Final residual = 4.83048e-16, No Iterations 5
DILUPBiCGStab:  Solving for Uz, Initial residual = 0.0544958, Final residual = 1.89478e-15, No Iterations 5
linear solve U 2081
DICPCG:  Solving for p, Initial residual = 0.0132582, Final residual = 9.489e-05, No Iterations 13
linear solve p 815
time step continuity errors : sum local = 1.26636e-07, global = 2.86788e-20, cumulative = -1.26281e-19
DICPCG:  Solving for p, Initial residual = 0.00539471, Final residual = 9.6096e-05, No Iterations 11
linear solve p 705
time step continuity errors : sum local = 1.15956e-07, global = 1.44496e-20, cumulative = -1.11832e-19
ExecutionTime = 0.14 s  ClockTime = 0 s

Time = 0.01

Courant Number mean: 0.0200144 max: 0.104627
DILUPBiCGStab:  Solving for Ux, Initial residual = 0.0147301, Final residual = 2.84337e-16, No Iterations 5
DILUPBiCGStab:  Solving for Uy, Initial residual = 0.0199291, Final residual = 4.01599e-16, No Iterations 5
DILUPBiCGStab:  Solving for Uz, Initial residual = 0.0463414, Final residual = 1.55131e-15, No Iterations 5
linear solve U 2077
DICPCG:  Solving for p, Initial residual = 0.0111573, Final residual = 7.02564e-05, No Iterations 28
linear solve p 1675
time step continuity errors : sum local = 6.93936e-08, global = -7.41009e-20, cumulative = -1.85933e-19
DICPCG:  Solving for p, Initial residual = 0.00450561, Final residual = 8.51195e-05, No Iterations 11
linear solve p 703
time step continuity errors : sum local = 1.01576e-07, global = -1.85557e-21, cumulative = -1.87788e-19
ExecutionTime = 0.15 s  ClockTime = 0 s

End

