/*---------------------------------------------------------------------------*\
  =========                 |
  \\      /  F ield         | OpenFOAM: The Open Source CFD Toolbox
   \\    /   O peration     | Website:  https://openfoam.org
    \\  /    A nd           | Version:  8
     \\/     M anipulation  |
\*---------------------------------------------------------------------------*/
Build  : 8-ef60d22ea792
Exec   : icoFoam
Date   : Jul 29 2021
Time   : 07:36:12
Host   : "nla-gpu2.ianm.kit.edu"
PID    : 1957703
I/O    : uncollated
Case   : /home/greole/code/OBR/lidDrivenCavity3D/Variation_mesh/65/Variation_matrix_solver/BiCGStab_DIC_Serial/base
nProcs : 1
sigFpe : Enabling floating point exception trapping (FOAM_SIGFPE).
fileModificationChecking : Monitoring run-time modified files using timeStampMaster (fileModificationSkew 10)
allowSystemOperations : Allowing user-supplied system call operations

// * * * * * * * * * * * * * * * * * * * * * * * * * * * * * * * * * * * * * //
Create time

Create mesh for time = 0

Reading transportProperties

Reading field p

Reading field U

Reading/calculating face flux field phi


Starting time loop

Time = 0.001

Courant Number mean: 0 max: 0
DILUPBiCGStab:  Solving for Ux, Initial residual = 1, Final residual = 0.0009093, No Iterations 5
DILUPBiCGStab:  Solving for Uy:  solution singularity
DILUPBiCGStab:  Solving for Uz:  solution singularity
linear solve U 112976
DICPBiCGStab:  Solving for p, Initial residual = 1, Final residual = 8.43046e-05, No Iterations 123
linear solve p 1418846
time step continuity errors : sum local = 8.75272e-08, global = 7.42343e-21, cumulative = 7.42343e-21
DICPBiCGStab:  Solving for p, Initial residual = 0.710354, Final residual = 3.48432e-05, No Iterations 114
linear solve p 1317099
time step continuity errors : sum local = 4.61332e-08, global = 9.47188e-21, cumulative = 1.68953e-20
ExecutionTime = 4.21 s  ClockTime = 4 s

Time = 0.002

Courant Number mean: 0.0364591 max: 0.470838
DILUPBiCGStab:  Solving for Ux, Initial residual = 0.154363, Final residual = 0.000271547, No Iterations 5
DILUPBiCGStab:  Solving for Uy, Initial residual = 0.350455, Final residual = 0.000506097, No Iterations 5
DILUPBiCGStab:  Solving for Uz, Initial residual = 0.982201, Final residual = 0.00176131, No Iterations 5
linear solve U 212004
DICPBiCGStab:  Solving for p, Initial residual = 0.645948, Final residual = 7.66912e-05, No Iterations 116
linear solve p 1325208
time step continuity errors : sum local = 1.07324e-07, global = -4.33644e-21, cumulative = 1.25589e-20
DICPBiCGStab:  Solving for p, Initial residual = 0.569285, Final residual = 6.4209e-05, No Iterations 119
linear solve p 1334704
time step continuity errors : sum local = 1.1027e-07, global = -1.14055e-20, cumulative = 1.1534e-21
ExecutionTime = 7.19 s  ClockTime = 7 s

Time = 0.003

Courant Number mean: 0.054711 max: 0.564538
DILUPBiCGStab:  Solving for Ux, Initial residual = 0.0508699, Final residual = 5.52098e-05, No Iterations 5
DILUPBiCGStab:  Solving for Uy, Initial residual = 0.109276, Final residual = 0.000120797, No Iterations 5
DILUPBiCGStab:  Solving for Uz, Initial residual = 0.411404, Final residual = 0.000755741, No Iterations 5
linear solve U 209837
DICPBiCGStab:  Solving for p, Initial residual = 0.548513, Final residual = 9.58072e-05, No Iterations 100
linear solve p 1140169
time step continuity errors : sum local = 8.04689e-08, global = 5.97455e-21, cumulative = 7.12795e-21
DICPBiCGStab:  Solving for p, Initial residual = 0.491983, Final residual = 8.67542e-05, No Iterations 96
linear solve p 1100955
time step continuity errors : sum local = 8.38891e-08, global = 1.52768e-20, cumulative = 2.24048e-20
ExecutionTime = 9.75 s  ClockTime = 10 s

Time = 0.004

Courant Number mean: 0.0645961 max: 0.579615
DILUPBiCGStab:  Solving for Ux, Initial residual = 0.0290439, Final residual = 3.29606e-05, No Iterations 5
DILUPBiCGStab:  Solving for Uy, Initial residual = 0.0724907, Final residual = 5.59593e-05, No Iterations 5
DILUPBiCGStab:  Solving for Uz, Initial residual = 0.239854, Final residual = 0.000376177, No Iterations 5
linear solve U 215487
DICPBiCGStab:  Solving for p, Initial residual = 0.318838, Final residual = 8.9309e-05, No Iterations 129
linear solve p 1489472
time step continuity errors : sum local = 4.81847e-08, global = -2.65813e-21, cumulative = 1.97466e-20
DICPBiCGStab:  Solving for p, Initial residual = 0.263822, Final residual = 8.44883e-05, No Iterations 118
linear solve p 1353161
time step continuity errors : sum local = 5.51114e-08, global = -1.62364e-20, cumulative = 3.51027e-21
ExecutionTime = 12.91 s  ClockTime = 13 s

Time = 0.005

Courant Number mean: 0.0722306 max: 0.58928
DILUPBiCGStab:  Solving for Ux, Initial residual = 0.0206956, Final residual = 1.47115e-05, No Iterations 5
DILUPBiCGStab:  Solving for Uy, Initial residual = 0.0446621, Final residual = 3.52914e-05, No Iterations 5
DILUPBiCGStab:  Solving for Uz, Initial residual = 0.0928112, Final residual = 0.000103069, No Iterations 5
linear solve U 214956
DICPBiCGStab:  Solving for p, Initial residual = 0.215856, Final residual = 9.98553e-05, No Iterations 111
linear solve p 1268698
time step continuity errors : sum local = 6.55306e-08, global = 4.15813e-22, cumulative = 3.92608e-21
DICPBiCGStab:  Solving for p, Initial residual = 0.181537, Final residual = 9.94756e-05, No Iterations 50
linear solve p 572421
time step continuity errors : sum local = 9.02586e-08, global = -9.26333e-21, cumulative = -5.33725e-21
ExecutionTime = 15.09 s  ClockTime = 15 s

Time = 0.006

Courant Number mean: 0.0781061 max: 0.595035
DILUPBiCGStab:  Solving for Ux, Initial residual = 0.0152959, Final residual = 1.26331e-05, No Iterations 5
DILUPBiCGStab:  Solving for Uy, Initial residual = 0.0346842, Final residual = 1.59299e-05, No Iterations 5
DILUPBiCGStab:  Solving for Uz, Initial residual = 0.088065, Final residual = 0.000134965, No Iterations 5
linear solve U 215762
DICPBiCGStab:  Solving for p, Initial residual = 0.129923, Final residual = 5.96239e-05, No Iterations 115
linear solve p 1317288
time step continuity errors : sum local = 2.95097e-08, global = 1.40635e-20, cumulative = 8.72621e-21
DICPBiCGStab:  Solving for p, Initial residual = 0.106804, Final residual = 9.86164e-05, No Iterations 104
linear solve p 1193991
time step continuity errors : sum local = 4.82598e-08, global = 2.45261e-20, cumulative = 3.32523e-20
ExecutionTime = 17.93 s  ClockTime = 18 s

Time = 0.007

Courant Number mean: 0.0829438 max: 0.598981
DILUPBiCGStab:  Solving for Ux, Initial residual = 0.0122481, Final residual = 5.78177e-06, No Iterations 5
DILUPBiCGStab:  Solving for Uy, Initial residual = 0.0271164, Final residual = 1.49575e-05, No Iterations 5
DILUPBiCGStab:  Solving for Uz, Initial residual = 0.0605641, Final residual = 6.5276e-05, No Iterations 5
linear solve U 209990
DICPBiCGStab:  Solving for p, Initial residual = 0.0863772, Final residual = 2.04735e-05, No Iterations 114
linear solve p 1314643
time step continuity errors : sum local = 1.7751e-08, global = -9.7074e-21, cumulative = 2.35449e-20
DICPBiCGStab:  Solving for p, Initial residual = 0.0716435, Final residual = 9.80559e-05, No Iterations 48
linear solve p 550606
time step continuity errors : sum local = 8.43796e-08, global = -1.53156e-20, cumulative = 8.22931e-21
ExecutionTime = 20.11 s  ClockTime = 20 s

Time = 0.008

Courant Number mean: 0.0869897 max: 0.601977
DILUPBiCGStab:  Solving for Ux, Initial residual = 0.0100023, Final residual = 4.63119e-06, No Iterations 5
DILUPBiCGStab:  Solving for Uy, Initial residual = 0.0225676, Final residual = 6.68867e-06, No Iterations 5
DILUPBiCGStab:  Solving for Uz, Initial residual = 0.0522568, Final residual = 6.71986e-05, No Iterations 5
linear solve U 213725
DICPBiCGStab:  Solving for p, Initial residual = 0.0575766, Final residual = 5.53401e-05, No Iterations 101
linear solve p 1152548
time step continuity errors : sum local = 4.65413e-08, global = -8.11025e-21, cumulative = 1.19061e-22
DICPBiCGStab:  Solving for p, Initial residual = 0.0481194, Final residual = 9.07243e-05, No Iterations 91
linear solve p 1042151
time step continuity errors : sum local = 7.6574e-08, global = 3.10721e-21, cumulative = 3.22627e-21
ExecutionTime = 22.63 s  ClockTime = 23 s

Time = 0.009

Courant Number mean: 0.0904668 max: 0.604262
DILUPBiCGStab:  Solving for Ux, Initial residual = 0.00858091, Final residual = 3.17178e-06, No Iterations 5
DILUPBiCGStab:  Solving for Uy, Initial residual = 0.018871, Final residual = 7.8094e-06, No Iterations 5
DILUPBiCGStab:  Solving for Uz, Initial residual = 0.0502334, Final residual = 6.71305e-05, No Iterations 5
linear solve U 215530
DICPBiCGStab:  Solving for p, Initial residual = 0.0426867, Final residual = 7.80227e-05, No Iterations 115
linear solve p 1326311
time step continuity errors : sum local = 3.50595e-08, global = -5.95553e-21, cumulative = -2.72926e-21
DICPBiCGStab:  Solving for p, Initial residual = 0.0365093, Final residual = 6.77987e-05, No Iterations 91
linear solve p 1039319
time step continuity errors : sum local = 4.43881e-08, global = -1.44613e-20, cumulative = -1.71906e-20
ExecutionTime = 25.32 s  ClockTime = 25 s

Time = 0.01

Courant Number mean: 0.0934703 max: 0.606129
DILUPBiCGStab:  Solving for Ux, Initial residual = 0.00725507, Final residual = 2.2745e-06, No Iterations 5
DILUPBiCGStab:  Solving for Uy, Initial residual = 0.0164177, Final residual = 4.2199e-06, No Iterations 5
DILUPBiCGStab:  Solving for Uz, Initial residual = 0.0427156, Final residual = 4.78499e-05, No Iterations 5
linear solve U 215659
DICPBiCGStab:  Solving for p, Initial residual = 0.0301684, Final residual = 5.74535e-05, No Iterations 94
linear solve p 1074768
time step continuity errors : sum local = 4.88448e-08, global = -6.1488e-22, cumulative = -1.78054e-20
DICPBiCGStab:  Solving for p, Initial residual = 0.026059, Final residual = 9.36426e-05, No Iterations 46
linear solve p 522444
time step continuity errors : sum local = 7.58794e-08, global = -8.03558e-21, cumulative = -2.5841e-20
ExecutionTime = 27.25 s  ClockTime = 27 s

End

