/*---------------------------------------------------------------------------*\
  =========                 |
  \\      /  F ield         | OpenFOAM: The Open Source CFD Toolbox
   \\    /   O peration     | Website:  https://openfoam.org
    \\  /    A nd           | Version:  8
     \\/     M anipulation  |
\*---------------------------------------------------------------------------*/
Build  : 8-40a5a48f630f
Exec   : icoFoam
Date   : Jul 28 2021
Time   : 12:16:54
Host   : "uc2n423.localdomain"
PID    : 1363349
I/O    : uncollated
Case   : /pfs/data5/home/kit/scc/nq7776/code/OBR/lidDrivenCavity3D/Variation_mesh/25/Variation_matrix_solver/BiCGStab_BJ_OMP/base
nProcs : 1
sigFpe : Enabling floating point exception trapping (FOAM_SIGFPE).
fileModificationChecking : Monitoring run-time modified files using timeStampMaster (fileModificationSkew 10)
allowSystemOperations : Allowing user-supplied system call operations

// * * * * * * * * * * * * * * * * * * * * * * * * * * * * * * * * * * * * * //
Create time

Create mesh for time = 0

Reading transportProperties

Reading field p

Reading field U

Reading/calculating face flux field phi


Starting time loop

Time = 0.001

Courant Number mean: 0 max: 0
nonePBiCGStab:  Solving for Ux, Initial residual = 1, Final residual = 0.00310183, No Iterations 5
nonePBiCGStab:  Solving for Uy, Initial residual = 0, Final residual = 0, No Iterations 0
nonePBiCGStab:  Solving for Uz, Initial residual = 0, Final residual = 0, No Iterations 0
linear solve U 2
[OGL LOG] init_host_sparsity_pattern : 4 ms
[OGL LOG] matrix not stored update host matrix
[OGL LOG] update_host_mtx : 2 ms
[OGL LOG] matrix is not yet sorted, compute sorting idxs
[OGL LOG] compute_sort : 106 ms
[OGL LOG] matrix is not yet sorted, sorting host matrix
[OGL LOG] sort_host_mtx_sparsity_pattern : 3 ms
[OGL LOG] sort_host_mtx : 1 ms
[OGL LOG] init_preconditioner : 2 ms
[OGL LOG] solve : 198 ms
BJompGKOBiCGStab:  Solving for p, Initial residual = 1, Final residual = 3.01352e-05, No Iterations 136
linear solve p 323
time step continuity errors : sum local = 2.54247e-07, global = -1.95347e-20, cumulative = -1.95347e-20
[OGL LOG] init_host_sparsity_pattern : 4 ms
[OGL LOG] matrix not stored update host matrix
[OGL LOG] update_host_mtx : 2 ms
[OGL LOG] matrix is not yet sorted, sorting host matrix
[OGL LOG] sort_host_mtx_sparsity_pattern : 2 ms
[OGL LOG] sort_host_mtx : 1 ms
[OGL LOG] init_preconditioner : 0 ms
[OGL LOG] solve : 177 ms
BJompGKOBiCGStab:  Solving for p, Initial residual = 0.480957, Final residual = 6.74316e-05, No Iterations 121
linear solve p 189
time step continuity errors : sum local = 1.25895e-06, global = -4.16847e-22, cumulative = -1.99515e-20
ExecutionTime = 0.99 s  ClockTime = 0 s

Time = 0.002

Courant Number mean: 0.0119716 max: 0.106554
nonePBiCGStab:  Solving for Ux, Initial residual = 0.210864, Final residual = 0.00069558, No Iterations 5
nonePBiCGStab:  Solving for Uy, Initial residual = 0.284506, Final residual = 0.000653983, No Iterations 5
nonePBiCGStab:  Solving for Uz, Initial residual = 0.868958, Final residual = 0.00341078, No Iterations 5
linear solve U 5
[OGL LOG] init_host_sparsity_pattern : 4 ms
[OGL LOG] matrix not stored update host matrix
[OGL LOG] update_host_mtx : 2 ms
[OGL LOG] matrix is not yet sorted, sorting host matrix
[OGL LOG] sort_host_mtx_sparsity_pattern : 3 ms
[OGL LOG] sort_host_mtx : 1 ms
[OGL LOG] init_preconditioner : 0 ms
[OGL LOG] solve : 164 ms
BJompGKOBiCGStab:  Solving for p, Initial residual = 0.287149, Final residual = 6.85278e-05, No Iterations 113
linear solve p 176
time step continuity errors : sum local = 7.32093e-07, global = 3.12784e-20, cumulative = 1.13268e-20
[OGL LOG] init_host_sparsity_pattern : 4 ms
[OGL LOG] matrix not stored update host matrix
[OGL LOG] update_host_mtx : 2 ms
[OGL LOG] matrix is not yet sorted, sorting host matrix
[OGL LOG] sort_host_mtx_sparsity_pattern : 3 ms
[OGL LOG] sort_host_mtx : 1 ms
[OGL LOG] init_preconditioner : 0 ms
[OGL LOG] solve : 155 ms
BJompGKOBiCGStab:  Solving for p, Initial residual = 0.190109, Final residual = 9.62572e-05, No Iterations 109
linear solve p 168
time step continuity errors : sum local = 2.59963e-07, global = -6.34706e-21, cumulative = 4.97978e-21
ExecutionTime = 1.68 s  ClockTime = 1 s

Time = 0.003

Courant Number mean: 0.0188465 max: 0.153564
nonePBiCGStab:  Solving for Ux, Initial residual = 0.0900079, Final residual = 0.000292186, No Iterations 5
nonePBiCGStab:  Solving for Uy, Initial residual = 0.124877, Final residual = 0.000201104, No Iterations 5
nonePBiCGStab:  Solving for Uz, Initial residual = 0.275319, Final residual = 0.000956596, No Iterations 5
linear solve U 5
[OGL LOG] init_host_sparsity_pattern : 4 ms
[OGL LOG] matrix not stored update host matrix
[OGL LOG] update_host_mtx : 2 ms
[OGL LOG] matrix is not yet sorted, sorting host matrix
[OGL LOG] sort_host_mtx_sparsity_pattern : 3 ms
[OGL LOG] sort_host_mtx : 1 ms
[OGL LOG] init_preconditioner : 0 ms
[OGL LOG] solve : 152 ms
BJompGKOBiCGStab:  Solving for p, Initial residual = 0.103533, Final residual = 5.60648e-05, No Iterations 107
linear solve p 165
time step continuity errors : sum local = 8.73763e-07, global = -6.12424e-21, cumulative = -1.14446e-21
[OGL LOG] init_host_sparsity_pattern : 4 ms
[OGL LOG] matrix not stored update host matrix
[OGL LOG] update_host_mtx : 2 ms
[OGL LOG] matrix is not yet sorted, sorting host matrix
[OGL LOG] sort_host_mtx_sparsity_pattern : 2 ms
[OGL LOG] sort_host_mtx : 1 ms
[OGL LOG] init_preconditioner : 0 ms
[OGL LOG] solve : 146 ms
BJompGKOBiCGStab:  Solving for p, Initial residual = 0.0711307, Final residual = 4.4132e-05, No Iterations 100
linear solve p 159
time step continuity errors : sum local = 4.36439e-06, global = -2.57584e-20, cumulative = -2.69029e-20
ExecutionTime = 2.32 s  ClockTime = 1 s

Time = 0.004

Courant Number mean: 0.0233182 max: 0.175119
nonePBiCGStab:  Solving for Ux, Initial residual = 0.0522561, Final residual = 9.79057e-05, No Iterations 5
nonePBiCGStab:  Solving for Uy, Initial residual = 0.0742409, Final residual = 6.8998e-05, No Iterations 5
nonePBiCGStab:  Solving for Uz, Initial residual = 0.145668, Final residual = 0.000471641, No Iterations 5
linear solve U 5
[OGL LOG] init_host_sparsity_pattern : 4 ms
[OGL LOG] matrix not stored update host matrix
[OGL LOG] update_host_mtx : 2 ms
[OGL LOG] matrix is not yet sorted, sorting host matrix
[OGL LOG] sort_host_mtx_sparsity_pattern : 3 ms
[OGL LOG] sort_host_mtx : 1 ms
[OGL LOG] init_preconditioner : 0 ms
[OGL LOG] solve : 148 ms
BJompGKOBiCGStab:  Solving for p, Initial residual = 0.0616246, Final residual = 9.78348e-05, No Iterations 103
linear solve p 161
time step continuity errors : sum local = 4.3338e-07, global = 3.86025e-21, cumulative = -2.30426e-20
[OGL LOG] init_host_sparsity_pattern : 4 ms
[OGL LOG] matrix not stored update host matrix
[OGL LOG] update_host_mtx : 2 ms
[OGL LOG] matrix is not yet sorted, sorting host matrix
[OGL LOG] sort_host_mtx_sparsity_pattern : 3 ms
[OGL LOG] sort_host_mtx : 1 ms
[OGL LOG] init_preconditioner : 0 ms
[OGL LOG] solve : 131 ms
BJompGKOBiCGStab:  Solving for p, Initial residual = 0.0394671, Final residual = 9.95121e-05, No Iterations 91
linear solve p 144
time step continuity errors : sum local = 2.99633e-07, global = 2.89906e-21, cumulative = -2.01436e-20
ExecutionTime = 2.92 s  ClockTime = 1 s

Time = 0.005

Courant Number mean: 0.0264942 max: 0.186505
nonePBiCGStab:  Solving for Ux, Initial residual = 0.0351066, Final residual = 4.55005e-05, No Iterations 5
nonePBiCGStab:  Solving for Uy, Initial residual = 0.0510607, Final residual = 4.84559e-05, No Iterations 5
nonePBiCGStab:  Solving for Uz, Initial residual = 0.105061, Final residual = 0.000480937, No Iterations 5
linear solve U 5
[OGL LOG] init_host_sparsity_pattern : 4 ms
[OGL LOG] matrix not stored update host matrix
[OGL LOG] update_host_mtx : 2 ms
[OGL LOG] matrix is not yet sorted, sorting host matrix
[OGL LOG] sort_host_mtx_sparsity_pattern : 3 ms
[OGL LOG] sort_host_mtx : 1 ms
[OGL LOG] init_preconditioner : 0 ms
[OGL LOG] solve : 149 ms
BJompGKOBiCGStab:  Solving for p, Initial residual = 0.0371051, Final residual = 8.84627e-05, No Iterations 103
linear solve p 162
time step continuity errors : sum local = 3.4375e-06, global = 3.24912e-20, cumulative = 1.23477e-20
[OGL LOG] init_host_sparsity_pattern : 4 ms
[OGL LOG] matrix not stored update host matrix
[OGL LOG] update_host_mtx : 2 ms
[OGL LOG] matrix is not yet sorted, sorting host matrix
[OGL LOG] sort_host_mtx_sparsity_pattern : 3 ms
[OGL LOG] sort_host_mtx : 1 ms
[OGL LOG] init_preconditioner : 0 ms
[OGL LOG] solve : 146 ms
BJompGKOBiCGStab:  Solving for p, Initial residual = 0.0278028, Final residual = 9.1545e-05, No Iterations 101
linear solve p 158
time step continuity errors : sum local = 3.4651e-07, global = -8.94792e-21, cumulative = 3.39976e-21
ExecutionTime = 3.57 s  ClockTime = 2 s

Time = 0.006

Courant Number mean: 0.0288962 max: 0.193336
nonePBiCGStab:  Solving for Ux, Initial residual = 0.0259384, Final residual = 3.22505e-05, No Iterations 5
nonePBiCGStab:  Solving for Uy, Initial residual = 0.0381006, Final residual = 2.54921e-05, No Iterations 5
nonePBiCGStab:  Solving for Uz, Initial residual = 0.0770335, Final residual = 0.00019936, No Iterations 5
linear solve U 5
[OGL LOG] init_host_sparsity_pattern : 4 ms
[OGL LOG] matrix not stored update host matrix
[OGL LOG] update_host_mtx : 2 ms
[OGL LOG] matrix is not yet sorted, sorting host matrix
[OGL LOG] sort_host_mtx_sparsity_pattern : 3 ms
[OGL LOG] sort_host_mtx : 1 ms
[OGL LOG] init_preconditioner : 0 ms
[OGL LOG] solve : 64 ms
BJompGKOBiCGStab:  Solving for p, Initial residual = 0.0257119, Final residual = 9.8501e-05, No Iterations 45
linear solve p 76
time step continuity errors : sum local = 1.51714e-07, global = 8.37893e-21, cumulative = 1.17787e-20
[OGL LOG] init_host_sparsity_pattern : 4 ms
[OGL LOG] matrix not stored update host matrix
[OGL LOG] update_host_mtx : 2 ms
[OGL LOG] matrix is not yet sorted, sorting host matrix
[OGL LOG] sort_host_mtx_sparsity_pattern : 2 ms
[OGL LOG] sort_host_mtx : 1 ms
[OGL LOG] init_preconditioner : 0 ms
[OGL LOG] solve : 54 ms
BJompGKOBiCGStab:  Solving for p, Initial residual = 0.0168548, Final residual = 9.99588e-05, No Iterations 38
linear solve p 66
time step continuity errors : sum local = 1.56612e-07, global = 2.4408e-21, cumulative = 1.42195e-20
ExecutionTime = 3.84 s  ClockTime = 2 s

Time = 0.007

Courant Number mean: 0.0308314 max: 0.197891
nonePBiCGStab:  Solving for Ux, Initial residual = 0.0203737, Final residual = 9.45999e-06, No Iterations 5
nonePBiCGStab:  Solving for Uy, Initial residual = 0.0300216, Final residual = 1.18262e-05, No Iterations 5
nonePBiCGStab:  Solving for Uz, Initial residual = 0.0580489, Final residual = 4.84841e-05, No Iterations 5
linear solve U 5
[OGL LOG] init_host_sparsity_pattern : 4 ms
[OGL LOG] matrix not stored update host matrix
[OGL LOG] update_host_mtx : 2 ms
[OGL LOG] matrix is not yet sorted, sorting host matrix
[OGL LOG] sort_host_mtx_sparsity_pattern : 3 ms
[OGL LOG] sort_host_mtx : 1 ms
[OGL LOG] init_preconditioner : 0 ms
[OGL LOG] solve : 106 ms
BJompGKOBiCGStab:  Solving for p, Initial residual = 0.0187501, Final residual = 9.55389e-05, No Iterations 74
linear solve p 118
time step continuity errors : sum local = 1.53564e-07, global = -6.34572e-21, cumulative = 7.87378e-21
[OGL LOG] init_host_sparsity_pattern : 4 ms
[OGL LOG] matrix not stored update host matrix
[OGL LOG] update_host_mtx : 2 ms
[OGL LOG] matrix is not yet sorted, sorting host matrix
[OGL LOG] sort_host_mtx_sparsity_pattern : 3 ms
[OGL LOG] sort_host_mtx : 1 ms
[OGL LOG] init_preconditioner : 0 ms
[OGL LOG] solve : 52 ms
BJompGKOBiCGStab:  Solving for p, Initial residual = 0.012645, Final residual = 9.48522e-05, No Iterations 36
linear solve p 65
time step continuity errors : sum local = 1.48483e-07, global = -1.95151e-20, cumulative = -1.16413e-20
ExecutionTime = 4.21 s  ClockTime = 2 s

Time = 0.008

Courant Number mean: 0.0324766 max: 0.201172
nonePBiCGStab:  Solving for Ux, Initial residual = 0.0165285, Final residual = 5.37908e-06, No Iterations 5
nonePBiCGStab:  Solving for Uy, Initial residual = 0.0246293, Final residual = 6.85329e-06, No Iterations 5
nonePBiCGStab:  Solving for Uz, Initial residual = 0.0481874, Final residual = 5.7981e-05, No Iterations 5
linear solve U 5
[OGL LOG] init_host_sparsity_pattern : 4 ms
[OGL LOG] matrix not stored update host matrix
[OGL LOG] update_host_mtx : 2 ms
[OGL LOG] matrix is not yet sorted, sorting host matrix
[OGL LOG] sort_host_mtx_sparsity_pattern : 3 ms
[OGL LOG] sort_host_mtx : 1 ms
[OGL LOG] init_preconditioner : 0 ms
[OGL LOG] solve : 56 ms
BJompGKOBiCGStab:  Solving for p, Initial residual = 0.0149754, Final residual = 9.16259e-05, No Iterations 39
linear solve p 69
time step continuity errors : sum local = 1.4779e-07, global = -1.11669e-23, cumulative = -1.16524e-20
[OGL LOG] init_host_sparsity_pattern : 4 ms
[OGL LOG] matrix not stored update host matrix
[OGL LOG] update_host_mtx : 2 ms
[OGL LOG] matrix is not yet sorted, sorting host matrix
[OGL LOG] sort_host_mtx_sparsity_pattern : 2 ms
[OGL LOG] sort_host_mtx : 1 ms
[OGL LOG] init_preconditioner : 0 ms
[OGL LOG] solve : 57 ms
BJompGKOBiCGStab:  Solving for p, Initial residual = 0.0102286, Final residual = 9.21512e-05, No Iterations 39
linear solve p 69
time step continuity errors : sum local = 1.4082e-07, global = -1.38387e-21, cumulative = -1.30363e-20
ExecutionTime = 4.48 s  ClockTime = 2 s

Time = 0.009

Courant Number mean: 0.0338808 max: 0.203668
nonePBiCGStab:  Solving for Ux, Initial residual = 0.0137956, Final residual = 2.90284e-06, No Iterations 5
nonePBiCGStab:  Solving for Uy, Initial residual = 0.0206896, Final residual = 3.85636e-06, No Iterations 5
nonePBiCGStab:  Solving for Uz, Initial residual = 0.0409385, Final residual = 2.17505e-05, No Iterations 5
linear solve U 5
[OGL LOG] init_host_sparsity_pattern : 4 ms
[OGL LOG] matrix not stored update host matrix
[OGL LOG] update_host_mtx : 2 ms
[OGL LOG] matrix is not yet sorted, sorting host matrix
[OGL LOG] sort_host_mtx_sparsity_pattern : 3 ms
[OGL LOG] sort_host_mtx : 1 ms
[OGL LOG] init_preconditioner : 0 ms
[OGL LOG] solve : 55 ms
BJompGKOBiCGStab:  Solving for p, Initial residual = 0.0124971, Final residual = 8.48704e-05, No Iterations 38
linear solve p 67
time step continuity errors : sum local = 1.51501e-07, global = -4.88905e-21, cumulative = -1.79254e-20
[OGL LOG] init_host_sparsity_pattern : 4 ms
[OGL LOG] matrix not stored update host matrix
[OGL LOG] update_host_mtx : 2 ms
[OGL LOG] matrix is not yet sorted, sorting host matrix
[OGL LOG] sort_host_mtx_sparsity_pattern : 2 ms
[OGL LOG] sort_host_mtx : 1 ms
[OGL LOG] init_preconditioner : 0 ms
[OGL LOG] solve : 51 ms
BJompGKOBiCGStab:  Solving for p, Initial residual = 0.00860331, Final residual = 9.19266e-05, No Iterations 35
linear solve p 63
time step continuity errors : sum local = 1.50103e-07, global = -3.22677e-20, cumulative = -5.01931e-20
ExecutionTime = 4.74 s  ClockTime = 2 s

Time = 0.01

Courant Number mean: 0.035092 max: 0.205643
nonePBiCGStab:  Solving for Ux, Initial residual = 0.0117112, Final residual = 2.1019e-06, No Iterations 5
nonePBiCGStab:  Solving for Uy, Initial residual = 0.0177354, Final residual = 2.93925e-06, No Iterations 5
nonePBiCGStab:  Solving for Uz, Initial residual = 0.0353949, Final residual = 1.575e-05, No Iterations 5
linear solve U 5
[OGL LOG] init_host_sparsity_pattern : 4 ms
[OGL LOG] matrix not stored update host matrix
[OGL LOG] update_host_mtx : 2 ms
[OGL LOG] matrix is not yet sorted, sorting host matrix
[OGL LOG] sort_host_mtx_sparsity_pattern : 3 ms
[OGL LOG] sort_host_mtx : 1 ms
[OGL LOG] init_preconditioner : 0 ms
[OGL LOG] solve : 57 ms
BJompGKOBiCGStab:  Solving for p, Initial residual = 0.0105191, Final residual = 8.84152e-05, No Iterations 39
linear solve p 69
time step continuity errors : sum local = 1.62694e-07, global = -3.22557e-20, cumulative = -8.24488e-20
[OGL LOG] init_host_sparsity_pattern : 4 ms
[OGL LOG] matrix not stored update host matrix
[OGL LOG] update_host_mtx : 2 ms
[OGL LOG] matrix is not yet sorted, sorting host matrix
[OGL LOG] sort_host_mtx_sparsity_pattern : 2 ms
[OGL LOG] sort_host_mtx : 1 ms
[OGL LOG] init_preconditioner : 0 ms
[OGL LOG] solve : 52 ms
BJompGKOBiCGStab:  Solving for p, Initial residual = 0.00729254, Final residual = 9.40835e-05, No Iterations 36
linear solve p 65
time step continuity errors : sum local = 1.60112e-07, global = -4.01596e-21, cumulative = -8.64647e-20
ExecutionTime = 5 s  ClockTime = 2 s

End

