/*---------------------------------------------------------------------------*\
  =========                 |
  \\      /  F ield         | OpenFOAM: The Open Source CFD Toolbox
   \\    /   O peration     | Website:  https://openfoam.org
    \\  /    A nd           | Version:  8
     \\/     M anipulation  |
\*---------------------------------------------------------------------------*/
Build  : 8-ef60d22ea792
Exec   : icoFoam
Date   : Jul 29 2021
Time   : 04:21:08
Host   : "uc2n489.localdomain"
PID    : 3428970
I/O    : uncollated
Case   : /pfs/data5/home/kit/scc/nq7776/code/OBR/lidDrivenCavity3D/Variation_mesh/60/Variation_matrix_solver/CG_NoPrecond_CUDA/base
nProcs : 1
sigFpe : Enabling floating point exception trapping (FOAM_SIGFPE).
fileModificationChecking : Monitoring run-time modified files using timeStampMaster (fileModificationSkew 10)
allowSystemOperations : Allowing user-supplied system call operations

// * * * * * * * * * * * * * * * * * * * * * * * * * * * * * * * * * * * * * //
Create time

Create mesh for time = 0

Reading transportProperties

Reading field p

Reading field U

Reading/calculating face flux field phi


Starting time loop

Time = 0.001

Courant Number mean: 0 max: 0
DILUPBiCGStab:  Solving for Ux, Initial residual = 1, Final residual = 0.000527977, No Iterations 5
DILUPBiCGStab:  Solving for Uy:  solution singularity
DILUPBiCGStab:  Solving for Uz:  solution singularity
linear solve U 101198
[OGL LOG] init_host_sparsity_pattern : 56 ms
[OGL LOG] matrix not stored update host matrix
[OGL LOG] update_host_mtx : 30 ms
[OGL LOG] matrix is not yet sorted, compute sorting idxs
[OGL LOG] compute_sort : 1768 ms
[OGL LOG] matrix is not yet sorted, sorting host matrix
[OGL LOG] sort_host_mtx_sparsity_pattern : 43 ms
[OGL LOG] sort_host_mtx : 22 ms
[OGL LOG] init_preconditioner : 0 ms
[OGL LOG] solve : 153 ms
nonecudaGKOCG:  Solving for p, Initial residual = 1, Final residual = 9.57541e-05, No Iterations 469
linear solve p 2818884
time step continuity errors : sum local = 5.60914e-08, global = 5.10178e-21, cumulative = 5.10178e-21
[OGL LOG] init_host_sparsity_pattern : 58 ms
[OGL LOG] matrix not stored update host matrix
[OGL LOG] update_host_mtx : 31 ms
[OGL LOG] matrix is not yet sorted, sorting host matrix
[OGL LOG] sort_host_mtx_sparsity_pattern : 44 ms
[OGL LOG] sort_host_mtx : 22 ms
[OGL LOG] init_preconditioner : 0 ms
[OGL LOG] solve : 152 ms
nonecudaGKOCG:  Solving for p, Initial residual = 0.69554, Final residual = 9.2534e-05, No Iterations 463
linear solve p 322810
time step continuity errors : sum local = 7.40294e-08, global = -9.07629e-21, cumulative = -3.97451e-21
ExecutionTime = 4.14 s  ClockTime = 4 s

Time = 0.002

Courant Number mean: 0.0334999 max: 0.423482
DILUPBiCGStab:  Solving for Ux, Initial residual = 0.157977, Final residual = 0.000145597, No Iterations 5
DILUPBiCGStab:  Solving for Uy, Initial residual = 0.339075, Final residual = 0.000249793, No Iterations 5
DILUPBiCGStab:  Solving for Uz, Initial residual = 0.980298, Final residual = 0.000934544, No Iterations 5
linear solve U 195345
[OGL LOG] init_host_sparsity_pattern : 57 ms
[OGL LOG] matrix not stored update host matrix
[OGL LOG] update_host_mtx : 29 ms
[OGL LOG] matrix is not yet sorted, sorting host matrix
[OGL LOG] sort_host_mtx_sparsity_pattern : 42 ms
[OGL LOG] sort_host_mtx : 22 ms
[OGL LOG] init_preconditioner : 0 ms
[OGL LOG] solve : 151 ms
nonecudaGKOCG:  Solving for p, Initial residual = 0.61516, Final residual = 8.83126e-05, No Iterations 460
linear solve p 317170
time step continuity errors : sum local = 7.26865e-08, global = -8.0018e-21, cumulative = -1.19763e-20
[OGL LOG] init_host_sparsity_pattern : 57 ms
[OGL LOG] matrix not stored update host matrix
[OGL LOG] update_host_mtx : 27 ms
[OGL LOG] matrix is not yet sorted, sorting host matrix
[OGL LOG] sort_host_mtx_sparsity_pattern : 40 ms
[OGL LOG] sort_host_mtx : 22 ms
[OGL LOG] init_preconditioner : 0 ms
[OGL LOG] solve : 151 ms
nonecudaGKOCG:  Solving for p, Initial residual = 0.535192, Final residual = 9.33054e-05, No Iterations 458
linear solve p 312559
time step continuity errors : sum local = 7.88919e-08, global = 1.03056e-20, cumulative = -1.67067e-21
ExecutionTime = 5.09 s  ClockTime = 5 s

Time = 0.003

Courant Number mean: 0.050297 max: 0.512851
DILUPBiCGStab:  Solving for Ux, Initial residual = 0.0504841, Final residual = 3.33649e-05, No Iterations 5
DILUPBiCGStab:  Solving for Uy, Initial residual = 0.103206, Final residual = 6.9387e-05, No Iterations 5
DILUPBiCGStab:  Solving for Uz, Initial residual = 0.278587, Final residual = 0.000236809, No Iterations 5
linear solve U 192882
[OGL LOG] init_host_sparsity_pattern : 56 ms
[OGL LOG] matrix not stored update host matrix
[OGL LOG] update_host_mtx : 27 ms
[OGL LOG] matrix is not yet sorted, sorting host matrix
[OGL LOG] sort_host_mtx_sparsity_pattern : 40 ms
[OGL LOG] sort_host_mtx : 22 ms
[OGL LOG] init_preconditioner : 0 ms
[OGL LOG] solve : 149 ms
nonecudaGKOCG:  Solving for p, Initial residual = 0.47259, Final residual = 8.99971e-05, No Iterations 455
linear solve p 310261
time step continuity errors : sum local = 5.14994e-08, global = 2.28367e-20, cumulative = 2.1166e-20
[OGL LOG] init_host_sparsity_pattern : 57 ms
[OGL LOG] matrix not stored update host matrix
[OGL LOG] update_host_mtx : 27 ms
[OGL LOG] matrix is not yet sorted, sorting host matrix
[OGL LOG] sort_host_mtx_sparsity_pattern : 40 ms
[OGL LOG] sort_host_mtx : 22 ms
[OGL LOG] init_preconditioner : 0 ms
[OGL LOG] solve : 149 ms
nonecudaGKOCG:  Solving for p, Initial residual = 0.416466, Final residual = 9.68082e-05, No Iterations 453
linear solve p 310064
time step continuity errors : sum local = 5.39081e-08, global = -6.36412e-21, cumulative = 1.48019e-20
ExecutionTime = 6.02 s  ClockTime = 6 s

Time = 0.004

Courant Number mean: 0.0595684 max: 0.529581
DILUPBiCGStab:  Solving for Ux, Initial residual = 0.0299453, Final residual = 2.0143e-05, No Iterations 5
DILUPBiCGStab:  Solving for Uy, Initial residual = 0.0669912, Final residual = 2.38528e-05, No Iterations 5
DILUPBiCGStab:  Solving for Uz, Initial residual = 0.166263, Final residual = 0.000110262, No Iterations 5
linear solve U 193396
[OGL LOG] init_host_sparsity_pattern : 56 ms
[OGL LOG] matrix not stored update host matrix
[OGL LOG] update_host_mtx : 27 ms
[OGL LOG] matrix is not yet sorted, sorting host matrix
[OGL LOG] sort_host_mtx_sparsity_pattern : 40 ms
[OGL LOG] sort_host_mtx : 26 ms
[OGL LOG] init_preconditioner : 0 ms
[OGL LOG] solve : 145 ms
nonecudaGKOCG:  Solving for p, Initial residual = 0.251525, Final residual = 9.30563e-05, No Iterations 442
linear solve p 311232
time step continuity errors : sum local = 4.83913e-08, global = -2.51307e-20, cumulative = -1.03288e-20
[OGL LOG] init_host_sparsity_pattern : 56 ms
[OGL LOG] matrix not stored update host matrix
[OGL LOG] update_host_mtx : 27 ms
[OGL LOG] matrix is not yet sorted, sorting host matrix
[OGL LOG] sort_host_mtx_sparsity_pattern : 40 ms
[OGL LOG] sort_host_mtx : 22 ms
[OGL LOG] init_preconditioner : 0 ms
[OGL LOG] solve : 144 ms
nonecudaGKOCG:  Solving for p, Initial residual = 0.205046, Final residual = 9.79935e-05, No Iterations 439
linear solve p 305362
time step continuity errors : sum local = 5.15674e-08, global = -5.54613e-22, cumulative = -1.08834e-20
ExecutionTime = 6.96 s  ClockTime = 7 s

Time = 0.005

Courant Number mean: 0.0665842 max: 0.539163
DILUPBiCGStab:  Solving for Ux, Initial residual = 0.0211083, Final residual = 6.93214e-06, No Iterations 5
DILUPBiCGStab:  Solving for Uy, Initial residual = 0.0441306, Final residual = 1.76454e-05, No Iterations 5
DILUPBiCGStab:  Solving for Uz, Initial residual = 0.0712298, Final residual = 4.54802e-05, No Iterations 5
linear solve U 193539
[OGL LOG] init_host_sparsity_pattern : 56 ms
[OGL LOG] matrix not stored update host matrix
[OGL LOG] update_host_mtx : 27 ms
[OGL LOG] matrix is not yet sorted, sorting host matrix
[OGL LOG] sort_host_mtx_sparsity_pattern : 40 ms
[OGL LOG] sort_host_mtx : 22 ms
[OGL LOG] init_preconditioner : 0 ms
[OGL LOG] solve : 139 ms
nonecudaGKOCG:  Solving for p, Initial residual = 0.153328, Final residual = 9.57138e-05, No Iterations 421
linear solve p 300201
time step continuity errors : sum local = 4.53358e-08, global = 8.77267e-21, cumulative = -2.11077e-21
[OGL LOG] init_host_sparsity_pattern : 56 ms
[OGL LOG] matrix not stored update host matrix
[OGL LOG] update_host_mtx : 27 ms
[OGL LOG] matrix is not yet sorted, sorting host matrix
[OGL LOG] sort_host_mtx_sparsity_pattern : 44 ms
[OGL LOG] sort_host_mtx : 22 ms
[OGL LOG] init_preconditioner : 0 ms
[OGL LOG] solve : 138 ms
nonecudaGKOCG:  Solving for p, Initial residual = 0.126841, Final residual = 9.83349e-05, No Iterations 419
linear solve p 303146
time step continuity errors : sum local = 4.64007e-08, global = -9.56608e-21, cumulative = -1.16768e-20
ExecutionTime = 7.86 s  ClockTime = 8 s

Time = 0.006

Courant Number mean: 0.0720439 max: 0.544954
DILUPBiCGStab:  Solving for Ux, Initial residual = 0.0159392, Final residual = 7.33051e-06, No Iterations 5
DILUPBiCGStab:  Solving for Uy, Initial residual = 0.0337434, Final residual = 6.48269e-06, No Iterations 5
DILUPBiCGStab:  Solving for Uz, Initial residual = 0.0613821, Final residual = 2.85606e-05, No Iterations 5
linear solve U 191550
[OGL LOG] init_host_sparsity_pattern : 56 ms
[OGL LOG] matrix not stored update host matrix
[OGL LOG] update_host_mtx : 27 ms
[OGL LOG] matrix is not yet sorted, sorting host matrix
[OGL LOG] sort_host_mtx_sparsity_pattern : 40 ms
[OGL LOG] sort_host_mtx : 22 ms
[OGL LOG] init_preconditioner : 0 ms
[OGL LOG] solve : 70 ms
nonecudaGKOCG:  Solving for p, Initial residual = 0.0896527, Final residual = 9.66767e-05, No Iterations 208
linear solve p 230745
time step continuity errors : sum local = 5.45804e-08, global = 1.04553e-20, cumulative = -1.22155e-21
[OGL LOG] init_host_sparsity_pattern : 56 ms
[OGL LOG] matrix not stored update host matrix
[OGL LOG] update_host_mtx : 27 ms
[OGL LOG] matrix is not yet sorted, sorting host matrix
[OGL LOG] sort_host_mtx_sparsity_pattern : 40 ms
[OGL LOG] sort_host_mtx : 22 ms
[OGL LOG] init_preconditioner : 0 ms
[OGL LOG] solve : 65 ms
nonecudaGKOCG:  Solving for p, Initial residual = 0.073092, Final residual = 9.99673e-05, No Iterations 196
linear solve p 225781
time step continuity errors : sum local = 4.96856e-08, global = -8.78861e-21, cumulative = -1.00102e-20
ExecutionTime = 8.63 s  ClockTime = 8 s

Time = 0.007

Courant Number mean: 0.0764962 max: 0.548952
DILUPBiCGStab:  Solving for Ux, Initial residual = 0.0126893, Final residual = 2.29377e-06, No Iterations 5
DILUPBiCGStab:  Solving for Uy, Initial residual = 0.0269563, Final residual = 6.11731e-06, No Iterations 5
DILUPBiCGStab:  Solving for Uz, Initial residual = 0.0488866, Final residual = 1.81318e-05, No Iterations 5
linear solve U 197564
[OGL LOG] init_host_sparsity_pattern : 61 ms
[OGL LOG] matrix not stored update host matrix
[OGL LOG] update_host_mtx : 30 ms
[OGL LOG] matrix is not yet sorted, sorting host matrix
[OGL LOG] sort_host_mtx_sparsity_pattern : 43 ms
[OGL LOG] sort_host_mtx : 22 ms
[OGL LOG] init_preconditioner : 0 ms
[OGL LOG] solve : 65 ms
nonecudaGKOCG:  Solving for p, Initial residual = 0.0575766, Final residual = 9.83949e-05, No Iterations 194
linear solve p 237118
time step continuity errors : sum local = 4.65881e-08, global = 7.16693e-21, cumulative = -2.84324e-21
[OGL LOG] init_host_sparsity_pattern : 56 ms
[OGL LOG] matrix not stored update host matrix
[OGL LOG] update_host_mtx : 27 ms
[OGL LOG] matrix is not yet sorted, sorting host matrix
[OGL LOG] sort_host_mtx_sparsity_pattern : 41 ms
[OGL LOG] sort_host_mtx : 22 ms
[OGL LOG] init_preconditioner : 0 ms
[OGL LOG] solve : 64 ms
nonecudaGKOCG:  Solving for p, Initial residual = 0.0478864, Final residual = 9.35314e-05, No Iterations 192
linear solve p 225957
time step continuity errors : sum local = 4.38717e-08, global = -4.64439e-21, cumulative = -7.48764e-21
ExecutionTime = 9.41 s  ClockTime = 9 s

Time = 0.008

Courant Number mean: 0.0802501 max: 0.551942
DILUPBiCGStab:  Solving for Ux, Initial residual = 0.0104507, Final residual = 2.04289e-06, No Iterations 5
DILUPBiCGStab:  Solving for Uy, Initial residual = 0.0222142, Final residual = 2.09869e-06, No Iterations 5
DILUPBiCGStab:  Solving for Uz, Initial residual = 0.0411124, Final residual = 1.2063e-05, No Iterations 5
linear solve U 192410
[OGL LOG] init_host_sparsity_pattern : 56 ms
[OGL LOG] matrix not stored update host matrix
[OGL LOG] update_host_mtx : 27 ms
[OGL LOG] matrix is not yet sorted, sorting host matrix
[OGL LOG] sort_host_mtx_sparsity_pattern : 40 ms
[OGL LOG] sort_host_mtx : 22 ms
[OGL LOG] init_preconditioner : 0 ms
[OGL LOG] solve : 66 ms
nonecudaGKOCG:  Solving for p, Initial residual = 0.0380608, Final residual = 9.93232e-05, No Iterations 198
linear solve p 226345
time step continuity errors : sum local = 5.3635e-08, global = 9.80299e-21, cumulative = 2.31535e-21
[OGL LOG] init_host_sparsity_pattern : 56 ms
[OGL LOG] matrix not stored update host matrix
[OGL LOG] update_host_mtx : 27 ms
[OGL LOG] matrix is not yet sorted, sorting host matrix
[OGL LOG] sort_host_mtx_sparsity_pattern : 40 ms
[OGL LOG] sort_host_mtx : 22 ms
[OGL LOG] init_preconditioner : 0 ms
[OGL LOG] solve : 63 ms
nonecudaGKOCG:  Solving for p, Initial residual = 0.0320615, Final residual = 9.93959e-05, No Iterations 187
linear solve p 223881
time step continuity errors : sum local = 4.86825e-08, global = 2.82742e-21, cumulative = 5.14277e-21
ExecutionTime = 10.17 s  ClockTime = 10 s

Time = 0.009

Courant Number mean: 0.083451 max: 0.554252
DILUPBiCGStab:  Solving for Ux, Initial residual = 0.00878111, Final residual = 8.66238e-07, No Iterations 5
DILUPBiCGStab:  Solving for Uy, Initial residual = 0.0188294, Final residual = 3.0873e-06, No Iterations 5
DILUPBiCGStab:  Solving for Uz, Initial residual = 0.035529, Final residual = 9.42603e-06, No Iterations 5
linear solve U 192674
[OGL LOG] init_host_sparsity_pattern : 56 ms
[OGL LOG] matrix not stored update host matrix
[OGL LOG] update_host_mtx : 27 ms
[OGL LOG] matrix is not yet sorted, sorting host matrix
[OGL LOG] sort_host_mtx_sparsity_pattern : 40 ms
[OGL LOG] sort_host_mtx : 22 ms
[OGL LOG] init_preconditioner : 0 ms
[OGL LOG] solve : 63 ms
nonecudaGKOCG:  Solving for p, Initial residual = 0.027389, Final residual = 9.09986e-05, No Iterations 187
linear solve p 223527
time step continuity errors : sum local = 4.22058e-08, global = -1.9836e-20, cumulative = -1.46932e-20
[OGL LOG] init_host_sparsity_pattern : 56 ms
[OGL LOG] matrix not stored update host matrix
[OGL LOG] update_host_mtx : 27 ms
[OGL LOG] matrix is not yet sorted, sorting host matrix
[OGL LOG] sort_host_mtx_sparsity_pattern : 40 ms
[OGL LOG] sort_host_mtx : 22 ms
[OGL LOG] init_preconditioner : 0 ms
[OGL LOG] solve : 62 ms
nonecudaGKOCG:  Solving for p, Initial residual = 0.0237299, Final residual = 9.64834e-05, No Iterations 184
linear solve p 221807
time step continuity errors : sum local = 4.53001e-08, global = 2.11025e-20, cumulative = 6.4093e-21
ExecutionTime = 10.93 s  ClockTime = 11 s

Time = 0.01

Courant Number mean: 0.0862267 max: 0.556108
DILUPBiCGStab:  Solving for Ux, Initial residual = 0.00752365, Final residual = 7.56662e-07, No Iterations 5
DILUPBiCGStab:  Solving for Uy, Initial residual = 0.0161602, Final residual = 1.18357e-06, No Iterations 5
DILUPBiCGStab:  Solving for Uz, Initial residual = 0.0308728, Final residual = 6.67556e-06, No Iterations 5
linear solve U 193050
[OGL LOG] init_host_sparsity_pattern : 56 ms
[OGL LOG] matrix not stored update host matrix
[OGL LOG] update_host_mtx : 27 ms
[OGL LOG] matrix is not yet sorted, sorting host matrix
[OGL LOG] sort_host_mtx_sparsity_pattern : 40 ms
[OGL LOG] sort_host_mtx : 22 ms
[OGL LOG] init_preconditioner : 0 ms
[OGL LOG] solve : 63 ms
nonecudaGKOCG:  Solving for p, Initial residual = 0.0201124, Final residual = 9.69136e-05, No Iterations 187
linear solve p 223139
time step continuity errors : sum local = 5.20253e-08, global = -1.10419e-20, cumulative = -4.63262e-21
[OGL LOG] init_host_sparsity_pattern : 56 ms
[OGL LOG] matrix not stored update host matrix
[OGL LOG] update_host_mtx : 27 ms
[OGL LOG] matrix is not yet sorted, sorting host matrix
[OGL LOG] sort_host_mtx_sparsity_pattern : 40 ms
[OGL LOG] sort_host_mtx : 22 ms
[OGL LOG] init_preconditioner : 0 ms
[OGL LOG] solve : 63 ms
nonecudaGKOCG:  Solving for p, Initial residual = 0.0177895, Final residual = 9.90128e-05, No Iterations 181
linear solve p 224737
time step continuity errors : sum local = 4.87129e-08, global = -5.80099e-22, cumulative = -5.21272e-21
ExecutionTime = 11.69 s  ClockTime = 11 s

End

