/*---------------------------------------------------------------------------*\
  =========                 |
  \\      /  F ield         | OpenFOAM: The Open Source CFD Toolbox
   \\    /   O peration     | Website:  https://openfoam.org
    \\  /    A nd           | Version:  8
     \\/     M anipulation  |
\*---------------------------------------------------------------------------*/
Build  : 8-40a5a48f630f
Exec   : icoFoam
Date   : Jul 28 2021
Time   : 12:19:05
Host   : "uc2n449.localdomain"
PID    : 1417735
I/O    : uncollated
Case   : /pfs/data5/home/kit/scc/nq7776/code/OBR/lidDrivenCavity3D/Variation_mesh/90/Variation_matrix_solver/CG_NoPrecond_Serial/base
nProcs : 1
sigFpe : Enabling floating point exception trapping (FOAM_SIGFPE).
fileModificationChecking : Monitoring run-time modified files using timeStampMaster (fileModificationSkew 10)
allowSystemOperations : Allowing user-supplied system call operations

// * * * * * * * * * * * * * * * * * * * * * * * * * * * * * * * * * * * * * //
Create time

Create mesh for time = 0

Reading transportProperties

Reading field p

Reading field U

Reading/calculating face flux field phi


Starting time loop

Time = 0.001

Courant Number mean: 0 max: 0
nonePBiCGStab:  Solving for Ux, Initial residual = 1, Final residual = 0.0756268, No Iterations 5
nonePBiCGStab:  Solving for Uy, Initial residual = 0, Final residual = 0, No Iterations 0
nonePBiCGStab:  Solving for Uz, Initial residual = 0, Final residual = 0, No Iterations 0
linear solve U 184
nonePCG:  Solving for p, Initial residual = 1, Final residual = 9.8599e-05, No Iterations 713
linear solve p 6581
time step continuity errors : sum local = 4.00105e-08, global = -9.09809e-21, cumulative = -9.09809e-21
nonePCG:  Solving for p, Initial residual = 0.70133, Final residual = 9.4454e-05, No Iterations 703
linear solve p 6461
time step continuity errors : sum local = 5.33303e-08, global = 6.08922e-21, cumulative = -3.00887e-21
ExecutionTime = 16.24 s  ClockTime = 16 s

Time = 0.002

Courant Number mean: 0.0400999 max: 0.699775
nonePBiCGStab:  Solving for Ux, Initial residual = 0.140592, Final residual = 0.035411, No Iterations 5
nonePBiCGStab:  Solving for Uy, Initial residual = 0.428237, Final residual = 0.104275, No Iterations 5
nonePBiCGStab:  Solving for Uz, Initial residual = 0.986093, Final residual = 0.278905, No Iterations 5
linear solve U 383
nonePCG:  Solving for p, Initial residual = 0.76436, Final residual = 9.28422e-05, No Iterations 696
linear solve p 6413
time step continuity errors : sum local = 8.40272e-08, global = 7.67728e-21, cumulative = 4.66841e-21
nonePCG:  Solving for p, Initial residual = 0.687252, Final residual = 9.36541e-05, No Iterations 694
linear solve p 6347
time step continuity errors : sum local = 8.63782e-08, global = 1.12711e-20, cumulative = 1.59395e-20
ExecutionTime = 29.75 s  ClockTime = 30 s

Time = 0.003

Courant Number mean: 0.0633456 max: 0.801261
nonePBiCGStab:  Solving for Ux, Initial residual = 0.0595875, Final residual = 0.012395, No Iterations 5
nonePBiCGStab:  Solving for Uy, Initial residual = 0.182409, Final residual = 0.0478835, No Iterations 5
nonePBiCGStab:  Solving for Uz, Initial residual = 0.662358, Final residual = 0.173354, No Iterations 5
linear solve U 404
nonePCG:  Solving for p, Initial residual = 0.756359, Final residual = 9.7428e-05, No Iterations 692
linear solve p 6322
time step continuity errors : sum local = 6.67838e-08, global = 1.57275e-20, cumulative = 3.1667e-20
nonePCG:  Solving for p, Initial residual = 0.685819, Final residual = 9.43595e-05, No Iterations 691
linear solve p 6370
time step continuity errors : sum local = 6.29942e-08, global = -6.69323e-21, cumulative = 2.49738e-20
ExecutionTime = 43.23 s  ClockTime = 43 s

Time = 0.004

Courant Number mean: 0.0762496 max: 0.816886
nonePBiCGStab:  Solving for Ux, Initial residual = 0.0365828, Final residual = 0.00791763, No Iterations 5
nonePBiCGStab:  Solving for Uy, Initial residual = 0.127753, Final residual = 0.035533, No Iterations 5
nonePBiCGStab:  Solving for Uz, Initial residual = 0.422654, Final residual = 0.0988682, No Iterations 5
linear solve U 390
nonePCG:  Solving for p, Initial residual = 0.651376, Final residual = 9.91152e-05, No Iterations 332
linear solve p 3074
time step continuity errors : sum local = 6.79279e-08, global = -5.66134e-21, cumulative = 1.93124e-20
nonePCG:  Solving for p, Initial residual = 0.559814, Final residual = 9.46814e-05, No Iterations 331
linear solve p 3048
time step continuity errors : sum local = 6.62422e-08, global = -2.70164e-21, cumulative = 1.66108e-20
ExecutionTime = 50.13 s  ClockTime = 50 s

Time = 0.005

Courant Number mean: 0.0866634 max: 0.829152
nonePBiCGStab:  Solving for Ux, Initial residual = 0.0275159, Final residual = 0.00602834, No Iterations 5
nonePBiCGStab:  Solving for Uy, Initial residual = 0.0822634, Final residual = 0.0255441, No Iterations 5
nonePBiCGStab:  Solving for Uz, Initial residual = 0.238996, Final residual = 0.0600131, No Iterations 5
linear solve U 403
nonePCG:  Solving for p, Initial residual = 0.682038, Final residual = 9.85833e-05, No Iterations 681
linear solve p 6286
time step continuity errors : sum local = 5.9482e-08, global = 5.98369e-21, cumulative = 2.25945e-20
nonePCG:  Solving for p, Initial residual = 0.601771, Final residual = 9.88573e-05, No Iterations 676
linear solve p 6205
time step continuity errors : sum local = 5.88866e-08, global = -7.28974e-21, cumulative = 1.53047e-20
ExecutionTime = 63.39 s  ClockTime = 64 s

Time = 0.006

Courant Number mean: 0.0947362 max: 0.835985
nonePBiCGStab:  Solving for Ux, Initial residual = 0.0211433, Final residual = 0.00473485, No Iterations 5
nonePBiCGStab:  Solving for Uy, Initial residual = 0.0655173, Final residual = 0.0190449, No Iterations 5
nonePBiCGStab:  Solving for Uz, Initial residual = 0.185869, Final residual = 0.0500655, No Iterations 5
linear solve U 411
nonePCG:  Solving for p, Initial residual = 0.601061, Final residual = 9.97718e-05, No Iterations 323
linear solve p 2984
time step continuity errors : sum local = 6.47221e-08, global = 5.40248e-21, cumulative = 2.07072e-20
nonePCG:  Solving for p, Initial residual = 0.514743, Final residual = 9.83426e-05, No Iterations 314
linear solve p 2874
time step continuity errors : sum local = 6.35015e-08, global = -6.51545e-22, cumulative = 2.00557e-20
ExecutionTime = 70.05 s  ClockTime = 70 s

Time = 0.007

Courant Number mean: 0.101594 max: 0.841235
nonePBiCGStab:  Solving for Ux, Initial residual = 0.0176977, Final residual = 0.00376751, No Iterations 5
nonePBiCGStab:  Solving for Uy, Initial residual = 0.0504058, Final residual = 0.0154479, No Iterations 5
nonePBiCGStab:  Solving for Uz, Initial residual = 0.137441, Final residual = 0.03738, No Iterations 5
linear solve U 404
nonePCG:  Solving for p, Initial residual = 0.634757, Final residual = 9.8654e-05, No Iterations 312
linear solve p 2897
time step continuity errors : sum local = 6.15562e-08, global = 8.10116e-21, cumulative = 2.81568e-20
nonePCG:  Solving for p, Initial residual = 0.549966, Final residual = 9.79145e-05, No Iterations 310
linear solve p 2856
time step continuity errors : sum local = 5.76633e-08, global = -1.26078e-20, cumulative = 1.55491e-20
ExecutionTime = 76.63 s  ClockTime = 77 s

Time = 0.008

Courant Number mean: 0.107405 max: 0.845019
nonePBiCGStab:  Solving for Ux, Initial residual = 0.0147155, Final residual = 0.00327456, No Iterations 5
nonePBiCGStab:  Solving for Uy, Initial residual = 0.0431544, Final residual = 0.0108789, No Iterations 5
nonePBiCGStab:  Solving for Uz, Initial residual = 0.118319, Final residual = 0.0343645, No Iterations 5
linear solve U 404
nonePCG:  Solving for p, Initial residual = 0.57144, Final residual = 9.94104e-05, No Iterations 313
linear solve p 2891
time step continuity errors : sum local = 6.5024e-08, global = 2.18174e-20, cumulative = 3.73664e-20
nonePCG:  Solving for p, Initial residual = 0.487674, Final residual = 9.97174e-05, No Iterations 311
linear solve p 2872
time step continuity errors : sum local = 6.24658e-08, global = 1.18909e-20, cumulative = 4.92573e-20
ExecutionTime = 83.2 s  ClockTime = 83 s

Time = 0.009

Courant Number mean: 0.112567 max: 0.848125
nonePBiCGStab:  Solving for Ux, Initial residual = 0.0130906, Final residual = 0.00252276, No Iterations 5
nonePBiCGStab:  Solving for Uy, Initial residual = 0.035707, Final residual = 0.00957563, No Iterations 5
nonePBiCGStab:  Solving for Uz, Initial residual = 0.0978886, Final residual = 0.0281035, No Iterations 5
linear solve U 406
nonePCG:  Solving for p, Initial residual = 0.60287, Final residual = 9.99418e-05, No Iterations 651
linear solve p 5989
time step continuity errors : sum local = 5.73056e-08, global = -5.2518e-21, cumulative = 4.40055e-20
nonePCG:  Solving for p, Initial residual = 0.518648, Final residual = 9.99108e-05, No Iterations 330
linear solve p 3046
time step continuity errors : sum local = 6.8293e-08, global = -1.26532e-21, cumulative = 4.27402e-20
ExecutionTime = 93.01 s  ClockTime = 93 s

Time = 0.01

Courant Number mean: 0.117168 max: 0.850575
nonePBiCGStab:  Solving for Ux, Initial residual = 0.0112443, Final residual = 0.00208245, No Iterations 5
nonePBiCGStab:  Solving for Uy, Initial residual = 0.0319795, Final residual = 0.0070433, No Iterations 5
nonePBiCGStab:  Solving for Uz, Initial residual = 0.0916429, Final residual = 0.0275138, No Iterations 5
linear solve U 403
nonePCG:  Solving for p, Initial residual = 0.546405, Final residual = 9.8776e-05, No Iterations 648
linear solve p 5974
time step continuity errors : sum local = 5.91376e-08, global = 5.60788e-21, cumulative = 4.8348e-20
nonePCG:  Solving for p, Initial residual = 0.467081, Final residual = 9.09665e-05, No Iterations 648
linear solve p 5978
time step continuity errors : sum local = 5.45625e-08, global = -1.60985e-20, cumulative = 3.22495e-20
ExecutionTime = 105.74 s  ClockTime = 106 s

End

