/*---------------------------------------------------------------------------*\
  =========                 |
  \\      /  F ield         | OpenFOAM: The Open Source CFD Toolbox
   \\    /   O peration     | Website:  https://openfoam.org
    \\  /    A nd           | Version:  8
     \\/     M anipulation  |
\*---------------------------------------------------------------------------*/
Build  : 8-40a5a48f630f
Exec   : icoFoam
Date   : Jul 28 2021
Time   : 13:36:25
Host   : "uc2n374.localdomain"
PID    : 2740427
I/O    : uncollated
Case   : /pfs/data5/home/kit/scc/nq7776/code/OBR/lidDrivenCavity3D/Variation_mesh/95/Variation_matrix_solver/BiCGStab_NoPrecond_OMP/base
nProcs : 1
sigFpe : Enabling floating point exception trapping (FOAM_SIGFPE).
fileModificationChecking : Monitoring run-time modified files using timeStampMaster (fileModificationSkew 10)
allowSystemOperations : Allowing user-supplied system call operations

// * * * * * * * * * * * * * * * * * * * * * * * * * * * * * * * * * * * * * //
Create time

Create mesh for time = 0

Reading transportProperties

Reading field p

Reading field U

Reading/calculating face flux field phi


Starting time loop

Time = 0.001

Courant Number mean: 0 max: 0
nonePBiCGStab:  Solving for Ux, Initial residual = 1, Final residual = 0.078913, No Iterations 5
nonePBiCGStab:  Solving for Uy, Initial residual = 0, Final residual = 0, No Iterations 0
nonePBiCGStab:  Solving for Uz, Initial residual = 0, Final residual = 0, No Iterations 0
linear solve U 222
[OGL LOG] init_host_sparsity_pattern : 244 ms
[OGL LOG] matrix not stored update host matrix
[OGL LOG] update_host_mtx : 126 ms
[OGL LOG] matrix is not yet sorted, compute sorting idxs
[OGL LOG] compute_sort : 7707 ms
[OGL LOG] matrix is not yet sorted, sorting host matrix
[OGL LOG] sort_host_mtx_sparsity_pattern : 179 ms
[OGL LOG] sort_host_mtx : 107 ms
[OGL LOG] init_preconditioner : 0 ms
[OGL LOG] solve : 32986 ms
noneompGKOBiCGStab:  Solving for p, Initial residual = 1, Final residual = 9.49718e-05, No Iterations 605
linear solve p 41580
time step continuity errors : sum local = 1.9399e-07, global = 6.39111e-21, cumulative = 6.39111e-21
[OGL LOG] init_host_sparsity_pattern : 236 ms
[OGL LOG] matrix not stored update host matrix
[OGL LOG] update_host_mtx : 126 ms
[OGL LOG] matrix is not yet sorted, sorting host matrix
[OGL LOG] sort_host_mtx_sparsity_pattern : 186 ms
[OGL LOG] sort_host_mtx : 105 ms
[OGL LOG] init_preconditioner : 0 ms
[OGL LOG] solve : 16482 ms
noneompGKOBiCGStab:  Solving for p, Initial residual = 0.704987, Final residual = 9.28284e-05, No Iterations 597
linear solve p 17286
time step continuity errors : sum local = 1.77814e-06, global = -8.31334e-21, cumulative = -1.92223e-21
ExecutionTime = 1528.54 s  ClockTime = 63 s

Time = 0.002

Courant Number mean: 0.0412078 max: 0.745796
nonePBiCGStab:  Solving for Ux, Initial residual = 0.139489, Final residual = 0.0379663, No Iterations 5
nonePBiCGStab:  Solving for Uy, Initial residual = 0.439986, Final residual = 0.118522, No Iterations 5
nonePBiCGStab:  Solving for Uz, Initial residual = 0.972889, Final residual = 0.310381, No Iterations 5
linear solve U 446
[OGL LOG] init_host_sparsity_pattern : 231 ms
[OGL LOG] matrix not stored update host matrix
[OGL LOG] update_host_mtx : 126 ms
[OGL LOG] matrix is not yet sorted, sorting host matrix
[OGL LOG] sort_host_mtx_sparsity_pattern : 184 ms
[OGL LOG] sort_host_mtx : 106 ms
[OGL LOG] init_preconditioner : 0 ms
[OGL LOG] solve : 35869 ms
noneompGKOBiCGStab:  Solving for p, Initial residual = 0.776589, Final residual = 8.15552e-05, No Iterations 548
linear solve p 36662
time step continuity errors : sum local = 2.14146e-05, global = 3.34391e-21, cumulative = 1.42168e-21
[OGL LOG] init_host_sparsity_pattern : 231 ms
[OGL LOG] matrix not stored update host matrix
[OGL LOG] update_host_mtx : 126 ms
[OGL LOG] matrix is not yet sorted, sorting host matrix
[OGL LOG] sort_host_mtx_sparsity_pattern : 182 ms
[OGL LOG] sort_host_mtx : 106 ms
[OGL LOG] init_preconditioner : 0 ms
[OGL LOG] solve : 5430 ms
noneompGKOBiCGStab:  Solving for p, Initial residual = 0.703026, Final residual = 9.59757e-05, No Iterations 244
linear solve p 6224
time step continuity errors : sum local = 1.39038e-06, global = 1.95219e-20, cumulative = 2.09436e-20
ExecutionTime = 2776.05 s  ClockTime = 106 s

Time = 0.003

Courant Number mean: 0.0654384 max: 0.849864
nonePBiCGStab:  Solving for Ux, Initial residual = 0.0613305, Final residual = 0.0165606, No Iterations 5
nonePBiCGStab:  Solving for Uy, Initial residual = 0.198802, Final residual = 0.0621458, No Iterations 5
nonePBiCGStab:  Solving for Uz, Initial residual = 0.70502, Final residual = 0.258096, No Iterations 5
linear solve U 448
[OGL LOG] init_host_sparsity_pattern : 229 ms
[OGL LOG] matrix not stored update host matrix
[OGL LOG] update_host_mtx : 126 ms
[OGL LOG] matrix is not yet sorted, sorting host matrix
[OGL LOG] sort_host_mtx_sparsity_pattern : 183 ms
[OGL LOG] sort_host_mtx : 106 ms
[OGL LOG] init_preconditioner : 0 ms
[OGL LOG] solve : 10047 ms
noneompGKOBiCGStab:  Solving for p, Initial residual = 0.785083, Final residual = 7.1751e-05, No Iterations 570
linear solve p 10829
time step continuity errors : sum local = 7.12898e-07, global = 9.65559e-21, cumulative = 3.05991e-20
[OGL LOG] init_host_sparsity_pattern : 226 ms
[OGL LOG] matrix not stored update host matrix
[OGL LOG] update_host_mtx : 126 ms
[OGL LOG] matrix is not yet sorted, sorting host matrix
[OGL LOG] sort_host_mtx_sparsity_pattern : 177 ms
[OGL LOG] sort_host_mtx : 105 ms
[OGL LOG] init_preconditioner : 0 ms
[OGL LOG] solve : 25516 ms
noneompGKOBiCGStab:  Solving for p, Initial residual = 0.709356, Final residual = 9.91987e-05, No Iterations 500
linear solve p 26285
time step continuity errors : sum local = 3.27405e-07, global = 1.51663e-20, cumulative = 4.57654e-20
ExecutionTime = 3869.69 s  ClockTime = 145 s

Time = 0.004

Courant Number mean: 0.0784506 max: 0.864437
nonePBiCGStab:  Solving for Ux, Initial residual = 0.0388292, Final residual = 0.00988374, No Iterations 5
nonePBiCGStab:  Solving for Uy, Initial residual = 0.141054, Final residual = 0.0424112, No Iterations 5
nonePBiCGStab:  Solving for Uz, Initial residual = 0.508098, Final residual = 0.15016, No Iterations 5
linear solve U 449
[OGL LOG] init_host_sparsity_pattern : 230 ms
[OGL LOG] matrix not stored update host matrix
[OGL LOG] update_host_mtx : 128 ms
[OGL LOG] matrix is not yet sorted, sorting host matrix
[OGL LOG] sort_host_mtx_sparsity_pattern : 183 ms
[OGL LOG] sort_host_mtx : 106 ms
[OGL LOG] init_preconditioner : 0 ms
[OGL LOG] solve : 40963 ms
noneompGKOBiCGStab:  Solving for p, Initial residual = 0.697643, Final residual = 7.31573e-05, No Iterations 526
linear solve p 41765
time step continuity errors : sum local = 2.96911e-06, global = 2.34322e-21, cumulative = 4.81087e-20
[OGL LOG] init_host_sparsity_pattern : 252 ms
[OGL LOG] matrix not stored update host matrix
[OGL LOG] update_host_mtx : 138 ms
[OGL LOG] matrix is not yet sorted, sorting host matrix
[OGL LOG] sort_host_mtx_sparsity_pattern : 200 ms
[OGL LOG] sort_host_mtx : 113 ms
[OGL LOG] init_preconditioner : 0 ms
[OGL LOG] solve : 33873 ms
noneompGKOBiCGStab:  Solving for p, Initial residual = 0.598129, Final residual = 9.72005e-05, No Iterations 633
linear solve p 34745
time step continuity errors : sum local = 1.03516e-07, global = -6.71706e-21, cumulative = 4.13916e-20
ExecutionTime = 6113.66 s  ClockTime = 222 s

Time = 0.005

Courant Number mean: 0.0890253 max: 0.877119
nonePBiCGStab:  Solving for Ux, Initial residual = 0.0298466, Final residual = 0.00888348, No Iterations 5
nonePBiCGStab:  Solving for Uy, Initial residual = 0.0911222, Final residual = 0.0343245, No Iterations 5
nonePBiCGStab:  Solving for Uz, Initial residual = 0.332227, Final residual = 0.097366, No Iterations 5
linear solve U 458
[OGL LOG] init_host_sparsity_pattern : 231 ms
[OGL LOG] matrix not stored update host matrix
[OGL LOG] update_host_mtx : 126 ms
[OGL LOG] matrix is not yet sorted, sorting host matrix
[OGL LOG] sort_host_mtx_sparsity_pattern : 183 ms
[OGL LOG] sort_host_mtx : 106 ms
[OGL LOG] init_preconditioner : 0 ms
[OGL LOG] solve : 11048 ms
noneompGKOBiCGStab:  Solving for p, Initial residual = 0.738583, Final residual = 9.18178e-05, No Iterations 240
linear solve p 11845
time step continuity errors : sum local = 1.28618e-07, global = 8.37651e-21, cumulative = 4.97681e-20
[OGL LOG] init_host_sparsity_pattern : 236 ms
[OGL LOG] matrix not stored update host matrix
[OGL LOG] update_host_mtx : 126 ms
[OGL LOG] matrix is not yet sorted, sorting host matrix
[OGL LOG] sort_host_mtx_sparsity_pattern : 186 ms
[OGL LOG] sort_host_mtx : 106 ms
[OGL LOG] init_preconditioner : 0 ms
[OGL LOG] solve : 36141 ms
noneompGKOBiCGStab:  Solving for p, Initial residual = 0.64974, Final residual = 9.30503e-05, No Iterations 240
linear solve p 36945
time step continuity errors : sum local = 1.0077e-07, global = -1.26156e-20, cumulative = 3.71525e-20
ExecutionTime = 7502.28 s  ClockTime = 272 s

Time = 0.006

Courant Number mean: 0.0969879 max: 0.883647
nonePBiCGStab:  Solving for Ux, Initial residual = 0.0229819, Final residual = 0.00615473, No Iterations 5
nonePBiCGStab:  Solving for Uy, Initial residual = 0.0740031, Final residual = 0.0243277, No Iterations 5
nonePBiCGStab:  Solving for Uz, Initial residual = 0.229747, Final residual = 0.0691738, No Iterations 5
linear solve U 455
[OGL LOG] init_host_sparsity_pattern : 231 ms
[OGL LOG] matrix not stored update host matrix
[OGL LOG] update_host_mtx : 126 ms
[OGL LOG] matrix is not yet sorted, sorting host matrix
[OGL LOG] sort_host_mtx_sparsity_pattern : 183 ms
[OGL LOG] sort_host_mtx : 106 ms
[OGL LOG] init_preconditioner : 0 ms
[OGL LOG] solve : 31581 ms
noneompGKOBiCGStab:  Solving for p, Initial residual = 0.664423, Final residual = 9.19278e-05, No Iterations 237
linear solve p 32384
time step continuity errors : sum local = 1.03716e-07, global = -3.50677e-21, cumulative = 3.36458e-20
[OGL LOG] init_host_sparsity_pattern : 241 ms
[OGL LOG] matrix not stored update host matrix
[OGL LOG] update_host_mtx : 127 ms
[OGL LOG] matrix is not yet sorted, sorting host matrix
[OGL LOG] sort_host_mtx_sparsity_pattern : 203 ms
[OGL LOG] sort_host_mtx : 105 ms
[OGL LOG] init_preconditioner : 0 ms
[OGL LOG] solve : 8513 ms
noneompGKOBiCGStab:  Solving for p, Initial residual = 0.565502, Final residual = 8.32312e-05, No Iterations 231
linear solve p 9354
time step continuity errors : sum local = 6.29426e-08, global = -1.05681e-20, cumulative = 2.30777e-20
ExecutionTime = 8682.1 s  ClockTime = 315 s

Time = 0.007

Courant Number mean: 0.104005 max: 0.889042
nonePBiCGStab:  Solving for Ux, Initial residual = 0.0194821, Final residual = 0.00517071, No Iterations 5
nonePBiCGStab:  Solving for Uy, Initial residual = 0.0576205, Final residual = 0.0184078, No Iterations 5
nonePBiCGStab:  Solving for Uz, Initial residual = 0.194576, Final residual = 0.060015, No Iterations 5
linear solve U 452
[OGL LOG] init_host_sparsity_pattern : 232 ms
[OGL LOG] matrix not stored update host matrix
[OGL LOG] update_host_mtx : 127 ms
[OGL LOG] matrix is not yet sorted, sorting host matrix
[OGL LOG] sort_host_mtx_sparsity_pattern : 182 ms
[OGL LOG] sort_host_mtx : 104 ms
[OGL LOG] init_preconditioner : 0 ms
[OGL LOG] solve : 24642 ms
noneompGKOBiCGStab:  Solving for p, Initial residual = 0.699259, Final residual = 8.39815e-05, No Iterations 446
linear solve p 25443
time step continuity errors : sum local = 7.93548e-06, global = -2.38054e-22, cumulative = 2.28397e-20
[OGL LOG] init_host_sparsity_pattern : 236 ms
[OGL LOG] matrix not stored update host matrix
[OGL LOG] update_host_mtx : 126 ms
[OGL LOG] matrix is not yet sorted, sorting host matrix
[OGL LOG] sort_host_mtx_sparsity_pattern : 186 ms
[OGL LOG] sort_host_mtx : 105 ms
[OGL LOG] init_preconditioner : 0 ms
[OGL LOG] solve : 37156 ms
noneompGKOBiCGStab:  Solving for p, Initial residual = 0.606111, Final residual = 6.81655e-05, No Iterations 227
linear solve p 37970
time step continuity errors : sum local = 1.0892e-07, global = -2.69371e-21, cumulative = 2.01459e-20
ExecutionTime = 10501 s  ClockTime = 380 s

Time = 0.008

Courant Number mean: 0.110096 max: 0.893086
nonePBiCGStab:  Solving for Ux, Initial residual = 0.0171177, Final residual = 0.00529291, No Iterations 5
nonePBiCGStab:  Solving for Uy, Initial residual = 0.0488235, Final residual = 0.016739, No Iterations 5
nonePBiCGStab:  Solving for Uz, Initial residual = 0.217775, Final residual = 0.0826741, No Iterations 5
linear solve U 454
[OGL LOG] init_host_sparsity_pattern : 231 ms
[OGL LOG] matrix not stored update host matrix
[OGL LOG] update_host_mtx : 127 ms
[OGL LOG] matrix is not yet sorted, sorting host matrix
[OGL LOG] sort_host_mtx_sparsity_pattern : 199 ms
[OGL LOG] sort_host_mtx : 114 ms
[OGL LOG] init_preconditioner : 0 ms
[OGL LOG] solve : 86566 ms
noneompGKOBiCGStab:  Solving for p, Initial residual = 0.648237, Final residual = 9.96068e-05, No Iterations 553
linear solve p 87405
time step continuity errors : sum local = 7.96662e-08, global = -5.92793e-21, cumulative = 1.4218e-20
[OGL LOG] init_host_sparsity_pattern : 235 ms
[OGL LOG] matrix not stored update host matrix
[OGL LOG] update_host_mtx : 125 ms
[OGL LOG] matrix is not yet sorted, sorting host matrix
[OGL LOG] sort_host_mtx_sparsity_pattern : 184 ms
[OGL LOG] sort_host_mtx : 105 ms
[OGL LOG] init_preconditioner : 0 ms
[OGL LOG] solve : 38701 ms
noneompGKOBiCGStab:  Solving for p, Initial residual = 0.549816, Final residual = 4.88813e-05, No Iterations 570
linear solve p 39516
time step continuity errors : sum local = 3.293e-07, global = -3.48821e-22, cumulative = 1.38692e-20
ExecutionTime = 14265.9 s  ClockTime = 508 s

Time = 0.009

Courant Number mean: 0.115061 max: 0.896065
nonePBiCGStab:  Solving for Ux, Initial residual = 0.0152878, Final residual = 0.00356714, No Iterations 5
nonePBiCGStab:  Solving for Uy, Initial residual = 0.0429056, Final residual = 0.0128533, No Iterations 5
nonePBiCGStab:  Solving for Uz, Initial residual = 0.185492, Final residual = 0.062468, No Iterations 5
linear solve U 457
[OGL LOG] init_host_sparsity_pattern : 232 ms
[OGL LOG] matrix not stored update host matrix
[OGL LOG] update_host_mtx : 126 ms
[OGL LOG] matrix is not yet sorted, sorting host matrix
[OGL LOG] sort_host_mtx_sparsity_pattern : 183 ms
[OGL LOG] sort_host_mtx : 105 ms
[OGL LOG] init_preconditioner : 0 ms
[OGL LOG] solve : 30243 ms
noneompGKOBiCGStab:  Solving for p, Initial residual = 0.676417, Final residual = 9.68623e-05, No Iterations 451
linear solve p 31044
time step continuity errors : sum local = 4.33345e-07, global = -2.81012e-21, cumulative = 1.10591e-20
[OGL LOG] init_host_sparsity_pattern : 236 ms
[OGL LOG] matrix not stored update host matrix
[OGL LOG] update_host_mtx : 126 ms
[OGL LOG] matrix is not yet sorted, sorting host matrix
[OGL LOG] sort_host_mtx_sparsity_pattern : 183 ms
[OGL LOG] sort_host_mtx : 105 ms
[OGL LOG] init_preconditioner : 0 ms
[OGL LOG] solve : 22454 ms
noneompGKOBiCGStab:  Solving for p, Initial residual = 0.578281, Final residual = 9.95335e-05, No Iterations 221
linear solve p 23257
time step continuity errors : sum local = 1.20036e-07, global = 1.97842e-20, cumulative = 3.08433e-20
ExecutionTime = 15830 s  ClockTime = 563 s

Time = 0.01

Courant Number mean: 0.11996 max: 0.898812
nonePBiCGStab:  Solving for Ux, Initial residual = 0.0135603, Final residual = 0.00375327, No Iterations 5
nonePBiCGStab:  Solving for Uy, Initial residual = 0.0374275, Final residual = 0.0116402, No Iterations 5
nonePBiCGStab:  Solving for Uz, Initial residual = 0.186875, Final residual = 0.0689703, No Iterations 5
linear solve U 457
[OGL LOG] init_host_sparsity_pattern : 230 ms
[OGL LOG] matrix not stored update host matrix
[OGL LOG] update_host_mtx : 126 ms
[OGL LOG] matrix is not yet sorted, sorting host matrix
[OGL LOG] sort_host_mtx_sparsity_pattern : 183 ms
[OGL LOG] sort_host_mtx : 106 ms
[OGL LOG] init_preconditioner : 0 ms
[OGL LOG] solve : 31433 ms
noneompGKOBiCGStab:  Solving for p, Initial residual = 0.631599, Final residual = 9.50665e-05, No Iterations 472
linear solve p 32226
time step continuity errors : sum local = 1.16669e-05, global = 1.62469e-20, cumulative = 4.70902e-20
[OGL LOG] init_host_sparsity_pattern : 236 ms
[OGL LOG] matrix not stored update host matrix
[OGL LOG] update_host_mtx : 126 ms
[OGL LOG] matrix is not yet sorted, sorting host matrix
[OGL LOG] sort_host_mtx_sparsity_pattern : 183 ms
[OGL LOG] sort_host_mtx : 105 ms
[OGL LOG] init_preconditioner : 0 ms
[OGL LOG] solve : 72656 ms
noneompGKOBiCGStab:  Solving for p, Initial residual = 0.541421, Final residual = 7.93089e-05, No Iterations 493
linear solve p 73594
time step continuity errors : sum local = 9.97626e-08, global = -6.22673e-21, cumulative = 4.08634e-20
ExecutionTime = 18898.6 s  ClockTime = 670 s

End

