/*---------------------------------------------------------------------------*\
  =========                 |
  \\      /  F ield         | OpenFOAM: The Open Source CFD Toolbox
   \\    /   O peration     | Website:  https://openfoam.org
    \\  /    A nd           | Version:  8
     \\/     M anipulation  |
\*---------------------------------------------------------------------------*/
Build  : 8-40a5a48f630f
Exec   : icoFoam
Date   : Jul 28 2021
Time   : 12:54:27
Host   : "uc2n374.localdomain"
PID    : 2733973
I/O    : uncollated
Case   : /pfs/data5/home/kit/scc/nq7776/code/OBR/lidDrivenCavity3D/Variation_mesh/65/Variation_matrix_solver/BiCGStab_BJ_OMP/base
nProcs : 1
sigFpe : Enabling floating point exception trapping (FOAM_SIGFPE).
fileModificationChecking : Monitoring run-time modified files using timeStampMaster (fileModificationSkew 10)
allowSystemOperations : Allowing user-supplied system call operations

// * * * * * * * * * * * * * * * * * * * * * * * * * * * * * * * * * * * * * //
Create time

Create mesh for time = 0

Reading transportProperties

Reading field p

Reading field U

Reading/calculating face flux field phi


Starting time loop

Time = 0.001

Courant Number mean: 0 max: 0
nonePBiCGStab:  Solving for Ux, Initial residual = 1, Final residual = 0.053017, No Iterations 5
nonePBiCGStab:  Solving for Uy, Initial residual = 0, Final residual = 0, No Iterations 0
nonePBiCGStab:  Solving for Uz, Initial residual = 0, Final residual = 0, No Iterations 0
linear solve U 69
[OGL LOG] init_host_sparsity_pattern : 78 ms
[OGL LOG] matrix not stored update host matrix
[OGL LOG] update_host_mtx : 40 ms
[OGL LOG] matrix is not yet sorted, compute sorting idxs
[OGL LOG] compute_sort : 2371 ms
[OGL LOG] matrix is not yet sorted, sorting host matrix
[OGL LOG] sort_host_mtx_sparsity_pattern : 56 ms
[OGL LOG] sort_host_mtx : 33 ms
[OGL LOG] init_preconditioner : 7 ms
[OGL LOG] solve : 2586 ms
BJompGKOBiCGStab:  Solving for p, Initial residual = 1, Final residual = 2.89219e-05, No Iterations 324
linear solve p 5246
time step continuity errors : sum local = 9.01922e-07, global = -5.93657e-21, cumulative = -5.93657e-21
[OGL LOG] init_host_sparsity_pattern : 75 ms
[OGL LOG] matrix not stored update host matrix
[OGL LOG] update_host_mtx : 41 ms
[OGL LOG] matrix is not yet sorted, sorting host matrix
[OGL LOG] sort_host_mtx_sparsity_pattern : 56 ms
[OGL LOG] sort_host_mtx : 27 ms
[OGL LOG] init_preconditioner : 0 ms
[OGL LOG] solve : 2442 ms
BJompGKOBiCGStab:  Solving for p, Initial residual = 0.674775, Final residual = 3.88681e-05, No Iterations 312
linear solve p 2682
time step continuity errors : sum local = 5.89576e-06, global = -5.25951e-21, cumulative = -1.11961e-20
ExecutionTime = 165.52 s  ClockTime = 9 s

Time = 0.002

Courant Number mean: 0.0326877 max: 0.468251
nonePBiCGStab:  Solving for Ux, Initial residual = 0.152108, Final residual = 0.0212966, No Iterations 5
nonePBiCGStab:  Solving for Uy, Initial residual = 0.364718, Final residual = 0.048501, No Iterations 5
nonePBiCGStab:  Solving for Uz, Initial residual = 0.947622, Final residual = 0.167254, No Iterations 5
linear solve U 136
[OGL LOG] init_host_sparsity_pattern : 73 ms
[OGL LOG] matrix not stored update host matrix
[OGL LOG] update_host_mtx : 39 ms
[OGL LOG] matrix is not yet sorted, sorting host matrix
[OGL LOG] sort_host_mtx_sparsity_pattern : 58 ms
[OGL LOG] sort_host_mtx : 27 ms
[OGL LOG] init_preconditioner : 0 ms
[OGL LOG] solve : 3358 ms
BJompGKOBiCGStab:  Solving for p, Initial residual = 0.656112, Final residual = 8.1005e-05, No Iterations 299
linear solve p 3608
time step continuity errors : sum local = 8.96985e-07, global = -1.55315e-21, cumulative = -1.27492e-20
[OGL LOG] init_host_sparsity_pattern : 78 ms
[OGL LOG] matrix not stored update host matrix
[OGL LOG] update_host_mtx : 46 ms
[OGL LOG] matrix is not yet sorted, sorting host matrix
[OGL LOG] sort_host_mtx_sparsity_pattern : 62 ms
[OGL LOG] sort_host_mtx : 27 ms
[OGL LOG] init_preconditioner : 0 ms
[OGL LOG] solve : 2557 ms
BJompGKOBiCGStab:  Solving for p, Initial residual = 0.572397, Final residual = 8.3808e-05, No Iterations 291
linear solve p 2825
time step continuity errors : sum local = 1.49864e-06, global = 6.77753e-21, cumulative = -5.97169e-21
ExecutionTime = 353.93 s  ClockTime = 16 s

Time = 0.003

Courant Number mean: 0.0501725 max: 0.55648
nonePBiCGStab:  Solving for Ux, Initial residual = 0.0551389, Final residual = 0.00603192, No Iterations 5
nonePBiCGStab:  Solving for Uy, Initial residual = 0.127208, Final residual = 0.017852, No Iterations 5
nonePBiCGStab:  Solving for Uz, Initial residual = 0.428969, Final residual = 0.0909746, No Iterations 5
linear solve U 137
[OGL LOG] init_host_sparsity_pattern : 74 ms
[OGL LOG] matrix not stored update host matrix
[OGL LOG] update_host_mtx : 40 ms
[OGL LOG] matrix is not yet sorted, sorting host matrix
[OGL LOG] sort_host_mtx_sparsity_pattern : 56 ms
[OGL LOG] sort_host_mtx : 27 ms
[OGL LOG] init_preconditioner : 0 ms
[OGL LOG] solve : 2006 ms
BJompGKOBiCGStab:  Solving for p, Initial residual = 0.561542, Final residual = 8.32073e-05, No Iterations 243
linear solve p 2242
time step continuity errors : sum local = 7.3113e-07, global = -6.18857e-22, cumulative = -6.59055e-21
[OGL LOG] init_host_sparsity_pattern : 73 ms
[OGL LOG] matrix not stored update host matrix
[OGL LOG] update_host_mtx : 37 ms
[OGL LOG] matrix is not yet sorted, sorting host matrix
[OGL LOG] sort_host_mtx_sparsity_pattern : 58 ms
[OGL LOG] sort_host_mtx : 27 ms
[OGL LOG] init_preconditioner : 0 ms
[OGL LOG] solve : 2430 ms
BJompGKOBiCGStab:  Solving for p, Initial residual = 0.495004, Final residual = 2.55905e-05, No Iterations 309
linear solve p 2670
time step continuity errors : sum local = 3.68057e-07, global = 1.26833e-21, cumulative = -5.32223e-21
ExecutionTime = 496.51 s  ClockTime = 21 s

Time = 0.004

Courant Number mean: 0.0601952 max: 0.574956
nonePBiCGStab:  Solving for Ux, Initial residual = 0.0335172, Final residual = 0.00325618, No Iterations 5
nonePBiCGStab:  Solving for Uy, Initial residual = 0.0810886, Final residual = 0.00797253, No Iterations 5
nonePBiCGStab:  Solving for Uz, Initial residual = 0.253227, Final residual = 0.0399058, No Iterations 5
linear solve U 138
[OGL LOG] init_host_sparsity_pattern : 74 ms
[OGL LOG] matrix not stored update host matrix
[OGL LOG] update_host_mtx : 40 ms
[OGL LOG] matrix is not yet sorted, sorting host matrix
[OGL LOG] sort_host_mtx_sparsity_pattern : 59 ms
[OGL LOG] sort_host_mtx : 27 ms
[OGL LOG] init_preconditioner : 0 ms
[OGL LOG] solve : 2550 ms
BJompGKOBiCGStab:  Solving for p, Initial residual = 0.361268, Final residual = 6.95771e-05, No Iterations 311
linear solve p 2791
time step continuity errors : sum local = 3.86486e-08, global = 4.4745e-21, cumulative = -8.47729e-22
[OGL LOG] init_host_sparsity_pattern : 72 ms
[OGL LOG] matrix not stored update host matrix
[OGL LOG] update_host_mtx : 35 ms
[OGL LOG] matrix is not yet sorted, sorting host matrix
[OGL LOG] sort_host_mtx_sparsity_pattern : 56 ms
[OGL LOG] sort_host_mtx : 27 ms
[OGL LOG] init_preconditioner : 0 ms
[OGL LOG] solve : 2359 ms
BJompGKOBiCGStab:  Solving for p, Initial residual = 0.298463, Final residual = 8.06614e-05, No Iterations 288
linear solve p 2585
time step continuity errors : sum local = 5.01722e-08, global = -1.14272e-20, cumulative = -1.22749e-20
ExecutionTime = 654.48 s  ClockTime = 27 s

Time = 0.005

Courant Number mean: 0.0681726 max: 0.58557
nonePBiCGStab:  Solving for Ux, Initial residual = 0.0236843, Final residual = 0.00185424, No Iterations 5
nonePBiCGStab:  Solving for Uy, Initial residual = 0.0537104, Final residual = 0.00402261, No Iterations 5
nonePBiCGStab:  Solving for Uz, Initial residual = 0.125113, Final residual = 0.0177435, No Iterations 5
linear solve U 136
[OGL LOG] init_host_sparsity_pattern : 74 ms
[OGL LOG] matrix not stored update host matrix
[OGL LOG] update_host_mtx : 40 ms
[OGL LOG] matrix is not yet sorted, sorting host matrix
[OGL LOG] sort_host_mtx_sparsity_pattern : 56 ms
[OGL LOG] sort_host_mtx : 27 ms
[OGL LOG] init_preconditioner : 0 ms
[OGL LOG] solve : 2407 ms
BJompGKOBiCGStab:  Solving for p, Initial residual = 0.279624, Final residual = 9.94692e-05, No Iterations 293
linear solve p 2640
time step continuity errors : sum local = 6.988e-08, global = 9.63589e-21, cumulative = -2.63903e-21
[OGL LOG] init_host_sparsity_pattern : 72 ms
[OGL LOG] matrix not stored update host matrix
[OGL LOG] update_host_mtx : 35 ms
[OGL LOG] matrix is not yet sorted, sorting host matrix
[OGL LOG] sort_host_mtx_sparsity_pattern : 56 ms
[OGL LOG] sort_host_mtx : 27 ms
[OGL LOG] init_preconditioner : 0 ms
[OGL LOG] solve : 2354 ms
BJompGKOBiCGStab:  Solving for p, Initial residual = 0.236926, Final residual = 6.45831e-05, No Iterations 287
linear solve p 2580
time step continuity errors : sum local = 3.19175e-08, global = 7.03089e-21, cumulative = 4.39186e-21
ExecutionTime = 807.69 s  ClockTime = 32 s

Time = 0.006

Courant Number mean: 0.0744586 max: 0.592142
nonePBiCGStab:  Solving for Ux, Initial residual = 0.0177641, Final residual = 0.00114002, No Iterations 5
nonePBiCGStab:  Solving for Uy, Initial residual = 0.0398932, Final residual = 0.00173914, No Iterations 5
nonePBiCGStab:  Solving for Uz, Initial residual = 0.0951116, Final residual = 0.00963285, No Iterations 5
linear solve U 137
[OGL LOG] init_host_sparsity_pattern : 74 ms
[OGL LOG] matrix not stored update host matrix
[OGL LOG] update_host_mtx : 40 ms
[OGL LOG] matrix is not yet sorted, sorting host matrix
[OGL LOG] sort_host_mtx_sparsity_pattern : 56 ms
[OGL LOG] sort_host_mtx : 27 ms
[OGL LOG] init_preconditioner : 0 ms
[OGL LOG] solve : 974 ms
BJompGKOBiCGStab:  Solving for p, Initial residual = 0.18204, Final residual = 9.38549e-05, No Iterations 118
linear solve p 1207
time step continuity errors : sum local = 1.137e-07, global = 3.48657e-21, cumulative = 7.87843e-21
[OGL LOG] init_host_sparsity_pattern : 72 ms
[OGL LOG] matrix not stored update host matrix
[OGL LOG] update_host_mtx : 35 ms
[OGL LOG] matrix is not yet sorted, sorting host matrix
[OGL LOG] sort_host_mtx_sparsity_pattern : 56 ms
[OGL LOG] sort_host_mtx : 27 ms
[OGL LOG] init_preconditioner : 0 ms
[OGL LOG] solve : 961 ms
BJompGKOBiCGStab:  Solving for p, Initial residual = 0.150857, Final residual = 9.86283e-05, No Iterations 117
linear solve p 1188
time step continuity errors : sum local = 6.14003e-08, global = 7.98818e-21, cumulative = 1.58666e-20
ExecutionTime = 870.79 s  ClockTime = 35 s

Time = 0.007

Courant Number mean: 0.0796862 max: 0.596658
nonePBiCGStab:  Solving for Ux, Initial residual = 0.0139953, Final residual = 0.000763977, No Iterations 5
nonePBiCGStab:  Solving for Uy, Initial residual = 0.0315074, Final residual = 0.0013872, No Iterations 5
nonePBiCGStab:  Solving for Uz, Initial residual = 0.0700268, Final residual = 0.00658659, No Iterations 5
linear solve U 136
[OGL LOG] init_host_sparsity_pattern : 74 ms
[OGL LOG] matrix not stored update host matrix
[OGL LOG] update_host_mtx : 40 ms
[OGL LOG] matrix is not yet sorted, sorting host matrix
[OGL LOG] sort_host_mtx_sparsity_pattern : 56 ms
[OGL LOG] sort_host_mtx : 27 ms
[OGL LOG] init_preconditioner : 0 ms
[OGL LOG] solve : 883 ms
BJompGKOBiCGStab:  Solving for p, Initial residual = 0.131615, Final residual = 9.24592e-05, No Iterations 111
linear solve p 1119
time step continuity errors : sum local = 6.41829e-08, global = 5.99504e-21, cumulative = 2.18617e-20
[OGL LOG] init_host_sparsity_pattern : 78 ms
[OGL LOG] matrix not stored update host matrix
[OGL LOG] update_host_mtx : 39 ms
[OGL LOG] matrix is not yet sorted, sorting host matrix
[OGL LOG] sort_host_mtx_sparsity_pattern : 56 ms
[OGL LOG] sort_host_mtx : 27 ms
[OGL LOG] init_preconditioner : 0 ms
[OGL LOG] solve : 915 ms
BJompGKOBiCGStab:  Solving for p, Initial residual = 0.110234, Final residual = 9.9322e-05, No Iterations 111
linear solve p 1156
time step continuity errors : sum local = 5.07088e-08, global = -6.78828e-21, cumulative = 1.50734e-20
ExecutionTime = 929.5 s  ClockTime = 37 s

Time = 0.008

Courant Number mean: 0.0840658 max: 0.60004
nonePBiCGStab:  Solving for Ux, Initial residual = 0.0113878, Final residual = 0.000553773, No Iterations 5
nonePBiCGStab:  Solving for Uy, Initial residual = 0.0254937, Final residual = 0.000858386, No Iterations 5
nonePBiCGStab:  Solving for Uz, Initial residual = 0.0594529, Final residual = 0.00537457, No Iterations 5
linear solve U 137
[OGL LOG] init_host_sparsity_pattern : 74 ms
[OGL LOG] matrix not stored update host matrix
[OGL LOG] update_host_mtx : 40 ms
[OGL LOG] matrix is not yet sorted, sorting host matrix
[OGL LOG] sort_host_mtx_sparsity_pattern : 56 ms
[OGL LOG] sort_host_mtx : 27 ms
[OGL LOG] init_preconditioner : 0 ms
[OGL LOG] solve : 2530 ms
BJompGKOBiCGStab:  Solving for p, Initial residual = 0.0910504, Final residual = 9.06936e-05, No Iterations 308
linear solve p 2764
time step continuity errors : sum local = 4.71376e-08, global = 1.44342e-20, cumulative = 2.95076e-20
[OGL LOG] init_host_sparsity_pattern : 72 ms
[OGL LOG] matrix not stored update host matrix
[OGL LOG] update_host_mtx : 35 ms
[OGL LOG] matrix is not yet sorted, sorting host matrix
[OGL LOG] sort_host_mtx_sparsity_pattern : 56 ms
[OGL LOG] sort_host_mtx : 27 ms
[OGL LOG] init_preconditioner : 0 ms
[OGL LOG] solve : 962 ms
BJompGKOBiCGStab:  Solving for p, Initial residual = 0.0763157, Final residual = 9.20194e-05, No Iterations 117
linear solve p 1188
time step continuity errors : sum local = 7.78866e-08, global = -1.07591e-21, cumulative = 2.84317e-20
ExecutionTime = 1042.22 s  ClockTime = 42 s

Time = 0.009

Courant Number mean: 0.0878248 max: 0.60262
nonePBiCGStab:  Solving for Ux, Initial residual = 0.00954516, Final residual = 0.000457467, No Iterations 5
nonePBiCGStab:  Solving for Uy, Initial residual = 0.0216055, Final residual = 0.000793141, No Iterations 5
nonePBiCGStab:  Solving for Uz, Initial residual = 0.055634, Final residual = 0.00649861, No Iterations 5
linear solve U 136
[OGL LOG] init_host_sparsity_pattern : 74 ms
[OGL LOG] matrix not stored update host matrix
[OGL LOG] update_host_mtx : 42 ms
[OGL LOG] matrix is not yet sorted, sorting host matrix
[OGL LOG] sort_host_mtx_sparsity_pattern : 56 ms
[OGL LOG] sort_host_mtx : 27 ms
[OGL LOG] init_preconditioner : 0 ms
[OGL LOG] solve : 2215 ms
BJompGKOBiCGStab:  Solving for p, Initial residual = 0.0677155, Final residual = 9.50153e-05, No Iterations 269
linear solve p 2450
time step continuity errors : sum local = 5.07646e-08, global = -9.04221e-21, cumulative = 1.93895e-20
[OGL LOG] init_host_sparsity_pattern : 72 ms
[OGL LOG] matrix not stored update host matrix
[OGL LOG] update_host_mtx : 35 ms
[OGL LOG] matrix is not yet sorted, sorting host matrix
[OGL LOG] sort_host_mtx_sparsity_pattern : 56 ms
[OGL LOG] sort_host_mtx : 27 ms
[OGL LOG] init_preconditioner : 0 ms
[OGL LOG] solve : 2345 ms
BJompGKOBiCGStab:  Solving for p, Initial residual = 0.0572999, Final residual = 7.74095e-05, No Iterations 286
linear solve p 2571
time step continuity errors : sum local = 3.38213e-08, global = 1.22589e-20, cumulative = 3.16484e-20
ExecutionTime = 1189.05 s  ClockTime = 47 s

Time = 0.01

Courant Number mean: 0.0910916 max: 0.60474
nonePBiCGStab:  Solving for Ux, Initial residual = 0.00818114, Final residual = 0.000314794, No Iterations 5
nonePBiCGStab:  Solving for Uy, Initial residual = 0.0181714, Final residual = 0.000561003, No Iterations 5
nonePBiCGStab:  Solving for Uz, Initial residual = 0.0481153, Final residual = 0.00381381, No Iterations 5
linear solve U 137
[OGL LOG] init_host_sparsity_pattern : 74 ms
[OGL LOG] matrix not stored update host matrix
[OGL LOG] update_host_mtx : 40 ms
[OGL LOG] matrix is not yet sorted, sorting host matrix
[OGL LOG] sort_host_mtx_sparsity_pattern : 56 ms
[OGL LOG] sort_host_mtx : 27 ms
[OGL LOG] init_preconditioner : 0 ms
[OGL LOG] solve : 2250 ms
BJompGKOBiCGStab:  Solving for p, Initial residual = 0.0506181, Final residual = 9.49314e-05, No Iterations 274
linear solve p 2484
time step continuity errors : sum local = 5.02989e-08, global = 3.11606e-21, cumulative = 3.47644e-20
[OGL LOG] init_host_sparsity_pattern : 72 ms
[OGL LOG] matrix not stored update host matrix
[OGL LOG] update_host_mtx : 35 ms
[OGL LOG] matrix is not yet sorted, sorting host matrix
[OGL LOG] sort_host_mtx_sparsity_pattern : 56 ms
[OGL LOG] sort_host_mtx : 27 ms
[OGL LOG] init_preconditioner : 0 ms
[OGL LOG] solve : 901 ms
BJompGKOBiCGStab:  Solving for p, Initial residual = 0.0428305, Final residual = 9.47873e-05, No Iterations 109
linear solve p 1126
time step continuity errors : sum local = 8.17738e-08, global = -1.21468e-20, cumulative = 2.26176e-20
ExecutionTime = 1290.92 s  ClockTime = 51 s

End

