/*---------------------------------------------------------------------------*\
  =========                 |
  \\      /  F ield         | OpenFOAM: The Open Source CFD Toolbox
   \\    /   O peration     | Website:  https://openfoam.org
    \\  /    A nd           | Version:  8
     \\/     M anipulation  |
\*---------------------------------------------------------------------------*/
Build  : 8-ef60d22ea792
Exec   : icoFoam
Date   : Jul 28 2021
Time   : 22:14:25
Host   : "uc2n420.localdomain"
PID    : 961288
I/O    : uncollated
Case   : /pfs/data5/home/kit/scc/nq7776/code/OBR/lidDrivenCavity3D/Variation_mesh/15/Variation_matrix_solver/CG_NoPrecond_Serial/base
nProcs : 1
sigFpe : Enabling floating point exception trapping (FOAM_SIGFPE).
fileModificationChecking : Monitoring run-time modified files using timeStampMaster (fileModificationSkew 10)
allowSystemOperations : Allowing user-supplied system call operations

// * * * * * * * * * * * * * * * * * * * * * * * * * * * * * * * * * * * * * //
Create time

Create mesh for time = 0

Reading transportProperties

Reading field p

Reading field U

Reading/calculating face flux field phi


Starting time loop

Time = 0.001

Courant Number mean: 0 max: 0
DILUPBiCGStab:  Solving for Ux, Initial residual = 1, Final residual = 1.1028e-13, No Iterations 5
DILUPBiCGStab:  Solving for Uy:  solution singularity
DILUPBiCGStab:  Solving for Uz:  solution singularity
linear solve U 1505
nonePCG:  Solving for p, Initial residual = 1, Final residual = 7.86493e-05, No Iterations 111
linear solve p 3653
time step continuity errors : sum local = 3.30156e-08, global = -8.00225e-21, cumulative = -8.00225e-21
nonePCG:  Solving for p, Initial residual = 0.316802, Final residual = 9.21898e-05, No Iterations 105
linear solve p 3404
time step continuity errors : sum local = 6.77707e-08, global = 2.57982e-21, cumulative = -5.42242e-21
ExecutionTime = 0.06 s  ClockTime = 0 s

Time = 0.002

Courant Number mean: 0.0055944 max: 0.0357002
DILUPBiCGStab:  Solving for Ux, Initial residual = 0.242392, Final residual = 1.13973e-14, No Iterations 5
DILUPBiCGStab:  Solving for Uy, Initial residual = 0.296209, Final residual = 1.1243e-14, No Iterations 5
DILUPBiCGStab:  Solving for Uz, Initial residual = 0.685355, Final residual = 3.43272e-14, No Iterations 5
linear solve U 2089
nonePCG:  Solving for p, Initial residual = 0.156983, Final residual = 8.61735e-05, No Iterations 102
linear solve p 3286
time step continuity errors : sum local = 6.18295e-08, global = 3.16512e-20, cumulative = 2.62288e-20
nonePCG:  Solving for p, Initial residual = 0.0605768, Final residual = 7.86458e-05, No Iterations 97
linear solve p 3182
time step continuity errors : sum local = 6.13387e-08, global = -3.68385e-21, cumulative = 2.2545e-20
ExecutionTime = 0.07 s  ClockTime = 0 s

Time = 0.003

Courant Number mean: 0.00940318 max: 0.0587296
DILUPBiCGStab:  Solving for Ux, Initial residual = 0.117973, Final residual = 5.3438e-15, No Iterations 5
DILUPBiCGStab:  Solving for Uy, Initial residual = 0.148717, Final residual = 5.34839e-15, No Iterations 5
DILUPBiCGStab:  Solving for Uz, Initial residual = 0.318995, Final residual = 1.46959e-14, No Iterations 5
linear solve U 1994
nonePCG:  Solving for p, Initial residual = 0.0758742, Final residual = 7.60861e-05, No Iterations 99
linear solve p 3026
time step continuity errors : sum local = 6.10609e-08, global = 1.3078e-20, cumulative = 3.5623e-20
nonePCG:  Solving for p, Initial residual = 0.0340604, Final residual = 9.33077e-05, No Iterations 95
linear solve p 2896
time step continuity errors : sum local = 7.82242e-08, global = -1.05426e-20, cumulative = 2.50804e-20
ExecutionTime = 0.08 s  ClockTime = 0 s

Time = 0.004

Courant Number mean: 0.0121906 max: 0.0737268
DILUPBiCGStab:  Solving for Ux, Initial residual = 0.0723349, Final residual = 2.98994e-15, No Iterations 5
DILUPBiCGStab:  Solving for Uy, Initial residual = 0.0916584, Final residual = 3.02127e-15, No Iterations 5
DILUPBiCGStab:  Solving for Uz, Initial residual = 0.18237, Final residual = 7.94726e-15, No Iterations 5
linear solve U 1965
nonePCG:  Solving for p, Initial residual = 0.0491882, Final residual = 7.41712e-05, No Iterations 98
linear solve p 3020
time step continuity errors : sum local = 6.32728e-08, global = -1.18456e-20, cumulative = 1.32347e-20
nonePCG:  Solving for p, Initial residual = 0.0220846, Final residual = 9.48723e-05, No Iterations 94
linear solve p 2901
time step continuity errors : sum local = 8.30205e-08, global = -1.31199e-20, cumulative = 1.14826e-22
ExecutionTime = 0.09 s  ClockTime = 0 s

Time = 0.005

Courant Number mean: 0.014306 max: 0.0838051
DILUPBiCGStab:  Solving for Ux, Initial residual = 0.0485641, Final residual = 1.79907e-15, No Iterations 5
DILUPBiCGStab:  Solving for Uy, Initial residual = 0.0627378, Final residual = 1.74762e-15, No Iterations 5
DILUPBiCGStab:  Solving for Uz, Initial residual = 0.129708, Final residual = 5.47689e-15, No Iterations 5
linear solve U 1959
nonePCG:  Solving for p, Initial residual = 0.0359266, Final residual = 8.83183e-05, No Iterations 97
linear solve p 3402
time step continuity errors : sum local = 7.83122e-08, global = 2.71419e-21, cumulative = 2.82901e-21
nonePCG:  Solving for p, Initial residual = 0.0152371, Final residual = 9.72468e-05, No Iterations 93
linear solve p 2873
time step continuity errors : sum local = 8.77687e-08, global = -6.79012e-21, cumulative = -3.96111e-21
ExecutionTime = 0.1 s  ClockTime = 0 s

Time = 0.006

Courant Number mean: 0.0159484 max: 0.0908032
DILUPBiCGStab:  Solving for Ux, Initial residual = 0.0353494, Final residual = 1.17443e-15, No Iterations 5
DILUPBiCGStab:  Solving for Uy, Initial residual = 0.0460978, Final residual = 1.06313e-15, No Iterations 5
DILUPBiCGStab:  Solving for Uz, Initial residual = 0.0994178, Final residual = 3.99472e-15, No Iterations 5
linear solve U 1964
nonePCG:  Solving for p, Initial residual = 0.0288199, Final residual = 7.57239e-05, No Iterations 97
linear solve p 2991
time step continuity errors : sum local = 6.93593e-08, global = 4.27103e-20, cumulative = 3.87492e-20
nonePCG:  Solving for p, Initial residual = 0.0110072, Final residual = 9.56884e-05, No Iterations 92
linear solve p 2847
time step continuity errors : sum local = 8.90372e-08, global = -4.07798e-20, cumulative = -2.03061e-21
ExecutionTime = 0.11 s  ClockTime = 0 s

Time = 0.007

Courant Number mean: 0.0172719 max: 0.0958251
DILUPBiCGStab:  Solving for Ux, Initial residual = 0.0271631, Final residual = 8.70861e-16, No Iterations 5
DILUPBiCGStab:  Solving for Uy, Initial residual = 0.0356267, Final residual = 7.40822e-16, No Iterations 5
DILUPBiCGStab:  Solving for Uz, Initial residual = 0.0794112, Final residual = 3.11964e-15, No Iterations 5
linear solve U 1960
nonePCG:  Solving for p, Initial residual = 0.0217461, Final residual = 9.43025e-05, No Iterations 96
linear solve p 2978
time step continuity errors : sum local = 8.85337e-08, global = 1.19609e-20, cumulative = 9.93027e-21
nonePCG:  Solving for p, Initial residual = 0.0086004, Final residual = 9.75806e-05, No Iterations 40
linear solve p 1262
time step continuity errors : sum local = 1.18265e-07, global = -4.96546e-21, cumulative = 4.96481e-21
ExecutionTime = 0.12 s  ClockTime = 0 s

Time = 0.008

Courant Number mean: 0.0183554 max: 0.0995502
DILUPBiCGStab:  Solving for Ux, Initial residual = 0.0216524, Final residual = 6.3904e-16, No Iterations 5
DILUPBiCGStab:  Solving for Uy, Initial residual = 0.0286205, Final residual = 5.78747e-16, No Iterations 5
DILUPBiCGStab:  Solving for Uz, Initial residual = 0.0649397, Final residual = 2.48994e-15, No Iterations 5
linear solve U 1963
nonePCG:  Solving for p, Initial residual = 0.016342, Final residual = 8.325e-05, No Iterations 44
linear solve p 1372
time step continuity errors : sum local = 8.15189e-08, global = 2.3123e-20, cumulative = 2.80878e-20
nonePCG:  Solving for p, Initial residual = 0.00665323, Final residual = 9.73484e-05, No Iterations 38
linear solve p 1212
time step continuity errors : sum local = 1.08484e-07, global = 2.31164e-20, cumulative = 5.12042e-20
ExecutionTime = 0.13 s  ClockTime = 0 s

Time = 0.009

Courant Number mean: 0.0192552 max: 0.102395
DILUPBiCGStab:  Solving for Ux, Initial residual = 0.0176813, Final residual = 4.36954e-16, No Iterations 5
DILUPBiCGStab:  Solving for Uy, Initial residual = 0.0236225, Final residual = 4.83079e-16, No Iterations 5
DILUPBiCGStab:  Solving for Uz, Initial residual = 0.0544313, Final residual = 1.88705e-15, No Iterations 5
linear solve U 1953
nonePCG:  Solving for p, Initial residual = 0.013268, Final residual = 7.83393e-05, No Iterations 43
linear solve p 1371
time step continuity errors : sum local = 9.23712e-08, global = 6.16058e-20, cumulative = 1.1281e-19
nonePCG:  Solving for p, Initial residual = 0.00540232, Final residual = 9.85083e-05, No Iterations 36
linear solve p 1135
time step continuity errors : sum local = 1.00221e-07, global = -2.27779e-20, cumulative = 9.00322e-20
ExecutionTime = 0.13 s  ClockTime = 0 s

Time = 0.01

Courant Number mean: 0.0200143 max: 0.104627
DILUPBiCGStab:  Solving for Ux, Initial residual = 0.01473, Final residual = 2.84335e-16, No Iterations 5
DILUPBiCGStab:  Solving for Uy, Initial residual = 0.0199283, Final residual = 4.01647e-16, No Iterations 5
DILUPBiCGStab:  Solving for Uz, Initial residual = 0.0463272, Final residual = 1.54042e-15, No Iterations 5
linear solve U 1960
nonePCG:  Solving for p, Initial residual = 0.0111411, Final residual = 9.95233e-05, No Iterations 42
linear solve p 1337
time step continuity errors : sum local = 1.2913e-07, global = 1.09374e-20, cumulative = 1.0097e-19
nonePCG:  Solving for p, Initial residual = 0.0045008, Final residual = 8.74276e-05, No Iterations 36
linear solve p 1159
time step continuity errors : sum local = 1.07149e-07, global = 5.35061e-21, cumulative = 1.0632e-19
ExecutionTime = 0.14 s  ClockTime = 0 s

End

