/*---------------------------------------------------------------------------*\
  =========                 |
  \\      /  F ield         | OpenFOAM: The Open Source CFD Toolbox
   \\    /   O peration     | Website:  https://openfoam.org
    \\  /    A nd           | Version:  8
     \\/     M anipulation  |
\*---------------------------------------------------------------------------*/
Build  : 8-40a5a48f630f
Exec   : icoFoam
Date   : Jul 28 2021
Time   : 13:43:52
Host   : "uc2n446.localdomain"
PID    : 420221
I/O    : uncollated
Case   : /pfs/data5/home/kit/scc/nq7776/code/OBR/lidDrivenCavity3D/Variation_mesh/100/Variation_matrix_solver/CG_BJ_OMP/base
nProcs : 1
sigFpe : Enabling floating point exception trapping (FOAM_SIGFPE).
fileModificationChecking : Monitoring run-time modified files using timeStampMaster (fileModificationSkew 10)
allowSystemOperations : Allowing user-supplied system call operations

// * * * * * * * * * * * * * * * * * * * * * * * * * * * * * * * * * * * * * //
Create time

Create mesh for time = 0

Reading transportProperties

Reading field p

Reading field U

Reading/calculating face flux field phi


Starting time loop

Time = 0.001

Courant Number mean: 0 max: 0
nonePBiCGStab:  Solving for Ux, Initial residual = 1, Final residual = 0.0818707, No Iterations 5
nonePBiCGStab:  Solving for Uy, Initial residual = 0, Final residual = 0, No Iterations 0
nonePBiCGStab:  Solving for Uz, Initial residual = 0, Final residual = 0, No Iterations 0
linear solve U 256
[OGL LOG] init_host_sparsity_pattern : 286 ms
[OGL LOG] matrix not stored update host matrix
[OGL LOG] update_host_mtx : 147 ms
[OGL LOG] matrix is not yet sorted, compute sorting idxs
[OGL LOG] compute_sort : 9051 ms
[OGL LOG] matrix is not yet sorted, sorting host matrix
[OGL LOG] sort_host_mtx_sparsity_pattern : 205 ms
[OGL LOG] sort_host_mtx : 122 ms
[OGL LOG] init_preconditioner : 33 ms
 CG create  precond 
[OGL LOG] solve : 10455 ms
BJompGKOCG:  Solving for p, Initial residual = 1, Final residual = 9.97147e-05, No Iterations 652
linear solve p 20533
time step continuity errors : sum local = 3.77655e-08, global = -2.82212e-20, cumulative = -2.82212e-20
[OGL LOG] init_host_sparsity_pattern : 285 ms
[OGL LOG] matrix not stored update host matrix
[OGL LOG] update_host_mtx : 152 ms
[OGL LOG] matrix is not yet sorted, sorting host matrix
[OGL LOG] sort_host_mtx_sparsity_pattern : 226 ms
[OGL LOG] sort_host_mtx : 122 ms
[OGL LOG] init_preconditioner : 0 ms
 CG create  precond 
[OGL LOG] solve : 9161 ms
BJompGKOCG:  Solving for p, Initial residual = 0.707447, Final residual = 9.75718e-05, No Iterations 643
linear solve p 10146
time step continuity errors : sum local = 5.11858e-08, global = 7.7355e-22, cumulative = -2.74476e-20
ExecutionTime = 406.43 s  ClockTime = 35 s

Time = 0.002

Courant Number mean: 0.0422155 max: 0.791725
nonePBiCGStab:  Solving for Ux, Initial residual = 0.137868, Final residual = 0.0400079, No Iterations 5
nonePBiCGStab:  Solving for Uy, Initial residual = 0.451742, Final residual = 0.13014, No Iterations 5
nonePBiCGStab:  Solving for Uz, Initial residual = 0.987497, Final residual = 0.323467, No Iterations 5
linear solve U 523
[OGL LOG] init_host_sparsity_pattern : 272 ms
[OGL LOG] matrix not stored update host matrix
[OGL LOG] update_host_mtx : 148 ms
[OGL LOG] matrix is not yet sorted, sorting host matrix
[OGL LOG] sort_host_mtx_sparsity_pattern : 213 ms
[OGL LOG] sort_host_mtx : 123 ms
[OGL LOG] init_preconditioner : 0 ms
 CG create  precond 
[OGL LOG] solve : 5505 ms
BJompGKOCG:  Solving for p, Initial residual = 0.789688, Final residual = 9.82593e-05, No Iterations 384
linear solve p 6425
time step continuity errors : sum local = 1.00051e-07, global = 3.55164e-21, cumulative = -2.3896e-20
[OGL LOG] init_host_sparsity_pattern : 270 ms
[OGL LOG] matrix not stored update host matrix
[OGL LOG] update_host_mtx : 148 ms
[OGL LOG] matrix is not yet sorted, sorting host matrix
[OGL LOG] sort_host_mtx_sparsity_pattern : 212 ms
[OGL LOG] sort_host_mtx : 123 ms
[OGL LOG] init_preconditioner : 0 ms
 CG create  precond 
[OGL LOG] solve : 6293 ms
BJompGKOCG:  Solving for p, Initial residual = 0.713511, Final residual = 9.34146e-05, No Iterations 380
linear solve p 7213
time step continuity errors : sum local = 9.21079e-08, global = -2.48777e-21, cumulative = -2.63838e-20
ExecutionTime = 644.87 s  ClockTime = 50 s

Time = 0.003

Courant Number mean: 0.0674676 max: 0.899981
nonePBiCGStab:  Solving for Ux, Initial residual = 0.0610495, Final residual = 0.0152942, No Iterations 5
nonePBiCGStab:  Solving for Uy, Initial residual = 0.208806, Final residual = 0.0594435, No Iterations 5
nonePBiCGStab:  Solving for Uz, Initial residual = 0.712424, Final residual = 0.21398, No Iterations 5
linear solve U 550
[OGL LOG] init_host_sparsity_pattern : 291 ms
[OGL LOG] matrix not stored update host matrix
[OGL LOG] update_host_mtx : 160 ms
[OGL LOG] matrix is not yet sorted, sorting host matrix
[OGL LOG] sort_host_mtx_sparsity_pattern : 230 ms
[OGL LOG] sort_host_mtx : 133 ms
[OGL LOG] init_preconditioner : 0 ms
 CG create  precond 
[OGL LOG] solve : 10955 ms
BJompGKOCG:  Solving for p, Initial residual = 0.79708, Final residual = 9.46648e-05, No Iterations 630
linear solve p 11940
time step continuity errors : sum local = 6.85992e-08, global = -5.71229e-21, cumulative = -3.20961e-20
[OGL LOG] init_host_sparsity_pattern : 280 ms
[OGL LOG] matrix not stored update host matrix
[OGL LOG] update_host_mtx : 152 ms
[OGL LOG] matrix is not yet sorted, sorting host matrix
[OGL LOG] sort_host_mtx_sparsity_pattern : 219 ms
[OGL LOG] sort_host_mtx : 126 ms
[OGL LOG] init_preconditioner : 0 ms
 CG create  precond 
[OGL LOG] solve : 9126 ms
BJompGKOCG:  Solving for p, Initial residual = 0.724927, Final residual = 9.40994e-05, No Iterations 629
linear solve p 10087
time step continuity errors : sum local = 6.65038e-08, global = 5.30246e-21, cumulative = -2.67936e-20
ExecutionTime = 1048.34 s  ClockTime = 73 s

Time = 0.004

Courant Number mean: 0.0814733 max: 0.912895
nonePBiCGStab:  Solving for Ux, Initial residual = 0.0387833, Final residual = 0.010725, No Iterations 5
nonePBiCGStab:  Solving for Uy, Initial residual = 0.14897, Final residual = 0.0501994, No Iterations 5
nonePBiCGStab:  Solving for Uz, Initial residual = 0.492461, Final residual = 0.134831, No Iterations 5
linear solve U 529
[OGL LOG] init_host_sparsity_pattern : 272 ms
[OGL LOG] matrix not stored update host matrix
[OGL LOG] update_host_mtx : 149 ms
[OGL LOG] matrix is not yet sorted, sorting host matrix
[OGL LOG] sort_host_mtx_sparsity_pattern : 213 ms
[OGL LOG] sort_host_mtx : 123 ms
[OGL LOG] init_preconditioner : 0 ms
 CG create  precond 
[OGL LOG] solve : 4501 ms
BJompGKOCG:  Solving for p, Initial residual = 0.719546, Final residual = 9.32155e-05, No Iterations 301
linear solve p 5420
time step continuity errors : sum local = 7.27845e-08, global = 7.77208e-21, cumulative = -1.90215e-20
[OGL LOG] init_host_sparsity_pattern : 268 ms
[OGL LOG] matrix not stored update host matrix
[OGL LOG] update_host_mtx : 157 ms
[OGL LOG] matrix is not yet sorted, sorting host matrix
[OGL LOG] sort_host_mtx_sparsity_pattern : 224 ms
[OGL LOG] sort_host_mtx : 133 ms
[OGL LOG] init_preconditioner : 0 ms
 CG create  precond 
[OGL LOG] solve : 4498 ms
BJompGKOCG:  Solving for p, Initial residual = 0.619923, Final residual = 9.66456e-05, No Iterations 299
linear solve p 5434
time step continuity errors : sum local = 7.48659e-08, global = 8.10035e-21, cumulative = -1.09212e-20
ExecutionTime = 1231.06 s  ClockTime = 85 s

Time = 0.005

Courant Number mean: 0.0922786 max: 0.925558
nonePBiCGStab:  Solving for Ux, Initial residual = 0.0298075, Final residual = 0.00895815, No Iterations 5
nonePBiCGStab:  Solving for Uy, Initial residual = 0.098675, Final residual = 0.0358256, No Iterations 5
nonePBiCGStab:  Solving for Uz, Initial residual = 0.30536, Final residual = 0.0790407, No Iterations 5
linear solve U 531
[OGL LOG] init_host_sparsity_pattern : 273 ms
[OGL LOG] matrix not stored update host matrix
[OGL LOG] update_host_mtx : 150 ms
[OGL LOG] matrix is not yet sorted, sorting host matrix
[OGL LOG] sort_host_mtx_sparsity_pattern : 208 ms
[OGL LOG] sort_host_mtx : 125 ms
[OGL LOG] init_preconditioner : 0 ms
 CG create  precond 
[OGL LOG] solve : 4428 ms
BJompGKOCG:  Solving for p, Initial residual = 0.757104, Final residual = 9.60074e-05, No Iterations 296
linear solve p 5350
time step continuity errors : sum local = 7.14982e-08, global = -1.79772e-21, cumulative = -1.27189e-20
[OGL LOG] init_host_sparsity_pattern : 267 ms
[OGL LOG] matrix not stored update host matrix
[OGL LOG] update_host_mtx : 149 ms
[OGL LOG] matrix is not yet sorted, sorting host matrix
[OGL LOG] sort_host_mtx_sparsity_pattern : 208 ms
[OGL LOG] sort_host_mtx : 123 ms
[OGL LOG] init_preconditioner : 0 ms
 CG create  precond 
[OGL LOG] solve : 4378 ms
BJompGKOCG:  Solving for p, Initial residual = 0.670876, Final residual = 9.6822e-05, No Iterations 293
linear solve p 5270
time step continuity errors : sum local = 6.72742e-08, global = 6.75718e-21, cumulative = -5.96172e-21
ExecutionTime = 1409.84 s  ClockTime = 97 s

Time = 0.006

Courant Number mean: 0.100678 max: 0.932438
nonePBiCGStab:  Solving for Ux, Initial residual = 0.023461, Final residual = 0.00717153, No Iterations 5
nonePBiCGStab:  Solving for Uy, Initial residual = 0.0793588, Final residual = 0.0291842, No Iterations 5
nonePBiCGStab:  Solving for Uz, Initial residual = 0.23919, Final residual = 0.0717584, No Iterations 5
linear solve U 529
[OGL LOG] init_host_sparsity_pattern : 272 ms
[OGL LOG] matrix not stored update host matrix
[OGL LOG] update_host_mtx : 149 ms
[OGL LOG] matrix is not yet sorted, sorting host matrix
[OGL LOG] sort_host_mtx_sparsity_pattern : 210 ms
[OGL LOG] sort_host_mtx : 123 ms
[OGL LOG] init_preconditioner : 0 ms
 CG create  precond 
[OGL LOG] solve : 4320 ms
BJompGKOCG:  Solving for p, Initial residual = 0.690319, Final residual = 9.9658e-05, No Iterations 288
linear solve p 5220
time step continuity errors : sum local = 7.33286e-08, global = 9.69798e-21, cumulative = 3.73626e-21
[OGL LOG] init_host_sparsity_pattern : 267 ms
[OGL LOG] matrix not stored update host matrix
[OGL LOG] update_host_mtx : 149 ms
[OGL LOG] matrix is not yet sorted, sorting host matrix
[OGL LOG] sort_host_mtx_sparsity_pattern : 216 ms
[OGL LOG] sort_host_mtx : 123 ms
[OGL LOG] init_preconditioner : 0 ms
 CG create  precond 
[OGL LOG] solve : 4266 ms
BJompGKOCG:  Solving for p, Initial residual = 0.593036, Final residual = 9.85563e-05, No Iterations 285
linear solve p 5168
time step continuity errors : sum local = 7.15817e-08, global = 2.70653e-21, cumulative = 6.44279e-21
ExecutionTime = 1584.26 s  ClockTime = 109 s

Time = 0.007

Courant Number mean: 0.107719 max: 0.937855
nonePBiCGStab:  Solving for Ux, Initial residual = 0.0202165, Final residual = 0.00597683, No Iterations 5
nonePBiCGStab:  Solving for Uy, Initial residual = 0.0623548, Final residual = 0.0233466, No Iterations 5
nonePBiCGStab:  Solving for Uz, Initial residual = 0.183337, Final residual = 0.0531374, No Iterations 5
linear solve U 527
[OGL LOG] init_host_sparsity_pattern : 274 ms
[OGL LOG] matrix not stored update host matrix
[OGL LOG] update_host_mtx : 149 ms
[OGL LOG] matrix is not yet sorted, sorting host matrix
[OGL LOG] sort_host_mtx_sparsity_pattern : 208 ms
[OGL LOG] sort_host_mtx : 124 ms
[OGL LOG] init_preconditioner : 0 ms
 CG create  precond 
[OGL LOG] solve : 4243 ms
BJompGKOCG:  Solving for p, Initial residual = 0.730652, Final residual = 9.77291e-05, No Iterations 303
linear solve p 5146
time step continuity errors : sum local = 7.6523e-08, global = 2.97891e-21, cumulative = 9.4217e-21
[OGL LOG] init_host_sparsity_pattern : 274 ms
[OGL LOG] matrix not stored update host matrix
[OGL LOG] update_host_mtx : 148 ms
[OGL LOG] matrix is not yet sorted, sorting host matrix
[OGL LOG] sort_host_mtx_sparsity_pattern : 208 ms
[OGL LOG] sort_host_mtx : 124 ms
[OGL LOG] init_preconditioner : 0 ms
 CG create  precond 
[OGL LOG] solve : 4395 ms
BJompGKOCG:  Solving for p, Initial residual = 0.634767, Final residual = 9.86262e-05, No Iterations 293
linear solve p 5308
time step continuity errors : sum local = 6.91653e-08, global = 1.03932e-20, cumulative = 1.9815e-20
ExecutionTime = 1759.64 s  ClockTime = 120 s

Time = 0.008

Courant Number mean: 0.113806 max: 0.941733
nonePBiCGStab:  Solving for Ux, Initial residual = 0.0170983, Final residual = 0.00531773, No Iterations 5
nonePBiCGStab:  Solving for Uy, Initial residual = 0.0538415, Final residual = 0.0185799, No Iterations 5
nonePBiCGStab:  Solving for Uz, Initial residual = 0.159529, Final residual = 0.0514138, No Iterations 5
linear solve U 528
[OGL LOG] init_host_sparsity_pattern : 273 ms
[OGL LOG] matrix not stored update host matrix
[OGL LOG] update_host_mtx : 150 ms
[OGL LOG] matrix is not yet sorted, sorting host matrix
[OGL LOG] sort_host_mtx_sparsity_pattern : 211 ms
[OGL LOG] sort_host_mtx : 123 ms
[OGL LOG] init_preconditioner : 0 ms
 CG create  precond 
[OGL LOG] solve : 8892 ms
BJompGKOCG:  Solving for p, Initial residual = 0.673494, Final residual = 9.59084e-05, No Iterations 594
linear solve p 9795
time step continuity errors : sum local = 6.7762e-08, global = 9.54401e-21, cumulative = 2.9359e-20
[OGL LOG] init_host_sparsity_pattern : 266 ms
[OGL LOG] matrix not stored update host matrix
[OGL LOG] update_host_mtx : 150 ms
[OGL LOG] matrix is not yet sorted, sorting host matrix
[OGL LOG] sort_host_mtx_sparsity_pattern : 218 ms
[OGL LOG] sort_host_mtx : 123 ms
[OGL LOG] init_preconditioner : 0 ms
 CG create  precond 
[OGL LOG] solve : 8473 ms
BJompGKOCG:  Solving for p, Initial residual = 0.575373, Final residual = 9.75138e-05, No Iterations 592
linear solve p 9385
time step continuity errors : sum local = 6.93532e-08, global = 6.11183e-21, cumulative = 3.54708e-20
ExecutionTime = 2108.97 s  ClockTime = 140 s

Time = 0.009

Courant Number mean: 0.11917 max: 0.945
nonePBiCGStab:  Solving for Ux, Initial residual = 0.0155955, Final residual = 0.00444861, No Iterations 5
nonePBiCGStab:  Solving for Uy, Initial residual = 0.0458088, Final residual = 0.0166994, No Iterations 5
nonePBiCGStab:  Solving for Uz, Initial residual = 0.12944, Final residual = 0.0392969, No Iterations 5
linear solve U 531
[OGL LOG] init_host_sparsity_pattern : 277 ms
[OGL LOG] matrix not stored update host matrix
[OGL LOG] update_host_mtx : 149 ms
[OGL LOG] matrix is not yet sorted, sorting host matrix
[OGL LOG] sort_host_mtx_sparsity_pattern : 207 ms
[OGL LOG] sort_host_mtx : 123 ms
[OGL LOG] init_preconditioner : 0 ms
 CG create  precond 
[OGL LOG] solve : 8950 ms
BJompGKOCG:  Solving for p, Initial residual = 0.716343, Final residual = 9.73616e-05, No Iterations 597
linear solve p 9869
time step continuity errors : sum local = 6.634e-08, global = 8.76956e-21, cumulative = 4.42404e-20
[OGL LOG] init_host_sparsity_pattern : 272 ms
[OGL LOG] matrix not stored update host matrix
[OGL LOG] update_host_mtx : 150 ms
[OGL LOG] matrix is not yet sorted, sorting host matrix
[OGL LOG] sort_host_mtx_sparsity_pattern : 214 ms
[OGL LOG] sort_host_mtx : 123 ms
[OGL LOG] init_preconditioner : 0 ms
 CG create  precond 
[OGL LOG] solve : 8926 ms
BJompGKOCG:  Solving for p, Initial residual = 0.615931, Final residual = 9.99734e-05, No Iterations 594
linear solve p 9837
time step continuity errors : sum local = 6.80764e-08, global = -1.15665e-20, cumulative = 3.26739e-20
ExecutionTime = 2468.5 s  ClockTime = 161 s

Time = 0.01

Courant Number mean: 0.124009 max: 0.947486
nonePBiCGStab:  Solving for Ux, Initial residual = 0.0138106, Final residual = 0.00361992, No Iterations 5
nonePBiCGStab:  Solving for Uy, Initial residual = 0.0412789, Final residual = 0.0133202, No Iterations 5
nonePBiCGStab:  Solving for Uz, Initial residual = 0.118211, Final residual = 0.0390255, No Iterations 5
linear solve U 528
[OGL LOG] init_host_sparsity_pattern : 275 ms
[OGL LOG] matrix not stored update host matrix
[OGL LOG] update_host_mtx : 149 ms
[OGL LOG] matrix is not yet sorted, sorting host matrix
[OGL LOG] sort_host_mtx_sparsity_pattern : 208 ms
[OGL LOG] sort_host_mtx : 122 ms
[OGL LOG] init_preconditioner : 0 ms
 CG create  precond 
[OGL LOG] solve : 3992 ms
BJompGKOCG:  Solving for p, Initial residual = 0.66952, Final residual = 9.99114e-05, No Iterations 266
linear solve p 4906
time step continuity errors : sum local = 7.65214e-08, global = -5.21043e-21, cumulative = 2.74634e-20
[OGL LOG] init_host_sparsity_pattern : 267 ms
[OGL LOG] matrix not stored update host matrix
[OGL LOG] update_host_mtx : 150 ms
[OGL LOG] matrix is not yet sorted, sorting host matrix
[OGL LOG] sort_host_mtx_sparsity_pattern : 209 ms
[OGL LOG] sort_host_mtx : 122 ms
[OGL LOG] init_preconditioner : 0 ms
 CG create  precond 
[OGL LOG] solve : 3974 ms
BJompGKOCG:  Solving for p, Initial residual = 0.572014, Final residual = 9.67137e-05, No Iterations 263
linear solve p 4867
time step continuity errors : sum local = 7.1707e-08, global = -8.29242e-21, cumulative = 1.9171e-20
ExecutionTime = 2630.52 s  ClockTime = 172 s

End

