/*---------------------------------------------------------------------------*\
  =========                 |
  \\      /  F ield         | OpenFOAM: The Open Source CFD Toolbox
   \\    /   O peration     | Website:  https://openfoam.org
    \\  /    A nd           | Version:  8
     \\/     M anipulation  |
\*---------------------------------------------------------------------------*/
Build  : 8-14d69e1ee166
Exec   : icoFoam
Date   : Jul 29 2021
Time   : 09:17:00
Host   : "guyot.icl.utk.edu"
PID    : 236847
I/O    : uncollated
Case   : /home/greole/code/OBR/lidDrivenCavity3D/Variation_mesh/70/Variation_matrix_solver/IR_NoPrecond_CUDA/base
nProcs : 1
sigFpe : Enabling floating point exception trapping (FOAM_SIGFPE).
fileModificationChecking : Monitoring run-time modified files using timeStampMaster (fileModificationSkew 10)
allowSystemOperations : Allowing user-supplied system call operations

// * * * * * * * * * * * * * * * * * * * * * * * * * * * * * * * * * * * * * //
Create time

Create mesh for time = 0

Reading transportProperties

Reading field p

Reading field U

Reading/calculating face flux field phi


Starting time loop

Time = 0.001

Courant Number mean: 0 max: 0
DILUPBiCGStab:  Solving for Ux, Initial residual = 1, Final residual = 0.00143011, No Iterations 5
DILUPBiCGStab:  Solving for Uy:  solution singularity
DILUPBiCGStab:  Solving for Uz:  solution singularity
linear solve U 130984
[OGL LOG] init_host_sparsity_pattern : 153 ms
[OGL LOG] matrix not stored update host matrix
[OGL LOG] update_host_mtx : 78 ms
[OGL LOG] matrix is not yet sorted, compute sorting idxs
[OGL LOG] compute_sort : 3457 ms
[OGL LOG] matrix is not yet sorted, sorting host matrix
[OGL LOG] sort_host_mtx_sparsity_pattern : 61 ms
[OGL LOG] sort_host_mtx : 37 ms
[OGL LOG] init_preconditioner : 0 ms
[OGL LOG] solve : 155 ms
nonecudaGKOIR:  Solving for p, Initial residual = 1, Final residual = 1.15962e-05, No Iterations 3
linear solve p 5646887
time step continuity errors : sum local = 6.86248e-09, global = -1.06689e-21, cumulative = -1.06689e-21
[OGL LOG] init_host_sparsity_pattern : 143 ms
[OGL LOG] matrix not stored update host matrix
[OGL LOG] update_host_mtx : 76 ms
[OGL LOG] matrix is not yet sorted, sorting host matrix
[OGL LOG] sort_host_mtx_sparsity_pattern : 55 ms
[OGL LOG] sort_host_mtx : 33 ms
[OGL LOG] init_preconditioner : 0 ms
[OGL LOG] solve : 143 ms
nonecudaGKOIR:  Solving for p, Initial residual = 0.72385, Final residual = 5.88795e-06, No Iterations 3
linear solve p 473589
time step continuity errors : sum local = 4.63135e-09, global = -8.07768e-21, cumulative = -9.14457e-21
ExecutionTime = 7.77 s  ClockTime = 8 s

Time = 0.002

Courant Number mean: 0.0394021 max: 0.518352
DILUPBiCGStab:  Solving for Ux, Initial residual = 0.151291, Final residual = 0.000459808, No Iterations 5
DILUPBiCGStab:  Solving for Uy, Initial residual = 0.361768, Final residual = 0.000929265, No Iterations 5
DILUPBiCGStab:  Solving for Uz, Initial residual = 0.984732, Final residual = 0.00303016, No Iterations 5
linear solve U 262092
[OGL LOG] init_host_sparsity_pattern : 142 ms
[OGL LOG] matrix not stored update host matrix
[OGL LOG] update_host_mtx : 76 ms
[OGL LOG] matrix is not yet sorted, sorting host matrix
[OGL LOG] sort_host_mtx_sparsity_pattern : 58 ms
[OGL LOG] sort_host_mtx : 34 ms
[OGL LOG] init_preconditioner : 0 ms
[OGL LOG] solve : 143 ms
nonecudaGKOIR:  Solving for p, Initial residual = 0.674246, Final residual = 3.55325e-06, No Iterations 3
linear solve p 476267
time step continuity errors : sum local = 3.06114e-09, global = -2.92544e-21, cumulative = -1.207e-20
[OGL LOG] init_host_sparsity_pattern : 146 ms
[OGL LOG] matrix not stored update host matrix
[OGL LOG] update_host_mtx : 76 ms
[OGL LOG] matrix is not yet sorted, sorting host matrix
[OGL LOG] sort_host_mtx_sparsity_pattern : 56 ms
[OGL LOG] sort_host_mtx : 33 ms
[OGL LOG] init_preconditioner : 0 ms
[OGL LOG] solve : 144 ms
nonecudaGKOIR:  Solving for p, Initial residual = 0.601566, Final residual = 2.81041e-06, No Iterations 3
linear solve p 478955
time step continuity errors : sum local = 2.47597e-09, global = -1.12247e-20, cumulative = -2.32947e-20
ExecutionTime = 9.13 s  ClockTime = 9 s

Time = 0.003

Courant Number mean: 0.0591359 max: 0.616283
DILUPBiCGStab:  Solving for Ux, Initial residual = 0.0520836, Final residual = 0.00010812, No Iterations 5
DILUPBiCGStab:  Solving for Uy, Initial residual = 0.118677, Final residual = 0.000223828, No Iterations 5
DILUPBiCGStab:  Solving for Uz, Initial residual = 0.503356, Final residual = 0.00144602, No Iterations 5
linear solve U 259918
[OGL LOG] init_host_sparsity_pattern : 143 ms
[OGL LOG] matrix not stored update host matrix
[OGL LOG] update_host_mtx : 76 ms
[OGL LOG] matrix is not yet sorted, sorting host matrix
[OGL LOG] sort_host_mtx_sparsity_pattern : 55 ms
[OGL LOG] sort_host_mtx : 33 ms
[OGL LOG] init_preconditioner : 0 ms
[OGL LOG] solve : 145 ms
nonecudaGKOIR:  Solving for p, Initial residual = 0.609167, Final residual = 2.05735e-06, No Iterations 3
linear solve p 475668
time step continuity errors : sum local = 1.26152e-09, global = 1.47747e-21, cumulative = -2.18172e-20
[OGL LOG] init_host_sparsity_pattern : 146 ms
[OGL LOG] matrix not stored update host matrix
[OGL LOG] update_host_mtx : 76 ms
[OGL LOG] matrix is not yet sorted, sorting host matrix
[OGL LOG] sort_host_mtx_sparsity_pattern : 55 ms
[OGL LOG] sort_host_mtx : 34 ms
[OGL LOG] init_preconditioner : 0 ms
[OGL LOG] solve : 155 ms
nonecudaGKOIR:  Solving for p, Initial residual = 0.557273, Final residual = 1.71614e-06, No Iterations 3
linear solve p 489736
time step continuity errors : sum local = 1.02137e-09, global = -1.14283e-20, cumulative = -3.32455e-20
ExecutionTime = 10.51 s  ClockTime = 11 s

Time = 0.004

Courant Number mean: 0.0695969 max: 0.62949
DILUPBiCGStab:  Solving for Ux, Initial residual = 0.0286856, Final residual = 5.77657e-05, No Iterations 5
DILUPBiCGStab:  Solving for Uy, Initial residual = 0.0790557, Final residual = 0.000132068, No Iterations 5
DILUPBiCGStab:  Solving for Uz, Initial residual = 0.261647, Final residual = 0.000581855, No Iterations 5
linear solve U 260153
[OGL LOG] init_host_sparsity_pattern : 143 ms
[OGL LOG] matrix not stored update host matrix
[OGL LOG] update_host_mtx : 73 ms
[OGL LOG] matrix is not yet sorted, sorting host matrix
[OGL LOG] sort_host_mtx_sparsity_pattern : 55 ms
[OGL LOG] sort_host_mtx : 34 ms
[OGL LOG] init_preconditioner : 0 ms
[OGL LOG] solve : 132 ms
nonecudaGKOIR:  Solving for p, Initial residual = 0.385845, Final residual = 1.34925e-06, No Iterations 3
linear solve p 461506
time step continuity errors : sum local = 7.21863e-10, global = 4.24017e-21, cumulative = -2.90053e-20
[OGL LOG] init_host_sparsity_pattern : 146 ms
[OGL LOG] matrix not stored update host matrix
[OGL LOG] update_host_mtx : 76 ms
[OGL LOG] matrix is not yet sorted, sorting host matrix
[OGL LOG] sort_host_mtx_sparsity_pattern : 55 ms
[OGL LOG] sort_host_mtx : 35 ms
[OGL LOG] init_preconditioner : 0 ms
[OGL LOG] solve : 110 ms
nonecudaGKOIR:  Solving for p, Initial residual = 0.32553, Final residual = 9.65975e-05, No Iterations 2
linear solve p 445276
time step continuity errors : sum local = 5.21462e-08, global = 6.81434e-21, cumulative = -2.2191e-20
ExecutionTime = 11.83 s  ClockTime = 12 s

Time = 0.005

Courant Number mean: 0.0778346 max: 0.639338
DILUPBiCGStab:  Solving for Ux, Initial residual = 0.0206118, Final residual = 3.14025e-05, No Iterations 5
DILUPBiCGStab:  Solving for Uy, Initial residual = 0.0456748, Final residual = 6.10443e-05, No Iterations 5
DILUPBiCGStab:  Solving for Uz, Initial residual = 0.0901552, Final residual = 0.000191276, No Iterations 5
linear solve U 261433
[OGL LOG] init_host_sparsity_pattern : 145 ms
[OGL LOG] matrix not stored update host matrix
[OGL LOG] update_host_mtx : 76 ms
[OGL LOG] matrix is not yet sorted, sorting host matrix
[OGL LOG] sort_host_mtx_sparsity_pattern : 58 ms
[OGL LOG] sort_host_mtx : 33 ms
[OGL LOG] init_preconditioner : 0 ms
[OGL LOG] solve : 112 ms
nonecudaGKOIR:  Solving for p, Initial residual = 0.289399, Final residual = 8.87616e-05, No Iterations 2
linear solve p 448334
time step continuity errors : sum local = 3.95079e-08, global = -7.94291e-21, cumulative = -3.01339e-20
[OGL LOG] init_host_sparsity_pattern : 143 ms
[OGL LOG] matrix not stored update host matrix
[OGL LOG] update_host_mtx : 76 ms
[OGL LOG] matrix is not yet sorted, sorting host matrix
[OGL LOG] sort_host_mtx_sparsity_pattern : 55 ms
[OGL LOG] sort_host_mtx : 35 ms
[OGL LOG] init_preconditioner : 0 ms
[OGL LOG] solve : 112 ms
nonecudaGKOIR:  Solving for p, Initial residual = 0.247154, Final residual = 7.50247e-05, No Iterations 2
linear solve p 445403
time step continuity errors : sum local = 3.31378e-08, global = -5.69603e-22, cumulative = -3.07035e-20
ExecutionTime = 13.14 s  ClockTime = 13 s

Time = 0.006

Courant Number mean: 0.0841384 max: 0.645081
DILUPBiCGStab:  Solving for Ux, Initial residual = 0.0148933, Final residual = 2.19712e-05, No Iterations 5
DILUPBiCGStab:  Solving for Uy, Initial residual = 0.0354616, Final residual = 3.6645e-05, No Iterations 5
DILUPBiCGStab:  Solving for Uz, Initial residual = 0.0796234, Final residual = 0.000157872, No Iterations 5
linear solve U 260287
[OGL LOG] init_host_sparsity_pattern : 143 ms
[OGL LOG] matrix not stored update host matrix
[OGL LOG] update_host_mtx : 76 ms
[OGL LOG] matrix is not yet sorted, sorting host matrix
[OGL LOG] sort_host_mtx_sparsity_pattern : 55 ms
[OGL LOG] sort_host_mtx : 33 ms
[OGL LOG] init_preconditioner : 0 ms
[OGL LOG] solve : 110 ms
nonecudaGKOIR:  Solving for p, Initial residual = 0.177101, Final residual = 5.15787e-05, No Iterations 2
linear solve p 440898
time step continuity errors : sum local = 2.24075e-08, global = -2.07841e-20, cumulative = -5.14876e-20
[OGL LOG] init_host_sparsity_pattern : 143 ms
[OGL LOG] matrix not stored update host matrix
[OGL LOG] update_host_mtx : 76 ms
[OGL LOG] matrix is not yet sorted, sorting host matrix
[OGL LOG] sort_host_mtx_sparsity_pattern : 58 ms
[OGL LOG] sort_host_mtx : 35 ms
[OGL LOG] init_preconditioner : 0 ms
[OGL LOG] solve : 111 ms
nonecudaGKOIR:  Solving for p, Initial residual = 0.146446, Final residual = 4.0323e-05, No Iterations 2
linear solve p 445815
time step continuity errors : sum local = 1.75602e-08, global = -3.53733e-24, cumulative = -5.14912e-20
ExecutionTime = 14.43 s  ClockTime = 15 s

Time = 0.007

Courant Number mean: 0.0893566 max: 0.648976
DILUPBiCGStab:  Solving for Ux, Initial residual = 0.011892, Final residual = 1.23531e-05, No Iterations 5
DILUPBiCGStab:  Solving for Uy, Initial residual = 0.0272109, Final residual = 2.86777e-05, No Iterations 5
DILUPBiCGStab:  Solving for Uz, Initial residual = 0.0495038, Final residual = 7.65341e-05, No Iterations 5
linear solve U 261178
[OGL LOG] init_host_sparsity_pattern : 143 ms
[OGL LOG] matrix not stored update host matrix
[OGL LOG] update_host_mtx : 76 ms
[OGL LOG] matrix is not yet sorted, sorting host matrix
[OGL LOG] sort_host_mtx_sparsity_pattern : 55 ms
[OGL LOG] sort_host_mtx : 33 ms
[OGL LOG] init_preconditioner : 0 ms
[OGL LOG] solve : 111 ms
nonecudaGKOIR:  Solving for p, Initial residual = 0.123804, Final residual = 2.96538e-05, No Iterations 2
linear solve p 441671
time step continuity errors : sum local = 1.22961e-08, global = 6.16932e-21, cumulative = -4.53218e-20
[OGL LOG] init_host_sparsity_pattern : 146 ms
[OGL LOG] matrix not stored update host matrix
[OGL LOG] update_host_mtx : 76 ms
[OGL LOG] matrix is not yet sorted, sorting host matrix
[OGL LOG] sort_host_mtx_sparsity_pattern : 57 ms
[OGL LOG] sort_host_mtx : 34 ms
[OGL LOG] init_preconditioner : 0 ms
[OGL LOG] solve : 111 ms
nonecudaGKOIR:  Solving for p, Initial residual = 0.103337, Final residual = 2.48337e-05, No Iterations 2
linear solve p 446031
time step continuity errors : sum local = 1.02916e-08, global = 4.23443e-21, cumulative = -4.10874e-20
ExecutionTime = 15.73 s  ClockTime = 16 s

Time = 0.008

Courant Number mean: 0.0937058 max: 0.652002
DILUPBiCGStab:  Solving for Ux, Initial residual = 0.00969422, Final residual = 1.01001e-05, No Iterations 5
DILUPBiCGStab:  Solving for Uy, Initial residual = 0.0223487, Final residual = 1.32147e-05, No Iterations 5
DILUPBiCGStab:  Solving for Uz, Initial residual = 0.0435454, Final residual = 5.57001e-05, No Iterations 5
linear solve U 261459
[OGL LOG] init_host_sparsity_pattern : 143 ms
[OGL LOG] matrix not stored update host matrix
[OGL LOG] update_host_mtx : 76 ms
[OGL LOG] matrix is not yet sorted, sorting host matrix
[OGL LOG] sort_host_mtx_sparsity_pattern : 58 ms
[OGL LOG] sort_host_mtx : 34 ms
[OGL LOG] init_preconditioner : 0 ms
[OGL LOG] solve : 108 ms
nonecudaGKOIR:  Solving for p, Initial residual = 0.0802102, Final residual = 1.97224e-05, No Iterations 2
linear solve p 442229
time step continuity errors : sum local = 8.05751e-09, global = -7.27782e-21, cumulative = -4.83652e-20
[OGL LOG] init_host_sparsity_pattern : 146 ms
[OGL LOG] matrix not stored update host matrix
[OGL LOG] update_host_mtx : 76 ms
[OGL LOG] matrix is not yet sorted, sorting host matrix
[OGL LOG] sort_host_mtx_sparsity_pattern : 55 ms
[OGL LOG] sort_host_mtx : 34 ms
[OGL LOG] init_preconditioner : 0 ms
[OGL LOG] solve : 111 ms
nonecudaGKOIR:  Solving for p, Initial residual = 0.0662014, Final residual = 1.46937e-05, No Iterations 2
linear solve p 444850
time step continuity errors : sum local = 6.00839e-09, global = -1.77989e-20, cumulative = -6.61641e-20
ExecutionTime = 17.03 s  ClockTime = 17 s

Time = 0.009

Courant Number mean: 0.0974484 max: 0.654263
DILUPBiCGStab:  Solving for Ux, Initial residual = 0.00810858, Final residual = 5.40432e-06, No Iterations 5
DILUPBiCGStab:  Solving for Uy, Initial residual = 0.018821, Final residual = 1.30444e-05, No Iterations 5
DILUPBiCGStab:  Solving for Uz, Initial residual = 0.0355693, Final residual = 4.11152e-05, No Iterations 5
linear solve U 261030
[OGL LOG] init_host_sparsity_pattern : 145 ms
[OGL LOG] matrix not stored update host matrix
[OGL LOG] update_host_mtx : 76 ms
[OGL LOG] matrix is not yet sorted, sorting host matrix
[OGL LOG] sort_host_mtx_sparsity_pattern : 59 ms
[OGL LOG] sort_host_mtx : 34 ms
[OGL LOG] init_preconditioner : 0 ms
[OGL LOG] solve : 111 ms
nonecudaGKOIR:  Solving for p, Initial residual = 0.0580409, Final residual = 1.17357e-05, No Iterations 2
linear solve p 448365
time step continuity errors : sum local = 4.72986e-09, global = -3.84816e-21, cumulative = -7.00123e-20
[OGL LOG] init_host_sparsity_pattern : 146 ms
[OGL LOG] matrix not stored update host matrix
[OGL LOG] update_host_mtx : 76 ms
[OGL LOG] matrix is not yet sorted, sorting host matrix
[OGL LOG] sort_host_mtx_sparsity_pattern : 58 ms
[OGL LOG] sort_host_mtx : 35 ms
[OGL LOG] init_preconditioner : 0 ms
[OGL LOG] solve : 111 ms
nonecudaGKOIR:  Solving for p, Initial residual = 0.0483924, Final residual = 1.01125e-05, No Iterations 2
linear solve p 449648
time step continuity errors : sum local = 4.07711e-09, global = -5.23146e-21, cumulative = -7.52438e-20
ExecutionTime = 18.34 s  ClockTime = 19 s

Time = 0.01

Courant Number mean: 0.100691 max: 0.656136
DILUPBiCGStab:  Solving for Ux, Initial residual = 0.00694419, Final residual = 4.36001e-06, No Iterations 5
DILUPBiCGStab:  Solving for Uy, Initial residual = 0.0160915, Final residual = 6.79597e-06, No Iterations 5
DILUPBiCGStab:  Solving for Uz, Initial residual = 0.031138, Final residual = 2.91084e-05, No Iterations 5
linear solve U 260890
[OGL LOG] init_host_sparsity_pattern : 145 ms
[OGL LOG] matrix not stored update host matrix
[OGL LOG] update_host_mtx : 76 ms
[OGL LOG] matrix is not yet sorted, sorting host matrix
[OGL LOG] sort_host_mtx_sparsity_pattern : 55 ms
[OGL LOG] sort_host_mtx : 35 ms
[OGL LOG] init_preconditioner : 0 ms
[OGL LOG] solve : 112 ms
nonecudaGKOIR:  Solving for p, Initial residual = 0.0390466, Final residual = 8.52264e-06, No Iterations 2
linear solve p 446071
time step continuity errors : sum local = 3.40992e-09, global = -1.46971e-20, cumulative = -8.99409e-20
[OGL LOG] init_host_sparsity_pattern : 146 ms
[OGL LOG] matrix not stored update host matrix
[OGL LOG] update_host_mtx : 76 ms
[OGL LOG] matrix is not yet sorted, sorting host matrix
[OGL LOG] sort_host_mtx_sparsity_pattern : 58 ms
[OGL LOG] sort_host_mtx : 33 ms
[OGL LOG] init_preconditioner : 0 ms
[OGL LOG] solve : 113 ms
nonecudaGKOIR:  Solving for p, Initial residual = 0.0328594, Final residual = 6.92613e-06, No Iterations 2
linear solve p 450072
time step continuity errors : sum local = 2.77311e-09, global = 1.11741e-20, cumulative = -7.87668e-20
ExecutionTime = 19.65 s  ClockTime = 20 s

End

