/*---------------------------------------------------------------------------*\
  =========                 |
  \\      /  F ield         | OpenFOAM: The Open Source CFD Toolbox
   \\    /   O peration     | Website:  https://openfoam.org
    \\  /    A nd           | Version:  8
     \\/     M anipulation  |
\*---------------------------------------------------------------------------*/
Build  : 8-ef60d22ea792
Exec   : icoFoam
Date   : Jul 29 2021
Time   : 07:46:08
Host   : "nla-gpu2.ianm.kit.edu"
PID    : 1963233
I/O    : uncollated
Case   : /home/greole/code/OBR/lidDrivenCavity3D/Variation_mesh/45/Variation_matrix_solver/IR_NoPrecond_HIP/base
nProcs : 1
sigFpe : Enabling floating point exception trapping (FOAM_SIGFPE).
fileModificationChecking : Monitoring run-time modified files using timeStampMaster (fileModificationSkew 10)
allowSystemOperations : Allowing user-supplied system call operations

// * * * * * * * * * * * * * * * * * * * * * * * * * * * * * * * * * * * * * //
Create time

Create mesh for time = 0

Reading transportProperties

Reading field p

Reading field U

Reading/calculating face flux field phi


Starting time loop

Time = 0.001

Courant Number mean: 0 max: 0
DILUPBiCGStab:  Solving for Ux, Initial residual = 1, Final residual = 4.36896e-05, No Iterations 5
DILUPBiCGStab:  Solving for Uy:  solution singularity
DILUPBiCGStab:  Solving for Uz:  solution singularity
linear solve U 35249
[OGL LOG] init_host_sparsity_pattern : 43 ms
[OGL LOG] matrix not stored update host matrix
[OGL LOG] update_host_mtx : 20 ms
[OGL LOG] matrix is not yet sorted, compute sorting idxs
[OGL LOG] compute_sort : 829 ms
[OGL LOG] matrix is not yet sorted, sorting host matrix
[OGL LOG] sort_host_mtx_sparsity_pattern : 17 ms
[OGL LOG] sort_host_mtx : 10 ms
[OGL LOG] init_preconditioner : 0 ms
[OGL LOG] solve : 107 ms
nonehipGKOIR:  Solving for p, Initial residual = 1, Final residual = 9.15415e-06, No Iterations 3
linear solve p 1462705
time step continuity errors : sum local = 5.32218e-09, global = 7.85199e-21, cumulative = 7.85199e-21
[OGL LOG] init_host_sparsity_pattern : 41 ms
[OGL LOG] matrix not stored update host matrix
[OGL LOG] update_host_mtx : 19 ms
[OGL LOG] matrix is not yet sorted, sorting host matrix
[OGL LOG] sort_host_mtx_sparsity_pattern : 17 ms
[OGL LOG] sort_host_mtx : 10 ms
[OGL LOG] init_preconditioner : 0 ms
[OGL LOG] solve : 82 ms
nonehipGKOIR:  Solving for p, Initial residual = 0.634912, Final residual = 3.7431e-06, No Iterations 3
linear solve p 178970
time step continuity errors : sum local = 3.1001e-09, global = -1.02715e-20, cumulative = -2.41956e-21
ExecutionTime = 2.31 s  ClockTime = 3 s

Time = 0.002

Courant Number mean: 0.024462 max: 0.283008
DILUPBiCGStab:  Solving for Ux, Initial residual = 0.172563, Final residual = 9.2135e-06, No Iterations 5
DILUPBiCGStab:  Solving for Uy, Initial residual = 0.303007, Final residual = 1.34753e-05, No Iterations 5
DILUPBiCGStab:  Solving for Uz, Initial residual = 0.966864, Final residual = 5.39088e-05, No Iterations 5
linear solve U 65690
[OGL LOG] init_host_sparsity_pattern : 41 ms
[OGL LOG] matrix not stored update host matrix
[OGL LOG] update_host_mtx : 19 ms
[OGL LOG] matrix is not yet sorted, sorting host matrix
[OGL LOG] sort_host_mtx_sparsity_pattern : 17 ms
[OGL LOG] sort_host_mtx : 10 ms
[OGL LOG] init_preconditioner : 0 ms
[OGL LOG] solve : 82 ms
nonehipGKOIR:  Solving for p, Initial residual = 0.502454, Final residual = 1.92805e-06, No Iterations 3
linear solve p 178475
time step continuity errors : sum local = 1.54332e-09, global = -3.07406e-22, cumulative = -2.72696e-21
[OGL LOG] init_host_sparsity_pattern : 42 ms
[OGL LOG] matrix not stored update host matrix
[OGL LOG] update_host_mtx : 20 ms
[OGL LOG] matrix is not yet sorted, sorting host matrix
[OGL LOG] sort_host_mtx_sparsity_pattern : 17 ms
[OGL LOG] sort_host_mtx : 10 ms
[OGL LOG] init_preconditioner : 0 ms
[OGL LOG] solve : 83 ms
nonehipGKOIR:  Solving for p, Initial residual = 0.411852, Final residual = 1.42736e-06, No Iterations 3
linear solve p 179792
time step continuity errors : sum local = 1.1843e-09, global = -7.35902e-21, cumulative = -1.0086e-20
ExecutionTime = 2.93 s  ClockTime = 3 s

Time = 0.003

Courant Number mean: 0.0369603 max: 0.358122
DILUPBiCGStab:  Solving for Ux, Initial residual = 0.0596415, Final residual = 3.42624e-06, No Iterations 5
DILUPBiCGStab:  Solving for Uy, Initial residual = 0.101744, Final residual = 2.38973e-06, No Iterations 5
DILUPBiCGStab:  Solving for Uz, Initial residual = 0.132049, Final residual = 6.31397e-06, No Iterations 5
linear solve U 65531
[OGL LOG] init_host_sparsity_pattern : 41 ms
[OGL LOG] matrix not stored update host matrix
[OGL LOG] update_host_mtx : 19 ms
[OGL LOG] matrix is not yet sorted, sorting host matrix
[OGL LOG] sort_host_mtx_sparsity_pattern : 17 ms
[OGL LOG] sort_host_mtx : 10 ms
[OGL LOG] init_preconditioner : 0 ms
[OGL LOG] solve : 62 ms
nonehipGKOIR:  Solving for p, Initial residual = 0.230399, Final residual = 6.47484e-05, No Iterations 2
linear solve p 158374
time step continuity errors : sum local = 3.93065e-08, global = 2.22955e-20, cumulative = 1.22096e-20
[OGL LOG] init_host_sparsity_pattern : 42 ms
[OGL LOG] matrix not stored update host matrix
[OGL LOG] update_host_mtx : 20 ms
[OGL LOG] matrix is not yet sorted, sorting host matrix
[OGL LOG] sort_host_mtx_sparsity_pattern : 17 ms
[OGL LOG] sort_host_mtx : 10 ms
[OGL LOG] init_preconditioner : 0 ms
[OGL LOG] solve : 64 ms
nonehipGKOIR:  Solving for p, Initial residual = 0.185945, Final residual = 4.38104e-05, No Iterations 2
linear solve p 161478
time step continuity errors : sum local = 2.62672e-08, global = -2.32679e-21, cumulative = 9.88276e-21
ExecutionTime = 3.47 s  ClockTime = 4 s

Time = 0.004

Courant Number mean: 0.0442727 max: 0.378744
DILUPBiCGStab:  Solving for Ux, Initial residual = 0.0352331, Final residual = 8.29948e-07, No Iterations 5
DILUPBiCGStab:  Solving for Uy, Initial residual = 0.064689, Final residual = 1.39491e-06, No Iterations 5
DILUPBiCGStab:  Solving for Uz, Initial residual = 0.109965, Final residual = 4.01437e-06, No Iterations 5
linear solve U 65832
[OGL LOG] init_host_sparsity_pattern : 41 ms
[OGL LOG] matrix not stored update host matrix
[OGL LOG] update_host_mtx : 20 ms
[OGL LOG] matrix is not yet sorted, sorting host matrix
[OGL LOG] sort_host_mtx_sparsity_pattern : 17 ms
[OGL LOG] sort_host_mtx : 10 ms
[OGL LOG] init_preconditioner : 0 ms
[OGL LOG] solve : 64 ms
nonehipGKOIR:  Solving for p, Initial residual = 0.110982, Final residual = 2.80711e-05, No Iterations 2
linear solve p 160806
time step continuity errors : sum local = 1.63471e-08, global = 1.26377e-20, cumulative = 2.25205e-20
[OGL LOG] init_host_sparsity_pattern : 42 ms
[OGL LOG] matrix not stored update host matrix
[OGL LOG] update_host_mtx : 20 ms
[OGL LOG] matrix is not yet sorted, sorting host matrix
[OGL LOG] sort_host_mtx_sparsity_pattern : 17 ms
[OGL LOG] sort_host_mtx : 10 ms
[OGL LOG] init_preconditioner : 0 ms
[OGL LOG] solve : 71 ms
nonehipGKOIR:  Solving for p, Initial residual = 0.0875504, Final residual = 2.10388e-05, No Iterations 2
linear solve p 170138
time step continuity errors : sum local = 1.24048e-08, global = -5.36642e-21, cumulative = 1.7154e-20
ExecutionTime = 4.04 s  ClockTime = 4 s

Time = 0.005

Courant Number mean: 0.0495668 max: 0.388679
DILUPBiCGStab:  Solving for Ux, Initial residual = 0.0246454, Final residual = 2.72667e-07, No Iterations 5
DILUPBiCGStab:  Solving for Uy, Initial residual = 0.0448008, Final residual = 7.79514e-07, No Iterations 5
DILUPBiCGStab:  Solving for Uz, Initial residual = 0.075389, Final residual = 1.61379e-06, No Iterations 5
linear solve U 68645
[OGL LOG] init_host_sparsity_pattern : 41 ms
[OGL LOG] matrix not stored update host matrix
[OGL LOG] update_host_mtx : 19 ms
[OGL LOG] matrix is not yet sorted, sorting host matrix
[OGL LOG] sort_host_mtx_sparsity_pattern : 17 ms
[OGL LOG] sort_host_mtx : 10 ms
[OGL LOG] init_preconditioner : 0 ms
[OGL LOG] solve : 71 ms
nonehipGKOIR:  Solving for p, Initial residual = 0.0542653, Final residual = 1.13189e-05, No Iterations 2
linear solve p 167769
time step continuity errors : sum local = 6.4736e-09, global = 1.3438e-20, cumulative = 3.0592e-20
[OGL LOG] init_host_sparsity_pattern : 46 ms
[OGL LOG] matrix not stored update host matrix
[OGL LOG] update_host_mtx : 21 ms
[OGL LOG] matrix is not yet sorted, sorting host matrix
[OGL LOG] sort_host_mtx_sparsity_pattern : 18 ms
[OGL LOG] sort_host_mtx : 10 ms
[OGL LOG] init_preconditioner : 0 ms
[OGL LOG] solve : 65 ms
nonehipGKOIR:  Solving for p, Initial residual = 0.0446578, Final residual = 9.82964e-06, No Iterations 2
linear solve p 171477
time step continuity errors : sum local = 5.6332e-09, global = 8.59968e-21, cumulative = 3.91917e-20
ExecutionTime = 4.62 s  ClockTime = 4 s

Time = 0.006

Courant Number mean: 0.0537211 max: 0.394649
DILUPBiCGStab:  Solving for Ux, Initial residual = 0.0187082, Final residual = 1.4834e-07, No Iterations 5
DILUPBiCGStab:  Solving for Uy, Initial residual = 0.034318, Final residual = 3.02903e-07, No Iterations 5
DILUPBiCGStab:  Solving for Uz, Initial residual = 0.0586907, Final residual = 9.50045e-07, No Iterations 5
linear solve U 67764
[OGL LOG] init_host_sparsity_pattern : 41 ms
[OGL LOG] matrix not stored update host matrix
[OGL LOG] update_host_mtx : 20 ms
[OGL LOG] matrix is not yet sorted, sorting host matrix
[OGL LOG] sort_host_mtx_sparsity_pattern : 17 ms
[OGL LOG] sort_host_mtx : 10 ms
[OGL LOG] init_preconditioner : 0 ms
[OGL LOG] solve : 64 ms
nonehipGKOIR:  Solving for p, Initial residual = 0.0352693, Final residual = 7.95247e-06, No Iterations 2
linear solve p 160876
time step continuity errors : sum local = 4.53308e-09, global = -4.75525e-21, cumulative = 3.44364e-20
[OGL LOG] init_host_sparsity_pattern : 42 ms
[OGL LOG] matrix not stored update host matrix
[OGL LOG] update_host_mtx : 20 ms
[OGL LOG] matrix is not yet sorted, sorting host matrix
[OGL LOG] sort_host_mtx_sparsity_pattern : 17 ms
[OGL LOG] sort_host_mtx : 10 ms
[OGL LOG] init_preconditioner : 0 ms
[OGL LOG] solve : 64 ms
nonehipGKOIR:  Solving for p, Initial residual = 0.0292367, Final residual = 6.06503e-06, No Iterations 2
linear solve p 162484
time step continuity errors : sum local = 3.47232e-09, global = 1.4545e-20, cumulative = 4.89815e-20
ExecutionTime = 5.19 s  ClockTime = 5 s

Time = 0.007

Courant Number mean: 0.0570782 max: 0.398759
DILUPBiCGStab:  Solving for Ux, Initial residual = 0.0149051, Final residual = 9.72808e-08, No Iterations 5
DILUPBiCGStab:  Solving for Uy, Initial residual = 0.0274671, Final residual = 2.15607e-07, No Iterations 5
DILUPBiCGStab:  Solving for Uz, Initial residual = 0.048248, Final residual = 5.6837e-07, No Iterations 5
linear solve U 67664
[OGL LOG] init_host_sparsity_pattern : 44 ms
[OGL LOG] matrix not stored update host matrix
[OGL LOG] update_host_mtx : 20 ms
[OGL LOG] matrix is not yet sorted, sorting host matrix
[OGL LOG] sort_host_mtx_sparsity_pattern : 18 ms
[OGL LOG] sort_host_mtx : 10 ms
[OGL LOG] init_preconditioner : 0 ms
[OGL LOG] solve : 66 ms
nonehipGKOIR:  Solving for p, Initial residual = 0.0257465, Final residual = 4.53789e-06, No Iterations 2
linear solve p 168190
time step continuity errors : sum local = 2.59628e-09, global = -2.66954e-20, cumulative = 2.22861e-20
[OGL LOG] init_host_sparsity_pattern : 42 ms
[OGL LOG] matrix not stored update host matrix
[OGL LOG] update_host_mtx : 20 ms
[OGL LOG] matrix is not yet sorted, sorting host matrix
[OGL LOG] sort_host_mtx_sparsity_pattern : 17 ms
[OGL LOG] sort_host_mtx : 10 ms
[OGL LOG] init_preconditioner : 0 ms
[OGL LOG] solve : 66 ms
nonehipGKOIR:  Solving for p, Initial residual = 0.0219782, Final residual = 3.74616e-06, No Iterations 2
linear solve p 164183
time step continuity errors : sum local = 2.14764e-09, global = 3.8878e-21, cumulative = 2.61739e-20
ExecutionTime = 5.75 s  ClockTime = 5 s

Time = 0.008

Courant Number mean: 0.0599096 max: 0.401788
DILUPBiCGStab:  Solving for Ux, Initial residual = 0.0122628, Final residual = 7.98244e-08, No Iterations 5
DILUPBiCGStab:  Solving for Uy, Initial residual = 0.0227446, Final residual = 1.11663e-07, No Iterations 5
DILUPBiCGStab:  Solving for Uz, Initial residual = 0.0407105, Final residual = 3.99632e-07, No Iterations 5
linear solve U 70437
[OGL LOG] init_host_sparsity_pattern : 40 ms
[OGL LOG] matrix not stored update host matrix
[OGL LOG] update_host_mtx : 20 ms
[OGL LOG] matrix is not yet sorted, sorting host matrix
[OGL LOG] sort_host_mtx_sparsity_pattern : 17 ms
[OGL LOG] sort_host_mtx : 10 ms
[OGL LOG] init_preconditioner : 0 ms
[OGL LOG] solve : 66 ms
nonehipGKOIR:  Solving for p, Initial residual = 0.0195361, Final residual = 3.46429e-06, No Iterations 2
linear solve p 162260
time step continuity errors : sum local = 1.98729e-09, global = -9.39902e-21, cumulative = 1.67749e-20
[OGL LOG] init_host_sparsity_pattern : 42 ms
[OGL LOG] matrix not stored update host matrix
[OGL LOG] update_host_mtx : 20 ms
[OGL LOG] matrix is not yet sorted, sorting host matrix
[OGL LOG] sort_host_mtx_sparsity_pattern : 17 ms
[OGL LOG] sort_host_mtx : 10 ms
[OGL LOG] init_preconditioner : 0 ms
[OGL LOG] solve : 66 ms
nonehipGKOIR:  Solving for p, Initial residual = 0.0169152, Final residual = 2.99303e-06, No Iterations 2
linear solve p 163978
time step continuity errors : sum local = 1.72057e-09, global = 2.47533e-20, cumulative = 4.15282e-20
ExecutionTime = 6.32 s  ClockTime = 6 s

Time = 0.009

Courant Number mean: 0.0623368 max: 0.404135
DILUPBiCGStab:  Solving for Ux, Initial residual = 0.0103107, Final residual = 6.65213e-08, No Iterations 5
DILUPBiCGStab:  Solving for Uy, Initial residual = 0.0192368, Final residual = 9.09742e-08, No Iterations 5
DILUPBiCGStab:  Solving for Uz, Initial residual = 0.0350856, Final residual = 2.92933e-07, No Iterations 5
linear solve U 67854
[OGL LOG] init_host_sparsity_pattern : 40 ms
[OGL LOG] matrix not stored update host matrix
[OGL LOG] update_host_mtx : 20 ms
[OGL LOG] matrix is not yet sorted, sorting host matrix
[OGL LOG] sort_host_mtx_sparsity_pattern : 17 ms
[OGL LOG] sort_host_mtx : 10 ms
[OGL LOG] init_preconditioner : 0 ms
[OGL LOG] solve : 66 ms
nonehipGKOIR:  Solving for p, Initial residual = 0.0162773, Final residual = 2.64091e-06, No Iterations 2
linear solve p 162280
time step continuity errors : sum local = 1.51906e-09, global = 1.21292e-20, cumulative = 5.36575e-20
[OGL LOG] init_host_sparsity_pattern : 42 ms
[OGL LOG] matrix not stored update host matrix
[OGL LOG] update_host_mtx : 20 ms
[OGL LOG] matrix is not yet sorted, sorting host matrix
[OGL LOG] sort_host_mtx_sparsity_pattern : 17 ms
[OGL LOG] sort_host_mtx : 10 ms
[OGL LOG] init_preconditioner : 0 ms
[OGL LOG] solve : 67 ms
nonehipGKOIR:  Solving for p, Initial residual = 0.0142326, Final residual = 2.11255e-06, No Iterations 2
linear solve p 164207
time step continuity errors : sum local = 1.21699e-09, global = -1.20012e-20, cumulative = 4.16563e-20
ExecutionTime = 6.88 s  ClockTime = 6 s

Time = 0.01

Courant Number mean: 0.0644325 max: 0.406011
DILUPBiCGStab:  Solving for Ux, Initial residual = 0.00881943, Final residual = 6.13384e-08, No Iterations 5
DILUPBiCGStab:  Solving for Uy, Initial residual = 0.0165504, Final residual = 6.43574e-08, No Iterations 5
DILUPBiCGStab:  Solving for Uz, Initial residual = 0.0306345, Final residual = 2.24909e-07, No Iterations 5
linear solve U 71029
[OGL LOG] init_host_sparsity_pattern : 41 ms
[OGL LOG] matrix not stored update host matrix
[OGL LOG] update_host_mtx : 21 ms
[OGL LOG] matrix is not yet sorted, sorting host matrix
[OGL LOG] sort_host_mtx_sparsity_pattern : 17 ms
[OGL LOG] sort_host_mtx : 10 ms
[OGL LOG] init_preconditioner : 0 ms
[OGL LOG] solve : 67 ms
nonehipGKOIR:  Solving for p, Initial residual = 0.0137403, Final residual = 2.19092e-06, No Iterations 2
linear solve p 163848
time step continuity errors : sum local = 1.26322e-09, global = 1.62216e-20, cumulative = 5.78779e-20
[OGL LOG] init_host_sparsity_pattern : 42 ms
[OGL LOG] matrix not stored update host matrix
[OGL LOG] update_host_mtx : 19 ms
[OGL LOG] matrix is not yet sorted, sorting host matrix
[OGL LOG] sort_host_mtx_sparsity_pattern : 17 ms
[OGL LOG] sort_host_mtx : 16 ms
[OGL LOG] init_preconditioner : 0 ms
[OGL LOG] solve : 67 ms
nonehipGKOIR:  Solving for p, Initial residual = 0.0120457, Final residual = 1.78937e-06, No Iterations 2
linear solve p 172880
time step continuity errors : sum local = 1.03312e-09, global = -4.94642e-22, cumulative = 5.73833e-20
ExecutionTime = 7.45 s  ClockTime = 7 s

End

