/*---------------------------------------------------------------------------*\
  =========                 |
  \\      /  F ield         | OpenFOAM: The Open Source CFD Toolbox
   \\    /   O peration     | Website:  https://openfoam.org
    \\  /    A nd           | Version:  8
     \\/     M anipulation  |
\*---------------------------------------------------------------------------*/
Build  : 8-14d69e1ee166
Exec   : icoFoam
Date   : Jul 29 2021
Time   : 09:11:34
Host   : "guyot.icl.utk.edu"
PID    : 225632
I/O    : uncollated
Case   : /home/greole/code/OBR/lidDrivenCavity3D/Variation_mesh/70/Variation_matrix_solver/BiCGStab_BJ_CUDA/base
nProcs : 1
sigFpe : Enabling floating point exception trapping (FOAM_SIGFPE).
fileModificationChecking : Monitoring run-time modified files using timeStampMaster (fileModificationSkew 10)
allowSystemOperations : Allowing user-supplied system call operations

// * * * * * * * * * * * * * * * * * * * * * * * * * * * * * * * * * * * * * //
Create time

Create mesh for time = 0

Reading transportProperties

Reading field p

Reading field U

Reading/calculating face flux field phi


Starting time loop

Time = 0.001

Courant Number mean: 0 max: 0
DILUPBiCGStab:  Solving for Ux, Initial residual = 1, Final residual = 0.00143011, No Iterations 5
DILUPBiCGStab:  Solving for Uy:  solution singularity
DILUPBiCGStab:  Solving for Uz:  solution singularity
linear solve U 130497
[OGL LOG] init_host_sparsity_pattern : 156 ms
[OGL LOG] matrix not stored update host matrix
[OGL LOG] update_host_mtx : 81 ms
[OGL LOG] matrix is not yet sorted, compute sorting idxs
[OGL LOG] compute_sort : 3415 ms
[OGL LOG] matrix is not yet sorted, sorting host matrix
[OGL LOG] sort_host_mtx_sparsity_pattern : 63 ms
[OGL LOG] sort_host_mtx : 39 ms
[OGL LOG] init_preconditioner : 53 ms
[OGL LOG] solve : 598 ms
BJcudaGKOBiCGStab:  Solving for p, Initial residual = 1, Final residual = 3.85806e-05, No Iterations 339
linear solve p 6103479
time step continuity errors : sum local = 0.0133477, global = 1.15991e-17, cumulative = 1.15991e-17
[OGL LOG] init_host_sparsity_pattern : 150 ms
[OGL LOG] matrix not stored update host matrix
[OGL LOG] update_host_mtx : 79 ms
[OGL LOG] matrix is not yet sorted, sorting host matrix
[OGL LOG] sort_host_mtx_sparsity_pattern : 65 ms
[OGL LOG] sort_host_mtx : 37 ms
[OGL LOG] init_preconditioner : 0 ms
[OGL LOG] solve : 259 ms
BJcudaGKOBiCGStab:  Solving for p, Initial residual = 0.988369, Final residual = 3.08442e-05, No Iterations 147
linear solve p 614363
time step continuity errors : sum local = 2.39204e-05, global = 1.64883e-20, cumulative = 1.16156e-17
ExecutionTime = 8.38 s  ClockTime = 8 s

Time = 0.002

Courant Number mean: 0.0396829 max: 0.54172
DILUPBiCGStab:  Solving for Ux, Initial residual = 0.156202, Final residual = 0.00046411, No Iterations 5
DILUPBiCGStab:  Solving for Uy, Initial residual = 0.395151, Final residual = 0.00153384, No Iterations 5
DILUPBiCGStab:  Solving for Uz, Initial residual = 0.879239, Final residual = 0.00474968, No Iterations 5
linear solve U 260592
[OGL LOG] init_host_sparsity_pattern : 150 ms
[OGL LOG] matrix not stored update host matrix
[OGL LOG] update_host_mtx : 80 ms
[OGL LOG] matrix is not yet sorted, sorting host matrix
[OGL LOG] sort_host_mtx_sparsity_pattern : 63 ms
[OGL LOG] sort_host_mtx : 37 ms
[OGL LOG] init_preconditioner : 0 ms
[OGL LOG] solve : 492 ms
BJcudaGKOBiCGStab:  Solving for p, Initial residual = 0.995214, Final residual = 9.51055e-05, No Iterations 285
linear solve p 847223
time step continuity errors : sum local = 0.217405, global = 2.06789e-16, cumulative = 2.18405e-16
[OGL LOG] init_host_sparsity_pattern : 147 ms
[OGL LOG] matrix not stored update host matrix
[OGL LOG] update_host_mtx : 80 ms
[OGL LOG] matrix is not yet sorted, sorting host matrix
[OGL LOG] sort_host_mtx_sparsity_pattern : 63 ms
[OGL LOG] sort_host_mtx : 37 ms
[OGL LOG] init_preconditioner : 0 ms
[OGL LOG] solve : 238 ms
BJcudaGKOBiCGStab:  Solving for p, Initial residual = 0.878298, Final residual = 9.70334e-05, No Iterations 136
linear solve p 589167
time step continuity errors : sum local = 9.02432e-05, global = 1.06024e-20, cumulative = 2.18415e-16
ExecutionTime = 10.23 s  ClockTime = 10 s

Time = 0.003

Courant Number mean: 0.100252 max: 1.68586
DILUPBiCGStab:  Solving for Ux, Initial residual = 0.128245, Final residual = 0.000455726, No Iterations 5
DILUPBiCGStab:  Solving for Uy, Initial residual = 0.475881, Final residual = 0.00350932, No Iterations 5
DILUPBiCGStab:  Solving for Uz, Initial residual = 0.855494, Final residual = 0.00463752, No Iterations 5
linear solve U 265107
[OGL LOG] init_host_sparsity_pattern : 150 ms
[OGL LOG] matrix not stored update host matrix
[OGL LOG] update_host_mtx : 77 ms
[OGL LOG] matrix is not yet sorted, sorting host matrix
[OGL LOG] sort_host_mtx_sparsity_pattern : 63 ms
[OGL LOG] sort_host_mtx : 37 ms
[OGL LOG] init_preconditioner : 0 ms
[OGL LOG] solve : 501 ms
BJcudaGKOBiCGStab:  Solving for p, Initial residual = 0.998383, Final residual = 9.99397e-05, No Iterations 288
linear solve p 851836
time step continuity errors : sum local = 0.110341, global = -9.16983e-17, cumulative = 1.26717e-16
[OGL LOG] init_host_sparsity_pattern : 151 ms
[OGL LOG] matrix not stored update host matrix
[OGL LOG] update_host_mtx : 78 ms
[OGL LOG] matrix is not yet sorted, sorting host matrix
[OGL LOG] sort_host_mtx_sparsity_pattern : 63 ms
[OGL LOG] sort_host_mtx : 37 ms
[OGL LOG] init_preconditioner : 0 ms
[OGL LOG] solve : 240 ms
BJcudaGKOBiCGStab:  Solving for p, Initial residual = 0.850651, Final residual = 9.78878e-05, No Iterations 136
linear solve p 593906
time step continuity errors : sum local = 0.000135558, global = 1.15153e-19, cumulative = 1.26832e-16
ExecutionTime = 12.09 s  ClockTime = 12 s

Time = 0.004

Courant Number mean: 0.753154 max: 9.2355
DILUPBiCGStab:  Solving for Ux, Initial residual = 0.647246, Final residual = 0.00198462, No Iterations 5
DILUPBiCGStab:  Solving for Uy, Initial residual = 0.860105, Final residual = 0.0030627, No Iterations 5
DILUPBiCGStab:  Solving for Uz, Initial residual = 0.815331, Final residual = 0.00327088, No Iterations 5
linear solve U 264394
[OGL LOG] init_host_sparsity_pattern : 150 ms
[OGL LOG] matrix not stored update host matrix
[OGL LOG] update_host_mtx : 77 ms
[OGL LOG] matrix is not yet sorted, sorting host matrix
[OGL LOG] sort_host_mtx_sparsity_pattern : 66 ms
[OGL LOG] sort_host_mtx : 38 ms
[OGL LOG] init_preconditioner : 0 ms
[OGL LOG] solve : 593 ms
BJcudaGKOBiCGStab:  Solving for p, Initial residual = 0.980283, Final residual = 1.44942e-05, No Iterations 344
linear solve p 948633
time step continuity errors : sum local = 2.34035, global = 8.00941e-17, cumulative = 2.06926e-16
[OGL LOG] init_host_sparsity_pattern : 150 ms
[OGL LOG] matrix not stored update host matrix
[OGL LOG] update_host_mtx : 80 ms
[OGL LOG] matrix is not yet sorted, sorting host matrix
[OGL LOG] sort_host_mtx_sparsity_pattern : 63 ms
[OGL LOG] sort_host_mtx : 38 ms
[OGL LOG] init_preconditioner : 0 ms
[OGL LOG] solve : 205 ms
BJcudaGKOBiCGStab:  Solving for p, Initial residual = 0.83989, Final residual = 9.43602e-05, No Iterations 116
linear solve p 560620
time step continuity errors : sum local = 0.000502542, global = -2.87108e-18, cumulative = 2.04055e-16
ExecutionTime = 14.02 s  ClockTime = 14 s

Time = 0.005

Courant Number mean: 0.507841 max: 21.7374
DILUPBiCGStab:  Solving for Ux, Initial residual = 0.470118, Final residual = 0.00169545, No Iterations 5
DILUPBiCGStab:  Solving for Uy, Initial residual = 0.629872, Final residual = 0.0040643, No Iterations 5
DILUPBiCGStab:  Solving for Uz, Initial residual = 0.856815, Final residual = 0.00429299, No Iterations 5
linear solve U 264814
[OGL LOG] init_host_sparsity_pattern : 150 ms
[OGL LOG] matrix not stored update host matrix
[OGL LOG] update_host_mtx : 77 ms
[OGL LOG] matrix is not yet sorted, sorting host matrix
[OGL LOG] sort_host_mtx_sparsity_pattern : 63 ms
[OGL LOG] sort_host_mtx : 37 ms
[OGL LOG] init_preconditioner : 0 ms
[OGL LOG] solve : 530 ms
BJcudaGKOBiCGStab:  Solving for p, Initial residual = 0.996699, Final residual = 9.24597e-05, No Iterations 304
linear solve p 881762
time step continuity errors : sum local = 2.02423, global = 3.31077e-16, cumulative = 5.35132e-16
[OGL LOG] init_host_sparsity_pattern : 150 ms
[OGL LOG] matrix not stored update host matrix
[OGL LOG] update_host_mtx : 80 ms
[OGL LOG] matrix is not yet sorted, sorting host matrix
[OGL LOG] sort_host_mtx_sparsity_pattern : 67 ms
[OGL LOG] sort_host_mtx : 39 ms
[OGL LOG] init_preconditioner : 0 ms
[OGL LOG] solve : 209 ms
BJcudaGKOBiCGStab:  Solving for p, Initial residual = 0.828169, Final residual = 9.80655e-05, No Iterations 119
linear solve p 569369
time step continuity errors : sum local = 0.00151815, global = 4.20663e-18, cumulative = 5.39339e-16
ExecutionTime = 15.88 s  ClockTime = 16 s

Time = 0.006

Courant Number mean: 7.26913 max: 97.9274
DILUPBiCGStab:  Solving for Ux, Initial residual = 0.79724, Final residual = 0.21141, No Iterations 5
DILUPBiCGStab:  Solving for Uy, Initial residual = 0.812398, Final residual = 0.161058, No Iterations 5
DILUPBiCGStab:  Solving for Uz, Initial residual = 0.802962, Final residual = 0.233304, No Iterations 5
linear solve U 265441
[OGL LOG] init_host_sparsity_pattern : 150 ms
[OGL LOG] matrix not stored update host matrix
[OGL LOG] update_host_mtx : 80 ms
[OGL LOG] matrix is not yet sorted, sorting host matrix
[OGL LOG] sort_host_mtx_sparsity_pattern : 65 ms
[OGL LOG] sort_host_mtx : 38 ms
[OGL LOG] init_preconditioner : 0 ms
[OGL LOG] solve : 715 ms
BJcudaGKOBiCGStab:  Solving for p, Initial residual = 0.930661, Final residual = 9.43953e-05, No Iterations 411
linear solve p 1072101
time step continuity errors : sum local = 0.237782, global = -3.57388e-17, cumulative = 5.036e-16
[OGL LOG] init_host_sparsity_pattern : 151 ms
[OGL LOG] matrix not stored update host matrix
[OGL LOG] update_host_mtx : 80 ms
[OGL LOG] matrix is not yet sorted, sorting host matrix
[OGL LOG] sort_host_mtx_sparsity_pattern : 66 ms
[OGL LOG] sort_host_mtx : 40 ms
[OGL LOG] init_preconditioner : 0 ms
[OGL LOG] solve : 680 ms
BJcudaGKOBiCGStab:  Solving for p, Initial residual = 0.862764, Final residual = 6.56846e-05, No Iterations 392
linear solve p 1043056
time step continuity errors : sum local = 1.12968, global = 7.77073e-16, cumulative = 1.28067e-15
ExecutionTime = 18.41 s  ClockTime = 18 s

Time = 0.007

Courant Number mean: 17.6822 max: 238.881
DILUPBiCGStab:  Solving for Ux, Initial residual = 0.817391, Final residual = 3.55335, No Iterations 5
DILUPBiCGStab:  Solving for Uy, Initial residual = 0.810508, Final residual = 5.62272, No Iterations 5
DILUPBiCGStab:  Solving for Uz, Initial residual = 0.821885, Final residual = 5.04152, No Iterations 5
linear solve U 264621
[OGL LOG] init_host_sparsity_pattern : 150 ms
[OGL LOG] matrix not stored update host matrix
[OGL LOG] update_host_mtx : 80 ms
[OGL LOG] matrix is not yet sorted, sorting host matrix
[OGL LOG] sort_host_mtx_sparsity_pattern : 63 ms
[OGL LOG] sort_host_mtx : 38 ms
[OGL LOG] init_preconditioner : 0 ms
[OGL LOG] solve : 5184 ms
BJcudaGKOBiCGStab:  Solving for p, Initial residual = 0.978161, Final residual = 0.012049, No Iterations 3000
linear solve p 5540070
time step continuity errors : sum local = 0.848687, global = 1.30877e-14, cumulative = 1.43684e-14
[OGL LOG] init_host_sparsity_pattern : 151 ms
[OGL LOG] matrix not stored update host matrix
[OGL LOG] update_host_mtx : 80 ms
[OGL LOG] matrix is not yet sorted, sorting host matrix
[OGL LOG] sort_host_mtx_sparsity_pattern : 63 ms
[OGL LOG] sort_host_mtx : 39 ms
[OGL LOG] init_preconditioner : 0 ms
[OGL LOG] solve : 5200 ms
BJcudaGKOBiCGStab:  Solving for p, Initial residual = 0.98848, Final residual = 0.00887932, No Iterations 3000
linear solve p 5558449
time step continuity errors : sum local = 60.6094, global = -3.05126e-13, cumulative = -2.90757e-13
ExecutionTime = 29.93 s  ClockTime = 30 s

Time = 0.008

Courant Number mean: 1.58988e+06 max: 1.9943e+09
DILUPBiCGStab:  Solving for Ux, Initial residual = 0.999999, Final residual = 4.70483e+07, No Iterations 5
DILUPBiCGStab:  Solving for Uy, Initial residual = 1, Final residual = 1.20464e+08, No Iterations 5
DILUPBiCGStab:  Solving for Uz, Initial residual = 1, Final residual = 1.21692e+08, No Iterations 5
linear solve U 266026
[OGL LOG] init_host_sparsity_pattern : 150 ms
[OGL LOG] matrix not stored update host matrix
[OGL LOG] update_host_mtx : 77 ms
[OGL LOG] matrix is not yet sorted, sorting host matrix
[OGL LOG] sort_host_mtx_sparsity_pattern : 63 ms
[OGL LOG] sort_host_mtx : 37 ms
[OGL LOG] init_preconditioner : 0 ms
[OGL LOG] solve : 5126 ms
BJcudaGKOBiCGStab:  Solving for p, Initial residual = 1, Final residual = 1.04261, No Iterations 3000
linear solve p 5478961
time step continuity errors : sum local = 4.70488e+20, global = 341032, cumulative = 341032
[OGL LOG] init_host_sparsity_pattern : 151 ms
[OGL LOG] matrix not stored update host matrix
[OGL LOG] update_host_mtx : 78 ms
[OGL LOG] matrix is not yet sorted, sorting host matrix
[OGL LOG] sort_host_mtx_sparsity_pattern : 63 ms
[OGL LOG] sort_host_mtx : 39 ms
[OGL LOG] init_preconditioner : 0 ms
[OGL LOG] solve : 5174 ms
BJcudaGKOBiCGStab:  Solving for p, Initial residual = 0.999995, Final residual = 0.844194, No Iterations 3000
linear solve p 5528948
time step continuity errors : sum local = 1.7398e+26, global = -3.16353e+10, cumulative = -3.1635e+10
ExecutionTime = 41.35 s  ClockTime = 41 s

Time = 0.009

Courant Number mean: 4.50941e+26 max: 3.63377e+30
DILUPBiCGStab:  Solving for Ux, Initial residual = 0.999972, Final residual = 7.78603e+06, No Iterations 5
DILUPBiCGStab:  Solving for Uy, Initial residual = 0.999972, Final residual = 5.5762e+06, No Iterations 5
DILUPBiCGStab:  Solving for Uz, Initial residual = 0.999976, Final residual = 2.21533e+06, No Iterations 5
linear solve U 269051
[OGL LOG] init_host_sparsity_pattern : 150 ms
[OGL LOG] matrix not stored update host matrix
[OGL LOG] update_host_mtx : 78 ms
[OGL LOG] matrix is not yet sorted, sorting host matrix
[OGL LOG] sort_host_mtx_sparsity_pattern : 64 ms
[OGL LOG] sort_host_mtx : 38 ms
[OGL LOG] init_preconditioner : 0 ms
[OGL LOG] solve : 5172 ms
BJcudaGKOBiCGStab:  Solving for p, Initial residual = 1, Final residual = 48.7219, No Iterations 3000
linear solve p 5527718
time step continuity errors : sum local = 8.36187e+45, global = 1.37026e+30, cumulative = 1.37026e+30
[OGL LOG] init_host_sparsity_pattern : 151 ms
[OGL LOG] matrix not stored update host matrix
[OGL LOG] update_host_mtx : 80 ms
[OGL LOG] matrix is not yet sorted, sorting host matrix
[OGL LOG] sort_host_mtx_sparsity_pattern : 63 ms
[OGL LOG] sort_host_mtx : 38 ms
[OGL LOG] init_preconditioner : 0 ms
[OGL LOG] solve : 5150 ms
BJcudaGKOBiCGStab:  Solving for p, Initial residual = 0.977302, Final residual = 1.29151, No Iterations 3000
linear solve p 5506270
time step continuity errors : sum local = 2.66929e+47, global = 8.49338e+30, cumulative = 9.86364e+30
ExecutionTime = 52.81 s  ClockTime = 53 s

Time = 0.01

Courant Number mean: 4.76467e+47 max: 9.3517e+51
DILUPBiCGStab:  Solving for Ux, Initial residual = 0.999946, Final residual = 3.31683, No Iterations 5
DILUPBiCGStab:  Solving for Uy, Initial residual = 0.999987, Final residual = 12.2562, No Iterations 5
DILUPBiCGStab:  Solving for Uz, Initial residual = 0.999999, Final residual = 20.8623, No Iterations 5
linear solve U 264888
[OGL LOG] init_host_sparsity_pattern : 150 ms
[OGL LOG] matrix not stored update host matrix
[OGL LOG] update_host_mtx : 78 ms
[OGL LOG] matrix is not yet sorted, sorting host matrix
[OGL LOG] sort_host_mtx_sparsity_pattern : 64 ms
[OGL LOG] sort_host_mtx : 38 ms
[OGL LOG] init_preconditioner : 0 ms
[OGL LOG] solve : 5167 ms
BJcudaGKOBiCGStab:  Solving for p, Initial residual = 1, Final residual = 199256, No Iterations 3000
linear solve p 5520678
time step continuity errors : sum local = 4.82952e+66, global = 1.25394e+50, cumulative = 1.25394e+50
[OGL LOG] init_host_sparsity_pattern : 151 ms
[OGL LOG] matrix not stored update host matrix
[OGL LOG] update_host_mtx : 77 ms
[OGL LOG] matrix is not yet sorted, sorting host matrix
[OGL LOG] sort_host_mtx_sparsity_pattern : 63 ms
[OGL LOG] sort_host_mtx : 37 ms
[OGL LOG] init_preconditioner : 0 ms
[OGL LOG] solve : 5096 ms
BJcudaGKOBiCGStab:  Solving for p, Initial residual = 0.931666, Final residual = 0.0169489, No Iterations 3000
linear solve p 5449331
time step continuity errors : sum local = 1.32933e+65, global = -1.42823e+49, cumulative = 1.11112e+50
ExecutionTime = 64.19 s  ClockTime = 64 s

End

