/*---------------------------------------------------------------------------*\
  =========                 |
  \\      /  F ield         | OpenFOAM: The Open Source CFD Toolbox
   \\    /   O peration     | Website:  https://openfoam.org
    \\  /    A nd           | Version:  8
     \\/     M anipulation  |
\*---------------------------------------------------------------------------*/
Build  : 8-40a5a48f630f
Exec   : icoFoam
Date   : Jul 28 2021
Time   : 12:15:32
Host   : "uc2n446.localdomain"
PID    : 410131
I/O    : uncollated
Case   : /pfs/data5/home/kit/scc/nq7776/code/OBR/lidDrivenCavity3D/Variation_mesh/25/Variation_matrix_solver/BiCGStab_NoPrecond_OMP/base
nProcs : 1
sigFpe : Enabling floating point exception trapping (FOAM_SIGFPE).
fileModificationChecking : Monitoring run-time modified files using timeStampMaster (fileModificationSkew 10)
allowSystemOperations : Allowing user-supplied system call operations

// * * * * * * * * * * * * * * * * * * * * * * * * * * * * * * * * * * * * * //
Create time

Create mesh for time = 0

Reading transportProperties

Reading field p

Reading field U

Reading/calculating face flux field phi


Starting time loop

Time = 0.001

Courant Number mean: 0 max: 0
nonePBiCGStab:  Solving for Ux, Initial residual = 1, Final residual = 0.00310183, No Iterations 5
nonePBiCGStab:  Solving for Uy, Initial residual = 0, Final residual = 0, No Iterations 0
nonePBiCGStab:  Solving for Uz, Initial residual = 0, Final residual = 0, No Iterations 0
linear solve U 2
[OGL LOG] init_host_sparsity_pattern : 4 ms
[OGL LOG] matrix not stored update host matrix
[OGL LOG] update_host_mtx : 2 ms
[OGL LOG] matrix is not yet sorted, compute sorting idxs
[OGL LOG] compute_sort : 105 ms
[OGL LOG] matrix is not yet sorted, sorting host matrix
[OGL LOG] sort_host_mtx_sparsity_pattern : 3 ms
[OGL LOG] sort_host_mtx : 1 ms
[OGL LOG] init_preconditioner : 0 ms
[OGL LOG] solve : 60 ms
noneompGKOBiCGStab:  Solving for p, Initial residual = 1, Final residual = 7.67433e-05, No Iterations 160
linear solve p 183
time step continuity errors : sum local = 3.87646e-07, global = -1.89209e-20, cumulative = -1.89209e-20
[OGL LOG] init_host_sparsity_pattern : 5 ms
[OGL LOG] matrix not stored update host matrix
[OGL LOG] update_host_mtx : 2 ms
[OGL LOG] matrix is not yet sorted, sorting host matrix
[OGL LOG] sort_host_mtx_sparsity_pattern : 3 ms
[OGL LOG] sort_host_mtx : 1 ms
[OGL LOG] init_preconditioner : 0 ms
[OGL LOG] solve : 57 ms
noneompGKOBiCGStab:  Solving for p, Initial residual = 0.480875, Final residual = 8.70951e-05, No Iterations 153
linear solve p 71
time step continuity errors : sum local = 3.86923e-07, global = 6.58038e-21, cumulative = -1.23406e-20
ExecutionTime = 2.73 s  ClockTime = 1 s

Time = 0.002

Courant Number mean: 0.011971 max: 0.106554
nonePBiCGStab:  Solving for Ux, Initial residual = 0.210818, Final residual = 0.000695188, No Iterations 5
nonePBiCGStab:  Solving for Uy, Initial residual = 0.284547, Final residual = 0.000650372, No Iterations 5
nonePBiCGStab:  Solving for Uz, Initial residual = 0.877456, Final residual = 0.00340051, No Iterations 5
linear solve U 5
[OGL LOG] init_host_sparsity_pattern : 4 ms
[OGL LOG] matrix not stored update host matrix
[OGL LOG] update_host_mtx : 2 ms
[OGL LOG] matrix is not yet sorted, sorting host matrix
[OGL LOG] sort_host_mtx_sparsity_pattern : 3 ms
[OGL LOG] sort_host_mtx : 1 ms
[OGL LOG] init_preconditioner : 0 ms
[OGL LOG] solve : 55 ms
noneompGKOBiCGStab:  Solving for p, Initial residual = 0.286169, Final residual = 9.36483e-05, No Iterations 149
linear solve p 68
time step continuity errors : sum local = 2.85564e-06, global = -1.40921e-21, cumulative = -1.37498e-20
[OGL LOG] init_host_sparsity_pattern : 4 ms
[OGL LOG] matrix not stored update host matrix
[OGL LOG] update_host_mtx : 2 ms
[OGL LOG] matrix is not yet sorted, sorting host matrix
[OGL LOG] sort_host_mtx_sparsity_pattern : 3 ms
[OGL LOG] sort_host_mtx : 1 ms
[OGL LOG] init_preconditioner : 0 ms
[OGL LOG] solve : 53 ms
noneompGKOBiCGStab:  Solving for p, Initial residual = 0.191702, Final residual = 8.5626e-05, No Iterations 143
linear solve p 66
time step continuity errors : sum local = 3.62495e-06, global = -1.22782e-20, cumulative = -2.60279e-20
ExecutionTime = 5.14 s  ClockTime = 1 s

Time = 0.003

Courant Number mean: 0.0188471 max: 0.153564
nonePBiCGStab:  Solving for Ux, Initial residual = 0.0899974, Final residual = 0.000293869, No Iterations 5
nonePBiCGStab:  Solving for Uy, Initial residual = 0.124939, Final residual = 0.000207943, No Iterations 5
nonePBiCGStab:  Solving for Uz, Initial residual = 0.276117, Final residual = 0.000855721, No Iterations 5
linear solve U 6
[OGL LOG] init_host_sparsity_pattern : 4 ms
[OGL LOG] matrix not stored update host matrix
[OGL LOG] update_host_mtx : 2 ms
[OGL LOG] matrix is not yet sorted, sorting host matrix
[OGL LOG] sort_host_mtx_sparsity_pattern : 3 ms
[OGL LOG] sort_host_mtx : 1 ms
[OGL LOG] init_preconditioner : 0 ms
[OGL LOG] solve : 53 ms
noneompGKOBiCGStab:  Solving for p, Initial residual = 0.107309, Final residual = 4.02447e-05, No Iterations 142
linear solve p 65
time step continuity errors : sum local = 9.7356e-07, global = -6.71898e-21, cumulative = -3.27469e-20
[OGL LOG] init_host_sparsity_pattern : 4 ms
[OGL LOG] matrix not stored update host matrix
[OGL LOG] update_host_mtx : 2 ms
[OGL LOG] matrix is not yet sorted, sorting host matrix
[OGL LOG] sort_host_mtx_sparsity_pattern : 3 ms
[OGL LOG] sort_host_mtx : 1 ms
[OGL LOG] init_preconditioner : 0 ms
[OGL LOG] solve : 48 ms
noneompGKOBiCGStab:  Solving for p, Initial residual = 0.0717919, Final residual = 9.87344e-05, No Iterations 130
linear solve p 61
time step continuity errors : sum local = 1.97037e-07, global = 8.64239e-21, cumulative = -2.41045e-20
ExecutionTime = 7.39 s  ClockTime = 1 s

Time = 0.004

Courant Number mean: 0.0233145 max: 0.175118
nonePBiCGStab:  Solving for Ux, Initial residual = 0.0521051, Final residual = 9.91871e-05, No Iterations 5
nonePBiCGStab:  Solving for Uy, Initial residual = 0.0743148, Final residual = 6.26203e-05, No Iterations 5
nonePBiCGStab:  Solving for Uz, Initial residual = 0.132158, Final residual = 0.000469754, No Iterations 5
linear solve U 6
[OGL LOG] init_host_sparsity_pattern : 4 ms
[OGL LOG] matrix not stored update host matrix
[OGL LOG] update_host_mtx : 2 ms
[OGL LOG] matrix is not yet sorted, sorting host matrix
[OGL LOG] sort_host_mtx_sparsity_pattern : 3 ms
[OGL LOG] sort_host_mtx : 1 ms
[OGL LOG] init_preconditioner : 0 ms
[OGL LOG] solve : 19 ms
noneompGKOBiCGStab:  Solving for p, Initial residual = 0.0561867, Final residual = 9.75209e-05, No Iterations 54
linear solve p 32
time step continuity errors : sum local = 8.16594e-08, global = -6.09591e-21, cumulative = -3.02004e-20
[OGL LOG] init_host_sparsity_pattern : 4 ms
[OGL LOG] matrix not stored update host matrix
[OGL LOG] update_host_mtx : 2 ms
[OGL LOG] matrix is not yet sorted, sorting host matrix
[OGL LOG] sort_host_mtx_sparsity_pattern : 3 ms
[OGL LOG] sort_host_mtx : 1 ms
[OGL LOG] init_preconditioner : 0 ms
[OGL LOG] solve : 19 ms
noneompGKOBiCGStab:  Solving for p, Initial residual = 0.0372487, Final residual = 9.29395e-05, No Iterations 55
linear solve p 32
time step continuity errors : sum local = 1.15304e-07, global = 3.05964e-20, cumulative = 3.95963e-22
ExecutionTime = 8.4 s  ClockTime = 1 s

Time = 0.005

Courant Number mean: 0.0264937 max: 0.186504
nonePBiCGStab:  Solving for Ux, Initial residual = 0.0351451, Final residual = 3.82402e-05, No Iterations 5
nonePBiCGStab:  Solving for Uy, Initial residual = 0.0508251, Final residual = 2.92213e-05, No Iterations 5
nonePBiCGStab:  Solving for Uz, Initial residual = 0.0919708, Final residual = 0.000168332, No Iterations 5
linear solve U 5
[OGL LOG] init_host_sparsity_pattern : 4 ms
[OGL LOG] matrix not stored update host matrix
[OGL LOG] update_host_mtx : 2 ms
[OGL LOG] matrix is not yet sorted, sorting host matrix
[OGL LOG] sort_host_mtx_sparsity_pattern : 2 ms
[OGL LOG] sort_host_mtx : 1 ms
[OGL LOG] init_preconditioner : 0 ms
[OGL LOG] solve : 19 ms
noneompGKOBiCGStab:  Solving for p, Initial residual = 0.0351621, Final residual = 8.53031e-05, No Iterations 53
linear solve p 31
time step continuity errors : sum local = 7.49338e-08, global = 2.64284e-21, cumulative = 3.03881e-21
[OGL LOG] init_host_sparsity_pattern : 4 ms
[OGL LOG] matrix not stored update host matrix
[OGL LOG] update_host_mtx : 2 ms
[OGL LOG] matrix is not yet sorted, sorting host matrix
[OGL LOG] sort_host_mtx_sparsity_pattern : 2 ms
[OGL LOG] sort_host_mtx : 1 ms
[OGL LOG] init_preconditioner : 0 ms
[OGL LOG] solve : 18 ms
noneompGKOBiCGStab:  Solving for p, Initial residual = 0.0232907, Final residual = 9.08527e-05, No Iterations 50
linear solve p 31
time step continuity errors : sum local = 1.25209e-07, global = -1.21104e-22, cumulative = 2.9177e-21
ExecutionTime = 9.38 s  ClockTime = 1 s

Time = 0.006

Courant Number mean: 0.0288953 max: 0.193336
nonePBiCGStab:  Solving for Ux, Initial residual = 0.0259392, Final residual = 1.48433e-05, No Iterations 5
nonePBiCGStab:  Solving for Uy, Initial residual = 0.0380185, Final residual = 1.64786e-05, No Iterations 5
nonePBiCGStab:  Solving for Uz, Initial residual = 0.0709153, Final residual = 6.95434e-05, No Iterations 5
linear solve U 5
[OGL LOG] init_host_sparsity_pattern : 4 ms
[OGL LOG] matrix not stored update host matrix
[OGL LOG] update_host_mtx : 2 ms
[OGL LOG] matrix is not yet sorted, sorting host matrix
[OGL LOG] sort_host_mtx_sparsity_pattern : 2 ms
[OGL LOG] sort_host_mtx : 1 ms
[OGL LOG] init_preconditioner : 0 ms
[OGL LOG] solve : 18 ms
noneompGKOBiCGStab:  Solving for p, Initial residual = 0.0245461, Final residual = 9.75447e-05, No Iterations 52
linear solve p 30
time step continuity errors : sum local = 8.31248e-08, global = -8.68746e-21, cumulative = -5.76976e-21
[OGL LOG] init_host_sparsity_pattern : 4 ms
[OGL LOG] matrix not stored update host matrix
[OGL LOG] update_host_mtx : 2 ms
[OGL LOG] matrix is not yet sorted, sorting host matrix
[OGL LOG] sort_host_mtx_sparsity_pattern : 3 ms
[OGL LOG] sort_host_mtx : 1 ms
[OGL LOG] init_preconditioner : 0 ms
[OGL LOG] solve : 17 ms
noneompGKOBiCGStab:  Solving for p, Initial residual = 0.0164716, Final residual = 9.46595e-05, No Iterations 49
linear solve p 30
time step continuity errors : sum local = 9.48913e-08, global = -2.17562e-20, cumulative = -2.7526e-20
ExecutionTime = 10.34 s  ClockTime = 1 s

Time = 0.007

Courant Number mean: 0.0308308 max: 0.197891
nonePBiCGStab:  Solving for Ux, Initial residual = 0.0203484, Final residual = 7.03032e-06, No Iterations 5
nonePBiCGStab:  Solving for Uy, Initial residual = 0.0300529, Final residual = 9.83904e-06, No Iterations 5
nonePBiCGStab:  Solving for Uz, Initial residual = 0.0574664, Final residual = 4.46016e-05, No Iterations 5
linear solve U 5
[OGL LOG] init_host_sparsity_pattern : 4 ms
[OGL LOG] matrix not stored update host matrix
[OGL LOG] update_host_mtx : 2 ms
[OGL LOG] matrix is not yet sorted, sorting host matrix
[OGL LOG] sort_host_mtx_sparsity_pattern : 3 ms
[OGL LOG] sort_host_mtx : 1 ms
[OGL LOG] init_preconditioner : 0 ms
[OGL LOG] solve : 19 ms
noneompGKOBiCGStab:  Solving for p, Initial residual = 0.0186995, Final residual = 9.8357e-05, No Iterations 53
linear solve p 31
time step continuity errors : sum local = 8.33268e-08, global = -2.88791e-20, cumulative = -5.64051e-20
[OGL LOG] init_host_sparsity_pattern : 4 ms
[OGL LOG] matrix not stored update host matrix
[OGL LOG] update_host_mtx : 2 ms
[OGL LOG] matrix is not yet sorted, sorting host matrix
[OGL LOG] sort_host_mtx_sparsity_pattern : 3 ms
[OGL LOG] sort_host_mtx : 1 ms
[OGL LOG] init_preconditioner : 0 ms
[OGL LOG] solve : 17 ms
noneompGKOBiCGStab:  Solving for p, Initial residual = 0.0126746, Final residual = 9.71151e-05, No Iterations 47
linear solve p 29
time step continuity errors : sum local = 1.00174e-07, global = 1.20549e-21, cumulative = -5.51996e-20
ExecutionTime = 11.29 s  ClockTime = 1 s

Time = 0.008

Courant Number mean: 0.0324764 max: 0.201172
nonePBiCGStab:  Solving for Ux, Initial residual = 0.0165281, Final residual = 4.91678e-06, No Iterations 5
nonePBiCGStab:  Solving for Uy, Initial residual = 0.0246211, Final residual = 6.32049e-06, No Iterations 5
nonePBiCGStab:  Solving for Uz, Initial residual = 0.0480862, Final residual = 3.16722e-05, No Iterations 5
linear solve U 5
[OGL LOG] init_host_sparsity_pattern : 4 ms
[OGL LOG] matrix not stored update host matrix
[OGL LOG] update_host_mtx : 2 ms
[OGL LOG] matrix is not yet sorted, sorting host matrix
[OGL LOG] sort_host_mtx_sparsity_pattern : 2 ms
[OGL LOG] sort_host_mtx : 1 ms
[OGL LOG] init_preconditioner : 0 ms
[OGL LOG] solve : 18 ms
noneompGKOBiCGStab:  Solving for p, Initial residual = 0.0150436, Final residual = 9.96953e-05, No Iterations 52
linear solve p 31
time step continuity errors : sum local = 8.91121e-08, global = -3.60914e-20, cumulative = -9.1291e-20
[OGL LOG] init_host_sparsity_pattern : 4 ms
[OGL LOG] matrix not stored update host matrix
[OGL LOG] update_host_mtx : 2 ms
[OGL LOG] matrix is not yet sorted, sorting host matrix
[OGL LOG] sort_host_mtx_sparsity_pattern : 2 ms
[OGL LOG] sort_host_mtx : 1 ms
[OGL LOG] init_preconditioner : 0 ms
[OGL LOG] solve : 16 ms
noneompGKOBiCGStab:  Solving for p, Initial residual = 0.0102805, Final residual = 7.79563e-05, No Iterations 46
linear solve p 29
time step continuity errors : sum local = 1.4044e-07, global = -2.41768e-20, cumulative = -1.15468e-19
ExecutionTime = 12.21 s  ClockTime = 1 s

Time = 0.009

Courant Number mean: 0.0338807 max: 0.203668
nonePBiCGStab:  Solving for Ux, Initial residual = 0.0137901, Final residual = 3.20734e-06, No Iterations 5
nonePBiCGStab:  Solving for Uy, Initial residual = 0.0207008, Final residual = 4.22925e-06, No Iterations 5
nonePBiCGStab:  Solving for Uz, Initial residual = 0.0411863, Final residual = 2.1238e-05, No Iterations 5
linear solve U 5
[OGL LOG] init_host_sparsity_pattern : 4 ms
[OGL LOG] matrix not stored update host matrix
[OGL LOG] update_host_mtx : 2 ms
[OGL LOG] matrix is not yet sorted, sorting host matrix
[OGL LOG] sort_host_mtx_sparsity_pattern : 2 ms
[OGL LOG] sort_host_mtx : 1 ms
[OGL LOG] init_preconditioner : 0 ms
[OGL LOG] solve : 18 ms
noneompGKOBiCGStab:  Solving for p, Initial residual = 0.0126566, Final residual = 8.21635e-05, No Iterations 52
linear solve p 30
time step continuity errors : sum local = 7.72847e-08, global = 1.4255e-20, cumulative = -1.01213e-19
[OGL LOG] init_host_sparsity_pattern : 4 ms
[OGL LOG] matrix not stored update host matrix
[OGL LOG] update_host_mtx : 2 ms
[OGL LOG] matrix is not yet sorted, sorting host matrix
[OGL LOG] sort_host_mtx_sparsity_pattern : 2 ms
[OGL LOG] sort_host_mtx : 1 ms
[OGL LOG] init_preconditioner : 0 ms
[OGL LOG] solve : 16 ms
noneompGKOBiCGStab:  Solving for p, Initial residual = 0.00866923, Final residual = 5.75106e-05, No Iterations 46
linear solve p 29
time step continuity errors : sum local = 5.08308e-08, global = 1.51428e-20, cumulative = -8.60699e-20
ExecutionTime = 13.15 s  ClockTime = 1 s

Time = 0.01

Courant Number mean: 0.0350919 max: 0.205642
nonePBiCGStab:  Solving for Ux, Initial residual = 0.0117285, Final residual = 2.22842e-06, No Iterations 5
nonePBiCGStab:  Solving for Uy, Initial residual = 0.017704, Final residual = 3.05428e-06, No Iterations 5
nonePBiCGStab:  Solving for Uz, Initial residual = 0.0352282, Final residual = 1.60962e-05, No Iterations 5
linear solve U 5
[OGL LOG] init_host_sparsity_pattern : 4 ms
[OGL LOG] matrix not stored update host matrix
[OGL LOG] update_host_mtx : 2 ms
[OGL LOG] matrix is not yet sorted, sorting host matrix
[OGL LOG] sort_host_mtx_sparsity_pattern : 3 ms
[OGL LOG] sort_host_mtx : 1 ms
[OGL LOG] init_preconditioner : 0 ms
[OGL LOG] solve : 18 ms
noneompGKOBiCGStab:  Solving for p, Initial residual = 0.0103739, Final residual = 8.15506e-05, No Iterations 51
linear solve p 31
time step continuity errors : sum local = 1.12578e-07, global = 2.04963e-20, cumulative = -6.55737e-20
[OGL LOG] init_host_sparsity_pattern : 4 ms
[OGL LOG] matrix not stored update host matrix
[OGL LOG] update_host_mtx : 2 ms
[OGL LOG] matrix is not yet sorted, sorting host matrix
[OGL LOG] sort_host_mtx_sparsity_pattern : 2 ms
[OGL LOG] sort_host_mtx : 1 ms
[OGL LOG] init_preconditioner : 0 ms
[OGL LOG] solve : 16 ms
noneompGKOBiCGStab:  Solving for p, Initial residual = 0.0071722, Final residual = 8.32522e-05, No Iterations 44
linear solve p 28
time step continuity errors : sum local = 7.68658e-08, global = -8.10999e-22, cumulative = -6.63847e-20
ExecutionTime = 14.07 s  ClockTime = 2 s

End

