/*---------------------------------------------------------------------------*\
  =========                 |
  \\      /  F ield         | OpenFOAM: The Open Source CFD Toolbox
   \\    /   O peration     | Website:  https://openfoam.org
    \\  /    A nd           | Version:  8
     \\/     M anipulation  |
\*---------------------------------------------------------------------------*/
Build  : 8-ef60d22ea792
Exec   : icoFoam
Date   : Jul 28 2021
Time   : 14:48:49
Host   : "nla-gpu2.ianm.kit.edu"
PID    : 1495672
I/O    : uncollated
Case   : /home/greole/code/OBR/lidDrivenCavity3D/Variation_mesh/85/Variation_matrix_solver/IR_NoPrecond_HIP/base
nProcs : 1
sigFpe : Enabling floating point exception trapping (FOAM_SIGFPE).
fileModificationChecking : Monitoring run-time modified files using timeStampMaster (fileModificationSkew 10)
allowSystemOperations : Allowing user-supplied system call operations

// * * * * * * * * * * * * * * * * * * * * * * * * * * * * * * * * * * * * * //
Create time

Create mesh for time = 0

Reading transportProperties

Reading field p

Reading field U

Reading/calculating face flux field phi


Starting time loop

Time = 0.001

Courant Number mean: 0 max: 0
DILUPBiCGStab:  Solving for Ux, Initial residual = 1, Final residual = 0.00382019, No Iterations 5
DILUPBiCGStab:  Solving for Uy:  solution singularity
DILUPBiCGStab:  Solving for Uz:  solution singularity
linear solve U 250846
[OGL LOG] init_host_sparsity_pattern : 279 ms
[OGL LOG] matrix not stored update host matrix
[OGL LOG] update_host_mtx : 143 ms
[OGL LOG] matrix is not yet sorted, compute sorting idxs
[OGL LOG] compute_sort : 6135 ms
[OGL LOG] matrix is not yet sorted, sorting host matrix
[OGL LOG] sort_host_mtx_sparsity_pattern : 121 ms
[OGL LOG] sort_host_mtx : 77 ms
[OGL LOG] init_preconditioner : 0 ms
[OGL LOG] solve : 315 ms
nonehipGKOIR:  Solving for p, Initial residual = 1, Final residual = 1.2672e-05, No Iterations 3
linear solve p 7541911
time step continuity errors : sum local = 7.43599e-09, global = -7.86686e-21, cumulative = -7.86686e-21
[OGL LOG] init_host_sparsity_pattern : 254 ms
[OGL LOG] matrix not stored update host matrix
[OGL LOG] update_host_mtx : 134 ms
[OGL LOG] matrix is not yet sorted, sorting host matrix
[OGL LOG] sort_host_mtx_sparsity_pattern : 104 ms
[OGL LOG] sort_host_mtx : 69 ms
[OGL LOG] init_preconditioner : 0 ms
[OGL LOG] solve : 293 ms
nonehipGKOIR:  Solving for p, Initial residual = 0.755101, Final residual = 7.06318e-06, No Iterations 3
linear solve p 882987
time step continuity errors : sum local = 5.34276e-09, global = 1.46136e-21, cumulative = -6.4055e-21
ExecutionTime = 12.29 s  ClockTime = 12 s

End

