/*---------------------------------------------------------------------------*\
  =========                 |
  \\      /  F ield         | OpenFOAM: The Open Source CFD Toolbox
   \\    /   O peration     | Website:  https://openfoam.org
    \\  /    A nd           | Version:  8
     \\/     M anipulation  |
\*---------------------------------------------------------------------------*/
Build  : 8-ef60d22ea792
Exec   : icoFoam
Date   : Jul 29 2021
Time   : 07:34:15
Host   : "nla-gpu2.ianm.kit.edu"
PID    : 1956822
I/O    : uncollated
Case   : /home/greole/code/OBR/lidDrivenCavity3D/Variation_mesh/65/Variation_matrix_solver/BiCGStab_BJ_HIP/base
nProcs : 1
sigFpe : Enabling floating point exception trapping (FOAM_SIGFPE).
fileModificationChecking : Monitoring run-time modified files using timeStampMaster (fileModificationSkew 10)
allowSystemOperations : Allowing user-supplied system call operations

// * * * * * * * * * * * * * * * * * * * * * * * * * * * * * * * * * * * * * //
Create time

Create mesh for time = 0

Reading transportProperties

Reading field p

Reading field U

Reading/calculating face flux field phi


Starting time loop

Time = 0.001

Courant Number mean: 0 max: 0
DILUPBiCGStab:  Solving for Ux, Initial residual = 1, Final residual = 0.0009093, No Iterations 5
DILUPBiCGStab:  Solving for Uy:  solution singularity
DILUPBiCGStab:  Solving for Uz:  solution singularity
linear solve U 112630
[OGL LOG] init_host_sparsity_pattern : 129 ms
[OGL LOG] matrix not stored update host matrix
[OGL LOG] update_host_mtx : 61 ms
[OGL LOG] matrix is not yet sorted, compute sorting idxs
[OGL LOG] compute_sort : 2697 ms
[OGL LOG] matrix is not yet sorted, sorting host matrix
[OGL LOG] sort_host_mtx_sparsity_pattern : 56 ms
[OGL LOG] sort_host_mtx : 35 ms
[OGL LOG] init_preconditioner : 235 ms
[OGL LOG] solve : 283 ms
BJhipGKOBiCGStab:  Solving for p, Initial residual = 1, Final residual = 1.762e-05, No Iterations 336
linear solve p 3946207
time step continuity errors : sum local = 0.0192603, global = -3.05434e-19, cumulative = -3.05434e-19
[OGL LOG] init_host_sparsity_pattern : 124 ms
[OGL LOG] matrix not stored update host matrix
[OGL LOG] update_host_mtx : 63 ms
[OGL LOG] matrix is not yet sorted, sorting host matrix
[OGL LOG] sort_host_mtx_sparsity_pattern : 50 ms
[OGL LOG] sort_host_mtx : 30 ms
[OGL LOG] init_preconditioner : 0 ms
[OGL LOG] solve : 90 ms
BJhipGKOBiCGStab:  Solving for p, Initial residual = 0.982407, Final residual = 9.8897e-05, No Iterations 122
linear solve p 373144
time step continuity errors : sum local = 0.00014862, global = -1.67439e-21, cumulative = -3.07109e-19
ExecutionTime = 6.05 s  ClockTime = 6 s

Time = 0.002

Courant Number mean: 0.0367558 max: 0.472801
DILUPBiCGStab:  Solving for Ux, Initial residual = 0.161438, Final residual = 0.000274835, No Iterations 5
DILUPBiCGStab:  Solving for Uy, Initial residual = 0.572748, Final residual = 0.000706867, No Iterations 5
DILUPBiCGStab:  Solving for Uz, Initial residual = 0.91275, Final residual = 0.000692447, No Iterations 5
linear solve U 211213
[OGL LOG] init_host_sparsity_pattern : 123 ms
[OGL LOG] matrix not stored update host matrix
[OGL LOG] update_host_mtx : 60 ms
[OGL LOG] matrix is not yet sorted, sorting host matrix
[OGL LOG] sort_host_mtx_sparsity_pattern : 49 ms
[OGL LOG] sort_host_mtx : 31 ms
[OGL LOG] init_preconditioner : 0 ms
[OGL LOG] solve : 92 ms
BJhipGKOBiCGStab:  Solving for p, Initial residual = 0.953025, Final residual = 8.55324e-05, No Iterations 127
linear solve p 369341
time step continuity errors : sum local = 0.000335983, global = -9.94995e-22, cumulative = -3.08104e-19
[OGL LOG] init_host_sparsity_pattern : 122 ms
[OGL LOG] matrix not stored update host matrix
[OGL LOG] update_host_mtx : 60 ms
[OGL LOG] matrix is not yet sorted, sorting host matrix
[OGL LOG] sort_host_mtx_sparsity_pattern : 51 ms
[OGL LOG] sort_host_mtx : 30 ms
[OGL LOG] init_preconditioner : 0 ms
[OGL LOG] solve : 93 ms
BJhipGKOBiCGStab:  Solving for p, Initial residual = 0.795383, Final residual = 7.1163e-05, No Iterations 126
linear solve p 370754
time step continuity errors : sum local = 0.000241375, global = 2.34288e-20, cumulative = -2.84675e-19
ExecutionTime = 7.28 s  ClockTime = 7 s

Time = 0.003

Courant Number mean: 0.0566895 max: 0.583674
DILUPBiCGStab:  Solving for Ux, Initial residual = 0.0523179, Final residual = 4.45376e-05, No Iterations 5
DILUPBiCGStab:  Solving for Uy, Initial residual = 0.323863, Final residual = 0.000312834, No Iterations 5
DILUPBiCGStab:  Solving for Uz, Initial residual = 0.887002, Final residual = 0.00050505, No Iterations 5
linear solve U 210526
[OGL LOG] init_host_sparsity_pattern : 123 ms
[OGL LOG] matrix not stored update host matrix
[OGL LOG] update_host_mtx : 60 ms
[OGL LOG] matrix is not yet sorted, sorting host matrix
[OGL LOG] sort_host_mtx_sparsity_pattern : 50 ms
[OGL LOG] sort_host_mtx : 31 ms
[OGL LOG] init_preconditioner : 0 ms
[OGL LOG] solve : 100 ms
BJhipGKOBiCGStab:  Solving for p, Initial residual = 0.949337, Final residual = 9.95301e-05, No Iterations 136
linear solve p 378577
time step continuity errors : sum local = 1.87604e-06, global = -1.69568e-20, cumulative = -3.01632e-19
[OGL LOG] init_host_sparsity_pattern : 122 ms
[OGL LOG] matrix not stored update host matrix
[OGL LOG] update_host_mtx : 60 ms
[OGL LOG] matrix is not yet sorted, sorting host matrix
[OGL LOG] sort_host_mtx_sparsity_pattern : 48 ms
[OGL LOG] sort_host_mtx : 29 ms
[OGL LOG] init_preconditioner : 0 ms
[OGL LOG] solve : 75 ms
BJhipGKOBiCGStab:  Solving for p, Initial residual = 0.781151, Final residual = 9.93633e-05, No Iterations 100
linear solve p 348639
time step continuity errors : sum local = 1.21779e-05, global = 8.48424e-21, cumulative = -2.93148e-19
ExecutionTime = 8.47 s  ClockTime = 8 s

Time = 0.004

Courant Number mean: 0.0649393 max: 0.584625
DILUPBiCGStab:  Solving for Ux, Initial residual = 0.0365949, Final residual = 4.07448e-05, No Iterations 5
DILUPBiCGStab:  Solving for Uy, Initial residual = 0.163035, Final residual = 0.000157401, No Iterations 5
DILUPBiCGStab:  Solving for Uz, Initial residual = 0.911032, Final residual = 0.000429815, No Iterations 5
linear solve U 211523
[OGL LOG] init_host_sparsity_pattern : 126 ms
[OGL LOG] matrix not stored update host matrix
[OGL LOG] update_host_mtx : 62 ms
[OGL LOG] matrix is not yet sorted, sorting host matrix
[OGL LOG] sort_host_mtx_sparsity_pattern : 50 ms
[OGL LOG] sort_host_mtx : 30 ms
[OGL LOG] init_preconditioner : 0 ms
[OGL LOG] solve : 202 ms
BJhipGKOBiCGStab:  Solving for p, Initial residual = 0.922265, Final residual = 9.15466e-05, No Iterations 279
linear solve p 487463
time step continuity errors : sum local = 6.2582e-07, global = 1.71526e-21, cumulative = -2.91432e-19
[OGL LOG] init_host_sparsity_pattern : 123 ms
[OGL LOG] matrix not stored update host matrix
[OGL LOG] update_host_mtx : 60 ms
[OGL LOG] matrix is not yet sorted, sorting host matrix
[OGL LOG] sort_host_mtx_sparsity_pattern : 51 ms
[OGL LOG] sort_host_mtx : 29 ms
[OGL LOG] init_preconditioner : 0 ms
[OGL LOG] solve : 192 ms
BJhipGKOBiCGStab:  Solving for p, Initial residual = 0.744892, Final residual = 9.9828e-05, No Iterations 262
linear solve p 469822
time step continuity errors : sum local = 6.73663e-07, global = -1.09689e-20, cumulative = -3.02401e-19
ExecutionTime = 10.06 s  ClockTime = 9 s

Time = 0.005

Courant Number mean: 0.0725512 max: 0.593111
DILUPBiCGStab:  Solving for Ux, Initial residual = 0.0228821, Final residual = 2.01777e-05, No Iterations 5
DILUPBiCGStab:  Solving for Uy, Initial residual = 0.0867668, Final residual = 6.76156e-05, No Iterations 5
DILUPBiCGStab:  Solving for Uz, Initial residual = 0.888756, Final residual = 0.000292562, No Iterations 5
linear solve U 210314
[OGL LOG] init_host_sparsity_pattern : 124 ms
[OGL LOG] matrix not stored update host matrix
[OGL LOG] update_host_mtx : 60 ms
[OGL LOG] matrix is not yet sorted, sorting host matrix
[OGL LOG] sort_host_mtx_sparsity_pattern : 51 ms
[OGL LOG] sort_host_mtx : 29 ms
[OGL LOG] init_preconditioner : 0 ms
[OGL LOG] solve : 82 ms
BJhipGKOBiCGStab:  Solving for p, Initial residual = 0.891269, Final residual = 8.76362e-05, No Iterations 113
linear solve p 361315
time step continuity errors : sum local = 1.21145e-05, global = 1.38234e-20, cumulative = -2.88578e-19
[OGL LOG] init_host_sparsity_pattern : 122 ms
[OGL LOG] matrix not stored update host matrix
[OGL LOG] update_host_mtx : 63 ms
[OGL LOG] matrix is not yet sorted, sorting host matrix
[OGL LOG] sort_host_mtx_sparsity_pattern : 48 ms
[OGL LOG] sort_host_mtx : 30 ms
[OGL LOG] init_preconditioner : 0 ms
[OGL LOG] solve : 85 ms
BJhipGKOBiCGStab:  Solving for p, Initial residual = 0.718285, Final residual = 8.87641e-05, No Iterations 116
linear solve p 362468
time step continuity errors : sum local = 7.24982e-06, global = 2.18695e-21, cumulative = -2.86391e-19
ExecutionTime = 11.25 s  ClockTime = 10 s

Time = 0.006

Courant Number mean: 0.0782087 max: 0.596324
DILUPBiCGStab:  Solving for Ux, Initial residual = 0.0156751, Final residual = 1.26737e-05, No Iterations 5
DILUPBiCGStab:  Solving for Uy, Initial residual = 0.0541955, Final residual = 4.76751e-05, No Iterations 5
DILUPBiCGStab:  Solving for Uz, Initial residual = 0.849354, Final residual = 0.000242069, No Iterations 5
linear solve U 215361
[OGL LOG] init_host_sparsity_pattern : 122 ms
[OGL LOG] matrix not stored update host matrix
[OGL LOG] update_host_mtx : 60 ms
[OGL LOG] matrix is not yet sorted, sorting host matrix
[OGL LOG] sort_host_mtx_sparsity_pattern : 49 ms
[OGL LOG] sort_host_mtx : 30 ms
[OGL LOG] init_preconditioner : 0 ms
[OGL LOG] solve : 172 ms
BJhipGKOBiCGStab:  Solving for p, Initial residual = 0.832685, Final residual = 6.98852e-05, No Iterations 236
linear solve p 448605
time step continuity errors : sum local = 2.17063e-07, global = -3.11945e-21, cumulative = -2.8951e-19
[OGL LOG] init_host_sparsity_pattern : 123 ms
[OGL LOG] matrix not stored update host matrix
[OGL LOG] update_host_mtx : 63 ms
[OGL LOG] matrix is not yet sorted, sorting host matrix
[OGL LOG] sort_host_mtx_sparsity_pattern : 48 ms
[OGL LOG] sort_host_mtx : 30 ms
[OGL LOG] init_preconditioner : 0 ms
[OGL LOG] solve : 158 ms
BJhipGKOBiCGStab:  Solving for p, Initial residual = 0.666397, Final residual = 9.37553e-05, No Iterations 220
linear solve p 436742
time step continuity errors : sum local = 3.20651e-07, global = 9.03731e-21, cumulative = -2.80473e-19
ExecutionTime = 12.73 s  ClockTime = 11 s

Time = 0.007

Courant Number mean: 0.0830186 max: 0.599719
DILUPBiCGStab:  Solving for Ux, Initial residual = 0.0128198, Final residual = 7.32779e-06, No Iterations 5
DILUPBiCGStab:  Solving for Uy, Initial residual = 0.0366271, Final residual = 3.24499e-05, No Iterations 5
DILUPBiCGStab:  Solving for Uz, Initial residual = 0.771808, Final residual = 0.000160002, No Iterations 5
linear solve U 208947
[OGL LOG] init_host_sparsity_pattern : 123 ms
[OGL LOG] matrix not stored update host matrix
[OGL LOG] update_host_mtx : 60 ms
[OGL LOG] matrix is not yet sorted, sorting host matrix
[OGL LOG] sort_host_mtx_sparsity_pattern : 48 ms
[OGL LOG] sort_host_mtx : 31 ms
[OGL LOG] init_preconditioner : 0 ms
[OGL LOG] solve : 188 ms
BJhipGKOBiCGStab:  Solving for p, Initial residual = 0.763964, Final residual = 9.66979e-05, No Iterations 261
linear solve p 464586
time step continuity errors : sum local = 1.65362e-07, global = -2.067e-20, cumulative = -3.01143e-19
[OGL LOG] init_host_sparsity_pattern : 123 ms
[OGL LOG] matrix not stored update host matrix
[OGL LOG] update_host_mtx : 63 ms
[OGL LOG] matrix is not yet sorted, sorting host matrix
[OGL LOG] sort_host_mtx_sparsity_pattern : 48 ms
[OGL LOG] sort_host_mtx : 29 ms
[OGL LOG] init_preconditioner : 0 ms
[OGL LOG] solve : 164 ms
BJhipGKOBiCGStab:  Solving for p, Initial residual = 0.609427, Final residual = 8.68547e-05, No Iterations 228
linear solve p 441255
time step continuity errors : sum local = 1.66434e-07, global = 1.43812e-20, cumulative = -2.86762e-19
ExecutionTime = 14.22 s  ClockTime = 12 s

Time = 0.008

Courant Number mean: 0.0870337 max: 0.602353
DILUPBiCGStab:  Solving for Ux, Initial residual = 0.010307, Final residual = 4.86186e-06, No Iterations 5
DILUPBiCGStab:  Solving for Uy, Initial residual = 0.027087, Final residual = 2.13052e-05, No Iterations 5
DILUPBiCGStab:  Solving for Uz, Initial residual = 0.667865, Final residual = 0.000114796, No Iterations 5
linear solve U 219069
[OGL LOG] init_host_sparsity_pattern : 125 ms
[OGL LOG] matrix not stored update host matrix
[OGL LOG] update_host_mtx : 64 ms
[OGL LOG] matrix is not yet sorted, sorting host matrix
[OGL LOG] sort_host_mtx_sparsity_pattern : 51 ms
[OGL LOG] sort_host_mtx : 29 ms
[OGL LOG] init_preconditioner : 0 ms
[OGL LOG] solve : 80 ms
BJhipGKOBiCGStab:  Solving for p, Initial residual = 0.67468, Final residual = 9.23223e-05, No Iterations 106
linear solve p 364603
time step continuity errors : sum local = 1.51816e-07, global = 5.09492e-21, cumulative = -2.81667e-19
[OGL LOG] init_host_sparsity_pattern : 123 ms
[OGL LOG] matrix not stored update host matrix
[OGL LOG] update_host_mtx : 60 ms
[OGL LOG] matrix is not yet sorted, sorting host matrix
[OGL LOG] sort_host_mtx_sparsity_pattern : 48 ms
[OGL LOG] sort_host_mtx : 29 ms
[OGL LOG] init_preconditioner : 0 ms
[OGL LOG] solve : 74 ms
BJhipGKOBiCGStab:  Solving for p, Initial residual = 0.536187, Final residual = 8.85455e-05, No Iterations 101
linear solve p 348635
time step continuity errors : sum local = 1.09139e-07, global = -7.4553e-21, cumulative = -2.89122e-19
ExecutionTime = 15.41 s  ClockTime = 14 s

Time = 0.009

Courant Number mean: 0.0904894 max: 0.604465
DILUPBiCGStab:  Solving for Ux, Initial residual = 0.00833305, Final residual = 3.17608e-06, No Iterations 5
DILUPBiCGStab:  Solving for Uy, Initial residual = 0.0217809, Final residual = 1.09224e-05, No Iterations 5
DILUPBiCGStab:  Solving for Uz, Initial residual = 0.537199, Final residual = 7.77391e-05, No Iterations 5
linear solve U 209674
[OGL LOG] init_host_sparsity_pattern : 123 ms
[OGL LOG] matrix not stored update host matrix
[OGL LOG] update_host_mtx : 60 ms
[OGL LOG] matrix is not yet sorted, sorting host matrix
[OGL LOG] sort_host_mtx_sparsity_pattern : 48 ms
[OGL LOG] sort_host_mtx : 29 ms
[OGL LOG] init_preconditioner : 0 ms
[OGL LOG] solve : 196 ms
BJhipGKOBiCGStab:  Solving for p, Initial residual = 0.575874, Final residual = 9.84207e-05, No Iterations 274
linear solve p 470814
time step continuity errors : sum local = 7.08103e-06, global = 1.08475e-20, cumulative = -2.78275e-19
[OGL LOG] init_host_sparsity_pattern : 123 ms
[OGL LOG] matrix not stored update host matrix
[OGL LOG] update_host_mtx : 60 ms
[OGL LOG] matrix is not yet sorted, sorting host matrix
[OGL LOG] sort_host_mtx_sparsity_pattern : 51 ms
[OGL LOG] sort_host_mtx : 29 ms
[OGL LOG] init_preconditioner : 0 ms
[OGL LOG] solve : 89 ms
BJhipGKOBiCGStab:  Solving for p, Initial residual = 0.455826, Final residual = 9.98295e-05, No Iterations 122
linear solve p 366342
time step continuity errors : sum local = 5.88619e-07, global = 7.76857e-21, cumulative = -2.70506e-19
ExecutionTime = 16.79 s  ClockTime = 15 s

Time = 0.01

Courant Number mean: 0.0934831 max: 0.606174
DILUPBiCGStab:  Solving for Ux, Initial residual = 0.00753248, Final residual = 2.86053e-06, No Iterations 5
DILUPBiCGStab:  Solving for Uy, Initial residual = 0.0175343, Final residual = 1.04093e-05, No Iterations 5
DILUPBiCGStab:  Solving for Uz, Initial residual = 0.403711, Final residual = 7.49655e-05, No Iterations 5
linear solve U 209508
[OGL LOG] init_host_sparsity_pattern : 123 ms
[OGL LOG] matrix not stored update host matrix
[OGL LOG] update_host_mtx : 60 ms
[OGL LOG] matrix is not yet sorted, sorting host matrix
[OGL LOG] sort_host_mtx_sparsity_pattern : 48 ms
[OGL LOG] sort_host_mtx : 29 ms
[OGL LOG] init_preconditioner : 0 ms
[OGL LOG] solve : 200 ms
BJhipGKOBiCGStab:  Solving for p, Initial residual = 0.470475, Final residual = 9.66356e-05, No Iterations 278
linear solve p 475059
time step continuity errors : sum local = 0.000269839, global = 3.70729e-22, cumulative = -2.70135e-19
[OGL LOG] init_host_sparsity_pattern : 125 ms
[OGL LOG] matrix not stored update host matrix
[OGL LOG] update_host_mtx : 61 ms
[OGL LOG] matrix is not yet sorted, sorting host matrix
[OGL LOG] sort_host_mtx_sparsity_pattern : 50 ms
[OGL LOG] sort_host_mtx : 29 ms
[OGL LOG] init_preconditioner : 0 ms
[OGL LOG] solve : 216 ms
BJhipGKOBiCGStab:  Solving for p, Initial residual = 0.497855, Final residual = 8.47367e-05, No Iterations 296
linear solve p 496670
time step continuity errors : sum local = 0.000930006, global = 6.32331e-20, cumulative = -2.06902e-19
ExecutionTime = 18.4 s  ClockTime = 16 s

End

