/*---------------------------------------------------------------------------*\
  =========                 |
  \\      /  F ield         | OpenFOAM: The Open Source CFD Toolbox
   \\    /   O peration     | Website:  https://openfoam.org
    \\  /    A nd           | Version:  8
     \\/     M anipulation  |
\*---------------------------------------------------------------------------*/
Build  : 8-ef60d22ea792
Exec   : icoFoam
Date   : Jul 29 2021
Time   : 00:44:33
Host   : "uc2n414.localdomain"
PID    : 2841474
I/O    : uncollated
Case   : /pfs/data5/home/kit/scc/nq7776/code/OBR/lidDrivenCavity3D/Variation_mesh/25/Variation_matrix_solver/IR_NoPrecond_OMP/base
nProcs : 1
sigFpe : Enabling floating point exception trapping (FOAM_SIGFPE).
fileModificationChecking : Monitoring run-time modified files using timeStampMaster (fileModificationSkew 10)
allowSystemOperations : Allowing user-supplied system call operations

// * * * * * * * * * * * * * * * * * * * * * * * * * * * * * * * * * * * * * //
Create time

Create mesh for time = 0

Reading transportProperties

Reading field p

Reading field U

Reading/calculating face flux field phi


Starting time loop

Time = 0.001

Courant Number mean: 0 max: 0
DILUPBiCGStab:  Solving for Ux, Initial residual = 1, Final residual = 1.01737e-08, No Iterations 5
DILUPBiCGStab:  Solving for Uy:  solution singularity
DILUPBiCGStab:  Solving for Uz:  solution singularity
linear solve U 6088
[OGL LOG] init_host_sparsity_pattern : 4 ms
[OGL LOG] matrix not stored update host matrix
[OGL LOG] update_host_mtx : 2 ms
[OGL LOG] matrix is not yet sorted, compute sorting idxs
[OGL LOG] compute_sort : 114 ms
[OGL LOG] matrix is not yet sorted, sorting host matrix
[OGL LOG] sort_host_mtx_sparsity_pattern : 3 ms
[OGL LOG] sort_host_mtx : 1 ms
[OGL LOG] init_preconditioner : 0 ms
[OGL LOG] solve : 118 ms
noneompGKOIR:  Solving for p, Initial residual = 1, Final residual = 6.76179e-06, No Iterations 3
linear solve p 249175
time step continuity errors : sum local = 3.49176e-09, global = -1.19296e-21, cumulative = -1.19296e-21
[OGL LOG] init_host_sparsity_pattern : 4 ms
[OGL LOG] matrix not stored update host matrix
[OGL LOG] update_host_mtx : 2 ms
[OGL LOG] matrix is not yet sorted, sorting host matrix
[OGL LOG] sort_host_mtx_sparsity_pattern : 3 ms
[OGL LOG] sort_host_mtx : 1 ms
[OGL LOG] init_preconditioner : 0 ms
[OGL LOG] solve : 110 ms
noneompGKOIR:  Solving for p, Initial residual = 0.481402, Final residual = 1.82111e-06, No Iterations 3
linear solve p 124300
time step continuity errors : sum local = 1.51408e-09, global = -7.19772e-22, cumulative = -1.91273e-21
ExecutionTime = 0.46 s  ClockTime = 1 s

Time = 0.002

Courant Number mean: 0.0119809 max: 0.106546
DILUPBiCGStab:  Solving for Ux, Initial residual = 0.210779, Final residual = 1.44916e-09, No Iterations 5
DILUPBiCGStab:  Solving for Uy, Initial residual = 0.284219, Final residual = 1.36664e-09, No Iterations 5
DILUPBiCGStab:  Solving for Uz, Initial residual = 0.890281, Final residual = 5.3513e-09, No Iterations 5
linear solve U 10208
[OGL LOG] init_host_sparsity_pattern : 4 ms
[OGL LOG] matrix not stored update host matrix
[OGL LOG] update_host_mtx : 2 ms
[OGL LOG] matrix is not yet sorted, sorting host matrix
[OGL LOG] sort_host_mtx_sparsity_pattern : 3 ms
[OGL LOG] sort_host_mtx : 1 ms
[OGL LOG] init_preconditioner : 0 ms
[OGL LOG] solve : 86 ms
noneompGKOIR:  Solving for p, Initial residual = 0.286219, Final residual = 6.83281e-05, No Iterations 2
linear solve p 99151
time step continuity errors : sum local = 5.30268e-08, global = -1.65061e-20, cumulative = -1.84188e-20
[OGL LOG] init_host_sparsity_pattern : 4 ms
[OGL LOG] matrix not stored update host matrix
[OGL LOG] update_host_mtx : 2 ms
[OGL LOG] matrix is not yet sorted, sorting host matrix
[OGL LOG] sort_host_mtx_sparsity_pattern : 3 ms
[OGL LOG] sort_host_mtx : 1 ms
[OGL LOG] init_preconditioner : 0 ms
[OGL LOG] solve : 85 ms
noneompGKOIR:  Solving for p, Initial residual = 0.189891, Final residual = 4.71243e-05, No Iterations 2
linear solve p 98033
time step continuity errors : sum local = 3.88039e-08, global = -2.93009e-20, cumulative = -4.77197e-20
ExecutionTime = 0.67 s  ClockTime = 1 s

Time = 0.003

Courant Number mean: 0.0188589 max: 0.15358
DILUPBiCGStab:  Solving for Ux, Initial residual = 0.0901294, Final residual = 5.47154e-10, No Iterations 5
DILUPBiCGStab:  Solving for Uy, Initial residual = 0.124392, Final residual = 4.86075e-10, No Iterations 5
DILUPBiCGStab:  Solving for Uz, Initial residual = 0.250306, Final residual = 1.41391e-09, No Iterations 5
linear solve U 10110
[OGL LOG] init_host_sparsity_pattern : 4 ms
[OGL LOG] matrix not stored update host matrix
[OGL LOG] update_host_mtx : 2 ms
[OGL LOG] matrix is not yet sorted, sorting host matrix
[OGL LOG] sort_host_mtx_sparsity_pattern : 3 ms
[OGL LOG] sort_host_mtx : 1 ms
[OGL LOG] init_preconditioner : 0 ms
[OGL LOG] solve : 86 ms
noneompGKOIR:  Solving for p, Initial residual = 0.103017, Final residual = 2.15485e-05, No Iterations 2
linear solve p 98849
time step continuity errors : sum local = 1.66837e-08, global = 1.79105e-20, cumulative = -2.98092e-20
[OGL LOG] init_host_sparsity_pattern : 4 ms
[OGL LOG] matrix not stored update host matrix
[OGL LOG] update_host_mtx : 2 ms
[OGL LOG] matrix is not yet sorted, sorting host matrix
[OGL LOG] sort_host_mtx_sparsity_pattern : 3 ms
[OGL LOG] sort_host_mtx : 1 ms
[OGL LOG] init_preconditioner : 0 ms
[OGL LOG] solve : 85 ms
noneompGKOIR:  Solving for p, Initial residual = 0.0705431, Final residual = 1.41271e-05, No Iterations 2
linear solve p 97520
time step continuity errors : sum local = 1.12654e-08, global = -6.37185e-21, cumulative = -3.6181e-20
ExecutionTime = 0.88 s  ClockTime = 1 s

Time = 0.004

Courant Number mean: 0.0233284 max: 0.175141
DILUPBiCGStab:  Solving for Ux, Initial residual = 0.0520816, Final residual = 2.37849e-10, No Iterations 5
DILUPBiCGStab:  Solving for Uy, Initial residual = 0.0742338, Final residual = 1.97821e-10, No Iterations 5
DILUPBiCGStab:  Solving for Uz, Initial residual = 0.128271, Final residual = 4.92422e-10, No Iterations 5
linear solve U 10142
[OGL LOG] init_host_sparsity_pattern : 4 ms
[OGL LOG] matrix not stored update host matrix
[OGL LOG] update_host_mtx : 2 ms
[OGL LOG] matrix is not yet sorted, sorting host matrix
[OGL LOG] sort_host_mtx_sparsity_pattern : 3 ms
[OGL LOG] sort_host_mtx : 1 ms
[OGL LOG] init_preconditioner : 0 ms
[OGL LOG] solve : 86 ms
noneompGKOIR:  Solving for p, Initial residual = 0.0554218, Final residual = 1.1558e-05, No Iterations 2
linear solve p 99065
time step continuity errors : sum local = 9.20002e-09, global = 1.39934e-20, cumulative = -2.21877e-20
[OGL LOG] init_host_sparsity_pattern : 4 ms
[OGL LOG] matrix not stored update host matrix
[OGL LOG] update_host_mtx : 2 ms
[OGL LOG] matrix is not yet sorted, sorting host matrix
[OGL LOG] sort_host_mtx_sparsity_pattern : 3 ms
[OGL LOG] sort_host_mtx : 1 ms
[OGL LOG] init_preconditioner : 0 ms
[OGL LOG] solve : 85 ms
noneompGKOIR:  Solving for p, Initial residual = 0.0373161, Final residual = 7.96341e-06, No Iterations 2
linear solve p 98419
time step continuity errors : sum local = 6.46878e-09, global = -2.52132e-20, cumulative = -4.74009e-20
ExecutionTime = 1.1 s  ClockTime = 1 s

Time = 0.005

Courant Number mean: 0.0265076 max: 0.186525
DILUPBiCGStab:  Solving for Ux, Initial residual = 0.0351616, Final residual = 1.72277e-10, No Iterations 5
DILUPBiCGStab:  Solving for Uy, Initial residual = 0.050714, Final residual = 1.02666e-10, No Iterations 5
DILUPBiCGStab:  Solving for Uz, Initial residual = 0.0902274, Final residual = 2.76624e-10, No Iterations 5
linear solve U 10087
[OGL LOG] init_host_sparsity_pattern : 4 ms
[OGL LOG] matrix not stored update host matrix
[OGL LOG] update_host_mtx : 2 ms
[OGL LOG] matrix is not yet sorted, sorting host matrix
[OGL LOG] sort_host_mtx_sparsity_pattern : 3 ms
[OGL LOG] sort_host_mtx : 1 ms
[OGL LOG] init_preconditioner : 0 ms
[OGL LOG] solve : 85 ms
noneompGKOIR:  Solving for p, Initial residual = 0.0349253, Final residual = 7.56917e-06, No Iterations 2
linear solve p 97960
time step continuity errors : sum local = 6.18317e-09, global = -2.77254e-20, cumulative = -7.51263e-20
[OGL LOG] init_host_sparsity_pattern : 4 ms
[OGL LOG] matrix not stored update host matrix
[OGL LOG] update_host_mtx : 2 ms
[OGL LOG] matrix is not yet sorted, sorting host matrix
[OGL LOG] sort_host_mtx_sparsity_pattern : 3 ms
[OGL LOG] sort_host_mtx : 1 ms
[OGL LOG] init_preconditioner : 0 ms
[OGL LOG] solve : 85 ms
noneompGKOIR:  Solving for p, Initial residual = 0.023154, Final residual = 4.25193e-06, No Iterations 2
linear solve p 98320
time step continuity errors : sum local = 3.51752e-09, global = -6.91794e-21, cumulative = -8.20442e-20
ExecutionTime = 1.31 s  ClockTime = 2 s

Time = 0.006

Courant Number mean: 0.0289086 max: 0.193356
DILUPBiCGStab:  Solving for Ux, Initial residual = 0.0259589, Final residual = 7.70557e-11, No Iterations 5
DILUPBiCGStab:  Solving for Uy, Initial residual = 0.0379163, Final residual = 6.95988e-11, No Iterations 5
DILUPBiCGStab:  Solving for Uz, Initial residual = 0.0699769, Final residual = 1.8116e-10, No Iterations 5
linear solve U 10107
[OGL LOG] init_host_sparsity_pattern : 4 ms
[OGL LOG] matrix not stored update host matrix
[OGL LOG] update_host_mtx : 2 ms
[OGL LOG] matrix is not yet sorted, sorting host matrix
[OGL LOG] sort_host_mtx_sparsity_pattern : 3 ms
[OGL LOG] sort_host_mtx : 1 ms
[OGL LOG] init_preconditioner : 0 ms
[OGL LOG] solve : 85 ms
noneompGKOIR:  Solving for p, Initial residual = 0.0243719, Final residual = 5.62423e-06, No Iterations 2
linear solve p 97687
time step continuity errors : sum local = 4.67606e-09, global = -1.06692e-20, cumulative = -9.27135e-20
[OGL LOG] init_host_sparsity_pattern : 4 ms
[OGL LOG] matrix not stored update host matrix
[OGL LOG] update_host_mtx : 2 ms
[OGL LOG] matrix is not yet sorted, sorting host matrix
[OGL LOG] sort_host_mtx_sparsity_pattern : 3 ms
[OGL LOG] sort_host_mtx : 1 ms
[OGL LOG] init_preconditioner : 0 ms
[OGL LOG] solve : 85 ms
noneompGKOIR:  Solving for p, Initial residual = 0.0163107, Final residual = 2.96012e-06, No Iterations 2
linear solve p 98284
time step continuity errors : sum local = 2.48076e-09, global = -1.65963e-20, cumulative = -1.0931e-19
ExecutionTime = 1.52 s  ClockTime = 2 s

Time = 0.007

Courant Number mean: 0.0308445 max: 0.197909
DILUPBiCGStab:  Solving for Ux, Initial residual = 0.0203709, Final residual = 3.51627e-11, No Iterations 5
DILUPBiCGStab:  Solving for Uy, Initial residual = 0.0299589, Final residual = 5.19013e-11, No Iterations 5
DILUPBiCGStab:  Solving for Uz, Initial residual = 0.0568592, Final residual = 1.29435e-10, No Iterations 5
linear solve U 10153
[OGL LOG] init_host_sparsity_pattern : 4 ms
[OGL LOG] matrix not stored update host matrix
[OGL LOG] update_host_mtx : 2 ms
[OGL LOG] matrix is not yet sorted, sorting host matrix
[OGL LOG] sort_host_mtx_sparsity_pattern : 3 ms
[OGL LOG] sort_host_mtx : 1 ms
[OGL LOG] init_preconditioner : 0 ms
[OGL LOG] solve : 87 ms
noneompGKOIR:  Solving for p, Initial residual = 0.0185757, Final residual = 3.67364e-06, No Iterations 2
linear solve p 99985
time step continuity errors : sum local = 3.09162e-09, global = 2.4543e-20, cumulative = -8.47668e-20
[OGL LOG] init_host_sparsity_pattern : 4 ms
[OGL LOG] matrix not stored update host matrix
[OGL LOG] update_host_mtx : 2 ms
[OGL LOG] matrix is not yet sorted, sorting host matrix
[OGL LOG] sort_host_mtx_sparsity_pattern : 3 ms
[OGL LOG] sort_host_mtx : 1 ms
[OGL LOG] init_preconditioner : 0 ms
[OGL LOG] solve : 88 ms
noneompGKOIR:  Solving for p, Initial residual = 0.0125446, Final residual = 2.08506e-06, No Iterations 2
linear solve p 101649
time step continuity errors : sum local = 1.76422e-09, global = 6.66075e-21, cumulative = -7.8106e-20
ExecutionTime = 1.75 s  ClockTime = 2 s

Time = 0.008

Courant Number mean: 0.0324895 max: 0.201188
DILUPBiCGStab:  Solving for Ux, Initial residual = 0.0165347, Final residual = 1.96167e-11, No Iterations 5
DILUPBiCGStab:  Solving for Uy, Initial residual = 0.0245527, Final residual = 3.9543e-11, No Iterations 5
DILUPBiCGStab:  Solving for Uz, Initial residual = 0.0475335, Final residual = 9.66278e-11, No Iterations 5
linear solve U 10332
[OGL LOG] init_host_sparsity_pattern : 4 ms
[OGL LOG] matrix not stored update host matrix
[OGL LOG] update_host_mtx : 2 ms
[OGL LOG] matrix is not yet sorted, sorting host matrix
[OGL LOG] sort_host_mtx_sparsity_pattern : 3 ms
[OGL LOG] sort_host_mtx : 1 ms
[OGL LOG] init_preconditioner : 0 ms
[OGL LOG] solve : 89 ms
noneompGKOIR:  Solving for p, Initial residual = 0.014844, Final residual = 2.92629e-06, No Iterations 2
linear solve p 101859
time step continuity errors : sum local = 2.48488e-09, global = 1.45557e-20, cumulative = -6.35503e-20
[OGL LOG] init_host_sparsity_pattern : 4 ms
[OGL LOG] matrix not stored update host matrix
[OGL LOG] update_host_mtx : 2 ms
[OGL LOG] matrix is not yet sorted, sorting host matrix
[OGL LOG] sort_host_mtx_sparsity_pattern : 3 ms
[OGL LOG] sort_host_mtx : 1 ms
[OGL LOG] init_preconditioner : 0 ms
[OGL LOG] solve : 89 ms
noneompGKOIR:  Solving for p, Initial residual = 0.0100853, Final residual = 1.43144e-06, No Iterations 2
linear solve p 102136
time step continuity errors : sum local = 1.22057e-09, global = 5.26665e-21, cumulative = -5.82836e-20
ExecutionTime = 1.97 s  ClockTime = 2 s

Time = 0.009

Courant Number mean: 0.0338929 max: 0.203683
DILUPBiCGStab:  Solving for Ux, Initial residual = 0.0137936, Final residual = 1.28008e-11, No Iterations 5
DILUPBiCGStab:  Solving for Uy, Initial residual = 0.0206364, Final residual = 3.0267e-11, No Iterations 5
DILUPBiCGStab:  Solving for Uz, Initial residual = 0.040535, Final residual = 7.4613e-11, No Iterations 5
linear solve U 10268
[OGL LOG] init_host_sparsity_pattern : 4 ms
[OGL LOG] matrix not stored update host matrix
[OGL LOG] update_host_mtx : 2 ms
[OGL LOG] matrix is not yet sorted, sorting host matrix
[OGL LOG] sort_host_mtx_sparsity_pattern : 3 ms
[OGL LOG] sort_host_mtx : 1 ms
[OGL LOG] init_preconditioner : 0 ms
[OGL LOG] solve : 87 ms
noneompGKOIR:  Solving for p, Initial residual = 0.0122957, Final residual = 2.26551e-06, No Iterations 2
linear solve p 101049
time step continuity errors : sum local = 1.93785e-09, global = 3.79984e-20, cumulative = -2.02853e-20
[OGL LOG] init_host_sparsity_pattern : 4 ms
[OGL LOG] matrix not stored update host matrix
[OGL LOG] update_host_mtx : 2 ms
[OGL LOG] matrix is not yet sorted, sorting host matrix
[OGL LOG] sort_host_mtx_sparsity_pattern : 3 ms
[OGL LOG] sort_host_mtx : 1 ms
[OGL LOG] init_preconditioner : 0 ms
[OGL LOG] solve : 87 ms
noneompGKOIR:  Solving for p, Initial residual = 0.00840008, Final residual = 1.3918e-06, No Iterations 2
linear solve p 100634
time step continuity errors : sum local = 1.19416e-09, global = -1.51762e-20, cumulative = -3.54614e-20
ExecutionTime = 2.19 s  ClockTime = 2 s

Time = 0.01

Courant Number mean: 0.0351034 max: 0.205656
DILUPBiCGStab:  Solving for Ux, Initial residual = 0.0117269, Final residual = 9.28934e-12, No Iterations 5
DILUPBiCGStab:  Solving for Uy, Initial residual = 0.0176653, Final residual = 2.3415e-11, No Iterations 5
DILUPBiCGStab:  Solving for Uz, Initial residual = 0.0350809, Final residual = 5.82959e-11, No Iterations 5
linear solve U 10013
[OGL LOG] init_host_sparsity_pattern : 4 ms
[OGL LOG] matrix not stored update host matrix
[OGL LOG] update_host_mtx : 2 ms
[OGL LOG] matrix is not yet sorted, sorting host matrix
[OGL LOG] sort_host_mtx_sparsity_pattern : 3 ms
[OGL LOG] sort_host_mtx : 1 ms
[OGL LOG] init_preconditioner : 0 ms
[OGL LOG] solve : 86 ms
noneompGKOIR:  Solving for p, Initial residual = 0.0103786, Final residual = 1.79098e-06, No Iterations 2
linear solve p 99353
time step continuity errors : sum local = 1.54093e-09, global = -4.88349e-20, cumulative = -8.42963e-20
[OGL LOG] init_host_sparsity_pattern : 4 ms
[OGL LOG] matrix not stored update host matrix
[OGL LOG] update_host_mtx : 2 ms
[OGL LOG] matrix is not yet sorted, sorting host matrix
[OGL LOG] sort_host_mtx_sparsity_pattern : 3 ms
[OGL LOG] sort_host_mtx : 1 ms
[OGL LOG] init_preconditioner : 0 ms
[OGL LOG] solve : 88 ms
noneompGKOIR:  Solving for p, Initial residual = 0.00712431, Final residual = 1.14555e-06, No Iterations 2
linear solve p 101238
time step continuity errors : sum local = 9.87943e-10, global = 1.23764e-21, cumulative = -8.30587e-20
ExecutionTime = 2.41 s  ClockTime = 3 s

End

