/*---------------------------------------------------------------------------*\
  =========                 |
  \\      /  F ield         | OpenFOAM: The Open Source CFD Toolbox
   \\    /   O peration     | Website:  https://openfoam.org
    \\  /    A nd           | Version:  8
     \\/     M anipulation  |
\*---------------------------------------------------------------------------*/
Build  : 8-ef60d22ea792
Exec   : icoFoam
Date   : Jul 29 2021
Time   : 08:17:14
Host   : "nla-gpu2.ianm.kit.edu"
PID    : 1978458
I/O    : uncollated
Case   : /home/greole/code/OBR/lidDrivenCavity3D/Variation_mesh/60/Variation_matrix_solver/CG_NoPrecond_HIP/base
nProcs : 1
sigFpe : Enabling floating point exception trapping (FOAM_SIGFPE).
fileModificationChecking : Monitoring run-time modified files using timeStampMaster (fileModificationSkew 10)
allowSystemOperations : Allowing user-supplied system call operations

// * * * * * * * * * * * * * * * * * * * * * * * * * * * * * * * * * * * * * //
Create time

Create mesh for time = 0

Reading transportProperties

Reading field p

Reading field U

Reading/calculating face flux field phi


Starting time loop

Time = 0.001

Courant Number mean: 0 max: 0
DILUPBiCGStab:  Solving for Ux, Initial residual = 1, Final residual = 0.000527977, No Iterations 5
DILUPBiCGStab:  Solving for Uy:  solution singularity
DILUPBiCGStab:  Solving for Uz:  solution singularity
linear solve U 88730
[OGL LOG] init_host_sparsity_pattern : 101 ms
[OGL LOG] matrix not stored update host matrix
[OGL LOG] update_host_mtx : 48 ms
[OGL LOG] matrix is not yet sorted, compute sorting idxs
[OGL LOG] compute_sort : 2015 ms
[OGL LOG] matrix is not yet sorted, sorting host matrix
[OGL LOG] sort_host_mtx_sparsity_pattern : 42 ms
[OGL LOG] sort_host_mtx : 26 ms
[OGL LOG] init_preconditioner : 0 ms
[OGL LOG] solve : 115 ms
nonehipGKOCG:  Solving for p, Initial residual = 1, Final residual = 9.57553e-05, No Iterations 469
linear solve p 2788917
time step continuity errors : sum local = 5.60921e-08, global = -3.75583e-21, cumulative = -3.75583e-21
[OGL LOG] init_host_sparsity_pattern : 97 ms
[OGL LOG] matrix not stored update host matrix
[OGL LOG] update_host_mtx : 46 ms
[OGL LOG] matrix is not yet sorted, sorting host matrix
[OGL LOG] sort_host_mtx_sparsity_pattern : 38 ms
[OGL LOG] sort_host_mtx : 23 ms
[OGL LOG] init_preconditioner : 0 ms
[OGL LOG] solve : 89 ms
nonehipGKOCG:  Solving for p, Initial residual = 0.69554, Final residual = 9.25397e-05, No Iterations 463
linear solve p 306058
time step continuity errors : sum local = 7.4034e-08, global = 9.67083e-21, cumulative = 5.915e-21
ExecutionTime = 4.42 s  ClockTime = 4 s

Time = 0.002

Courant Number mean: 0.0334999 max: 0.423482
DILUPBiCGStab:  Solving for Ux, Initial residual = 0.157977, Final residual = 0.000145597, No Iterations 5
DILUPBiCGStab:  Solving for Uy, Initial residual = 0.339075, Final residual = 0.000249793, No Iterations 5
DILUPBiCGStab:  Solving for Uz, Initial residual = 0.980298, Final residual = 0.000934544, No Iterations 5
linear solve U 161769
[OGL LOG] init_host_sparsity_pattern : 97 ms
[OGL LOG] matrix not stored update host matrix
[OGL LOG] update_host_mtx : 46 ms
[OGL LOG] matrix is not yet sorted, sorting host matrix
[OGL LOG] sort_host_mtx_sparsity_pattern : 38 ms
[OGL LOG] sort_host_mtx : 23 ms
[OGL LOG] init_preconditioner : 0 ms
[OGL LOG] solve : 88 ms
nonehipGKOCG:  Solving for p, Initial residual = 0.61516, Final residual = 8.79857e-05, No Iterations 460
linear solve p 305266
time step continuity errors : sum local = 7.24174e-08, global = 3.3329e-21, cumulative = 9.2479e-21
[OGL LOG] init_host_sparsity_pattern : 95 ms
[OGL LOG] matrix not stored update host matrix
[OGL LOG] update_host_mtx : 46 ms
[OGL LOG] matrix is not yet sorted, sorting host matrix
[OGL LOG] sort_host_mtx_sparsity_pattern : 38 ms
[OGL LOG] sort_host_mtx : 24 ms
[OGL LOG] init_preconditioner : 0 ms
[OGL LOG] solve : 88 ms
nonehipGKOCG:  Solving for p, Initial residual = 0.535192, Final residual = 9.29288e-05, No Iterations 458
linear solve p 303069
time step continuity errors : sum local = 7.85734e-08, global = -2.7799e-21, cumulative = 6.468e-21
ExecutionTime = 5.44 s  ClockTime = 5 s

Time = 0.003

Courant Number mean: 0.050297 max: 0.512851
DILUPBiCGStab:  Solving for Ux, Initial residual = 0.0504841, Final residual = 3.33649e-05, No Iterations 5
DILUPBiCGStab:  Solving for Uy, Initial residual = 0.103206, Final residual = 6.9387e-05, No Iterations 5
DILUPBiCGStab:  Solving for Uz, Initial residual = 0.278587, Final residual = 0.000236808, No Iterations 5
linear solve U 166609
[OGL LOG] init_host_sparsity_pattern : 97 ms
[OGL LOG] matrix not stored update host matrix
[OGL LOG] update_host_mtx : 50 ms
[OGL LOG] matrix is not yet sorted, sorting host matrix
[OGL LOG] sort_host_mtx_sparsity_pattern : 42 ms
[OGL LOG] sort_host_mtx : 23 ms
[OGL LOG] init_preconditioner : 0 ms
[OGL LOG] solve : 88 ms
nonehipGKOCG:  Solving for p, Initial residual = 0.47259, Final residual = 9.02066e-05, No Iterations 455
linear solve p 314316
time step continuity errors : sum local = 5.16193e-08, global = 5.37905e-22, cumulative = 7.0059e-21
[OGL LOG] init_host_sparsity_pattern : 97 ms
[OGL LOG] matrix not stored update host matrix
[OGL LOG] update_host_mtx : 46 ms
[OGL LOG] matrix is not yet sorted, sorting host matrix
[OGL LOG] sort_host_mtx_sparsity_pattern : 38 ms
[OGL LOG] sort_host_mtx : 23 ms
[OGL LOG] init_preconditioner : 0 ms
[OGL LOG] solve : 87 ms
nonehipGKOCG:  Solving for p, Initial residual = 0.416466, Final residual = 9.73906e-05, No Iterations 453
linear solve p 303528
time step continuity errors : sum local = 5.42324e-08, global = -8.73313e-21, cumulative = -1.72723e-21
ExecutionTime = 6.47 s  ClockTime = 6 s

Time = 0.004

Courant Number mean: 0.0595684 max: 0.529581
DILUPBiCGStab:  Solving for Ux, Initial residual = 0.0299453, Final residual = 2.0143e-05, No Iterations 5
DILUPBiCGStab:  Solving for Uy, Initial residual = 0.0669912, Final residual = 2.38528e-05, No Iterations 5
DILUPBiCGStab:  Solving for Uz, Initial residual = 0.166263, Final residual = 0.000110262, No Iterations 5
linear solve U 165859
[OGL LOG] init_host_sparsity_pattern : 96 ms
[OGL LOG] matrix not stored update host matrix
[OGL LOG] update_host_mtx : 46 ms
[OGL LOG] matrix is not yet sorted, sorting host matrix
[OGL LOG] sort_host_mtx_sparsity_pattern : 38 ms
[OGL LOG] sort_host_mtx : 23 ms
[OGL LOG] init_preconditioner : 0 ms
[OGL LOG] solve : 85 ms
nonehipGKOCG:  Solving for p, Initial residual = 0.251525, Final residual = 9.31112e-05, No Iterations 442
linear solve p 300310
time step continuity errors : sum local = 4.84199e-08, global = 5.72875e-21, cumulative = 4.00152e-21
[OGL LOG] init_host_sparsity_pattern : 95 ms
[OGL LOG] matrix not stored update host matrix
[OGL LOG] update_host_mtx : 46 ms
[OGL LOG] matrix is not yet sorted, sorting host matrix
[OGL LOG] sort_host_mtx_sparsity_pattern : 38 ms
[OGL LOG] sort_host_mtx : 23 ms
[OGL LOG] init_preconditioner : 0 ms
[OGL LOG] solve : 84 ms
nonehipGKOCG:  Solving for p, Initial residual = 0.205046, Final residual = 9.79614e-05, No Iterations 439
linear solve p 299575
time step continuity errors : sum local = 5.15504e-08, global = 8.2075e-21, cumulative = 1.2209e-20
ExecutionTime = 7.48 s  ClockTime = 7 s

Time = 0.005

Courant Number mean: 0.0665842 max: 0.539163
DILUPBiCGStab:  Solving for Ux, Initial residual = 0.0211083, Final residual = 6.93214e-06, No Iterations 5
DILUPBiCGStab:  Solving for Uy, Initial residual = 0.0441306, Final residual = 1.76454e-05, No Iterations 5
DILUPBiCGStab:  Solving for Uz, Initial residual = 0.0712298, Final residual = 4.54803e-05, No Iterations 5
linear solve U 166171
[OGL LOG] init_host_sparsity_pattern : 100 ms
[OGL LOG] matrix not stored update host matrix
[OGL LOG] update_host_mtx : 48 ms
[OGL LOG] matrix is not yet sorted, sorting host matrix
[OGL LOG] sort_host_mtx_sparsity_pattern : 39 ms
[OGL LOG] sort_host_mtx : 23 ms
[OGL LOG] init_preconditioner : 0 ms
[OGL LOG] solve : 81 ms
nonehipGKOCG:  Solving for p, Initial residual = 0.153328, Final residual = 9.58287e-05, No Iterations 421
linear solve p 304850
time step continuity errors : sum local = 4.53902e-08, global = 3.20543e-21, cumulative = 1.54145e-20
[OGL LOG] init_host_sparsity_pattern : 97 ms
[OGL LOG] matrix not stored update host matrix
[OGL LOG] update_host_mtx : 46 ms
[OGL LOG] matrix is not yet sorted, sorting host matrix
[OGL LOG] sort_host_mtx_sparsity_pattern : 38 ms
[OGL LOG] sort_host_mtx : 23 ms
[OGL LOG] init_preconditioner : 0 ms
[OGL LOG] solve : 81 ms
nonehipGKOCG:  Solving for p, Initial residual = 0.126841, Final residual = 9.81047e-05, No Iterations 419
linear solve p 297441
time step continuity errors : sum local = 4.62921e-08, global = -4.07661e-21, cumulative = 1.13379e-20
ExecutionTime = 8.49 s  ClockTime = 7 s

Time = 0.006

Courant Number mean: 0.0720439 max: 0.544954
DILUPBiCGStab:  Solving for Ux, Initial residual = 0.0159392, Final residual = 7.33051e-06, No Iterations 5
DILUPBiCGStab:  Solving for Uy, Initial residual = 0.0337434, Final residual = 6.4827e-06, No Iterations 5
DILUPBiCGStab:  Solving for Uz, Initial residual = 0.061382, Final residual = 2.85606e-05, No Iterations 5
linear solve U 165702
[OGL LOG] init_host_sparsity_pattern : 98 ms
[OGL LOG] matrix not stored update host matrix
[OGL LOG] update_host_mtx : 46 ms
[OGL LOG] matrix is not yet sorted, sorting host matrix
[OGL LOG] sort_host_mtx_sparsity_pattern : 38 ms
[OGL LOG] sort_host_mtx : 24 ms
[OGL LOG] init_preconditioner : 0 ms
[OGL LOG] solve : 40 ms
nonehipGKOCG:  Solving for p, Initial residual = 0.0896527, Final residual = 9.67795e-05, No Iterations 208
linear solve p 259014
time step continuity errors : sum local = 5.46283e-08, global = 4.56438e-21, cumulative = 1.59022e-20
[OGL LOG] init_host_sparsity_pattern : 97 ms
[OGL LOG] matrix not stored update host matrix
[OGL LOG] update_host_mtx : 46 ms
[OGL LOG] matrix is not yet sorted, sorting host matrix
[OGL LOG] sort_host_mtx_sparsity_pattern : 38 ms
[OGL LOG] sort_host_mtx : 23 ms
[OGL LOG] init_preconditioner : 0 ms
[OGL LOG] solve : 38 ms
nonehipGKOCG:  Solving for p, Initial residual = 0.073092, Final residual = 9.62586e-05, No Iterations 197
linear solve p 254554
time step continuity errors : sum local = 4.79495e-08, global = 1.03056e-20, cumulative = 2.62079e-20
ExecutionTime = 9.33 s  ClockTime = 8 s

Time = 0.007

Courant Number mean: 0.0764962 max: 0.548952
DILUPBiCGStab:  Solving for Ux, Initial residual = 0.0126894, Final residual = 2.29379e-06, No Iterations 5
DILUPBiCGStab:  Solving for Uy, Initial residual = 0.0269561, Final residual = 6.11741e-06, No Iterations 5
DILUPBiCGStab:  Solving for Uz, Initial residual = 0.0488846, Final residual = 1.81338e-05, No Iterations 5
linear solve U 166215
[OGL LOG] init_host_sparsity_pattern : 97 ms
[OGL LOG] matrix not stored update host matrix
[OGL LOG] update_host_mtx : 46 ms
[OGL LOG] matrix is not yet sorted, sorting host matrix
[OGL LOG] sort_host_mtx_sparsity_pattern : 38 ms
[OGL LOG] sort_host_mtx : 24 ms
[OGL LOG] init_preconditioner : 0 ms
[OGL LOG] solve : 38 ms
nonehipGKOCG:  Solving for p, Initial residual = 0.05757, Final residual = 9.81714e-05, No Iterations 194
linear solve p 255852
time step continuity errors : sum local = 4.64802e-08, global = -4.4482e-22, cumulative = 2.57631e-20
[OGL LOG] init_host_sparsity_pattern : 100 ms
[OGL LOG] matrix not stored update host matrix
[OGL LOG] update_host_mtx : 47 ms
[OGL LOG] matrix is not yet sorted, sorting host matrix
[OGL LOG] sort_host_mtx_sparsity_pattern : 38 ms
[OGL LOG] sort_host_mtx : 23 ms
[OGL LOG] init_preconditioner : 0 ms
[OGL LOG] solve : 38 ms
nonehipGKOCG:  Solving for p, Initial residual = 0.0478826, Final residual = 9.53804e-05, No Iterations 192
linear solve p 260162
time step continuity errors : sum local = 4.47183e-08, global = -5.12939e-21, cumulative = 2.06337e-20
ExecutionTime = 10.18 s  ClockTime = 9 s

Time = 0.008

Courant Number mean: 0.0802501 max: 0.551942
DILUPBiCGStab:  Solving for Ux, Initial residual = 0.0104507, Final residual = 2.04289e-06, No Iterations 5
DILUPBiCGStab:  Solving for Uy, Initial residual = 0.0222142, Final residual = 2.09775e-06, No Iterations 5
DILUPBiCGStab:  Solving for Uz, Initial residual = 0.0411141, Final residual = 1.20646e-05, No Iterations 5
linear solve U 162341
[OGL LOG] init_host_sparsity_pattern : 97 ms
[OGL LOG] matrix not stored update host matrix
[OGL LOG] update_host_mtx : 47 ms
[OGL LOG] matrix is not yet sorted, sorting host matrix
[OGL LOG] sort_host_mtx_sparsity_pattern : 38 ms
[OGL LOG] sort_host_mtx : 23 ms
[OGL LOG] init_preconditioner : 0 ms
[OGL LOG] solve : 39 ms
nonehipGKOCG:  Solving for p, Initial residual = 0.0380504, Final residual = 9.73897e-05, No Iterations 198
linear solve p 256536
time step continuity errors : sum local = 5.27596e-08, global = -9.05918e-21, cumulative = 1.15745e-20
[OGL LOG] init_host_sparsity_pattern : 97 ms
[OGL LOG] matrix not stored update host matrix
[OGL LOG] update_host_mtx : 46 ms
[OGL LOG] matrix is not yet sorted, sorting host matrix
[OGL LOG] sort_host_mtx_sparsity_pattern : 38 ms
[OGL LOG] sort_host_mtx : 23 ms
[OGL LOG] init_preconditioner : 0 ms
[OGL LOG] solve : 36 ms
nonehipGKOCG:  Solving for p, Initial residual = 0.0320544, Final residual = 9.91718e-05, No Iterations 187
linear solve p 252715
time step continuity errors : sum local = 4.85807e-08, global = 7.88636e-21, cumulative = 1.94608e-20
ExecutionTime = 11.01 s  ClockTime = 10 s

Time = 0.009

Courant Number mean: 0.083451 max: 0.554252
DILUPBiCGStab:  Solving for Ux, Initial residual = 0.00878111, Final residual = 8.66255e-07, No Iterations 5
DILUPBiCGStab:  Solving for Uy, Initial residual = 0.0188293, Final residual = 3.0875e-06, No Iterations 5
DILUPBiCGStab:  Solving for Uz, Initial residual = 0.0355293, Final residual = 9.4269e-06, No Iterations 5
linear solve U 162586
[OGL LOG] init_host_sparsity_pattern : 95 ms
[OGL LOG] matrix not stored update host matrix
[OGL LOG] update_host_mtx : 47 ms
[OGL LOG] matrix is not yet sorted, sorting host matrix
[OGL LOG] sort_host_mtx_sparsity_pattern : 38 ms
[OGL LOG] sort_host_mtx : 23 ms
[OGL LOG] init_preconditioner : 0 ms
[OGL LOG] solve : 37 ms
nonehipGKOCG:  Solving for p, Initial residual = 0.0273848, Final residual = 9.11391e-05, No Iterations 187
linear solve p 252097
time step continuity errors : sum local = 4.22664e-08, global = -1.89231e-21, cumulative = 1.75685e-20
[OGL LOG] init_host_sparsity_pattern : 95 ms
[OGL LOG] matrix not stored update host matrix
[OGL LOG] update_host_mtx : 46 ms
[OGL LOG] matrix is not yet sorted, sorting host matrix
[OGL LOG] sort_host_mtx_sparsity_pattern : 38 ms
[OGL LOG] sort_host_mtx : 26 ms
[OGL LOG] init_preconditioner : 0 ms
[OGL LOG] solve : 36 ms
nonehipGKOCG:  Solving for p, Initial residual = 0.0237264, Final residual = 9.73126e-05, No Iterations 184
linear solve p 253405
time step continuity errors : sum local = 4.56757e-08, global = 1.06816e-21, cumulative = 1.86367e-20
ExecutionTime = 11.84 s  ClockTime = 11 s

Time = 0.01

Courant Number mean: 0.0862267 max: 0.556108
DILUPBiCGStab:  Solving for Ux, Initial residual = 0.00752365, Final residual = 7.56655e-07, No Iterations 5
DILUPBiCGStab:  Solving for Uy, Initial residual = 0.0161602, Final residual = 1.18352e-06, No Iterations 5
DILUPBiCGStab:  Solving for Uz, Initial residual = 0.0308731, Final residual = 6.6757e-06, No Iterations 5
linear solve U 162045
[OGL LOG] init_host_sparsity_pattern : 97 ms
[OGL LOG] matrix not stored update host matrix
[OGL LOG] update_host_mtx : 47 ms
[OGL LOG] matrix is not yet sorted, sorting host matrix
[OGL LOG] sort_host_mtx_sparsity_pattern : 38 ms
[OGL LOG] sort_host_mtx : 24 ms
[OGL LOG] init_preconditioner : 0 ms
[OGL LOG] solve : 37 ms
nonehipGKOCG:  Solving for p, Initial residual = 0.0201112, Final residual = 9.79338e-05, No Iterations 187
linear solve p 254788
time step continuity errors : sum local = 5.24927e-08, global = 2.06439e-20, cumulative = 3.92806e-20
[OGL LOG] init_host_sparsity_pattern : 98 ms
[OGL LOG] matrix not stored update host matrix
[OGL LOG] update_host_mtx : 47 ms
[OGL LOG] matrix is not yet sorted, sorting host matrix
[OGL LOG] sort_host_mtx_sparsity_pattern : 38 ms
[OGL LOG] sort_host_mtx : 23 ms
[OGL LOG] init_preconditioner : 0 ms
[OGL LOG] solve : 35 ms
nonehipGKOCG:  Solving for p, Initial residual = 0.0177888, Final residual = 9.86639e-05, No Iterations 181
linear solve p 255449
time step continuity errors : sum local = 4.85553e-08, global = 1.14918e-20, cumulative = 5.07724e-20
ExecutionTime = 12.68 s  ClockTime = 11 s

End

