/*---------------------------------------------------------------------------*\
  =========                 |
  \\      /  F ield         | OpenFOAM: The Open Source CFD Toolbox
   \\    /   O peration     | Website:  https://openfoam.org
    \\  /    A nd           | Version:  8
     \\/     M anipulation  |
\*---------------------------------------------------------------------------*/
Build  : 8-40a5a48f630f
Exec   : icoFoam
Date   : Jul 28 2021
Time   : 13:19:12
Host   : "uc2n449.localdomain"
PID    : 1430251
I/O    : uncollated
Case   : /pfs/data5/home/kit/scc/nq7776/code/OBR/lidDrivenCavity3D/Variation_mesh/70/Variation_matrix_solver/BiCGStab_NoPrecond_Serial/base
nProcs : 1
sigFpe : Enabling floating point exception trapping (FOAM_SIGFPE).
fileModificationChecking : Monitoring run-time modified files using timeStampMaster (fileModificationSkew 10)
allowSystemOperations : Allowing user-supplied system call operations

// * * * * * * * * * * * * * * * * * * * * * * * * * * * * * * * * * * * * * //
Create time

Create mesh for time = 0

Reading transportProperties

Reading field p

Reading field U

Reading/calculating face flux field phi


Starting time loop

Time = 0.001

Courant Number mean: 0 max: 0
nonePBiCGStab:  Solving for Ux, Initial residual = 1, Final residual = 0.0584718, No Iterations 5
nonePBiCGStab:  Solving for Uy, Initial residual = 0, Final residual = 0, No Iterations 0
nonePBiCGStab:  Solving for Uz, Initial residual = 0, Final residual = 0, No Iterations 0
linear solve U 84
nonePBiCGStab:  Solving for p, Initial residual = 1, Final residual = 3.5996e-05, No Iterations 415
linear solve p 3652
time step continuity errors : sum local = 1.96955e-08, global = -2.55689e-21, cumulative = -2.55689e-21
nonePBiCGStab:  Solving for p, Initial residual = 0.681651, Final residual = 7.8811e-05, No Iterations 423
linear solve p 3707
time step continuity errors : sum local = 8.23491e-08, global = 4.94647e-21, cumulative = 2.38958e-21
ExecutionTime = 8.85 s  ClockTime = 9 s

Time = 0.002

Courant Number mean: 0.0344591 max: 0.51472
nonePBiCGStab:  Solving for Ux, Initial residual = 0.148918, Final residual = 0.0242951, No Iterations 5
nonePBiCGStab:  Solving for Uy, Initial residual = 0.378215, Final residual = 0.0558417, No Iterations 5
nonePBiCGStab:  Solving for Uz, Initial residual = 0.978333, Final residual = 0.180312, No Iterations 5
linear solve U 171
nonePBiCGStab:  Solving for p, Initial residual = 0.684919, Final residual = 9.96404e-05, No Iterations 415
linear solve p 3667
time step continuity errors : sum local = 1.7244e-07, global = 2.68194e-21, cumulative = 5.07152e-21
nonePBiCGStab:  Solving for p, Initial residual = 0.604651, Final residual = 9.61209e-05, No Iterations 178
linear solve p 1581
time step continuity errors : sum local = 8.79799e-08, global = -4.03871e-21, cumulative = 1.0328e-21
ExecutionTime = 14.45 s  ClockTime = 14 s

Time = 0.003

Courant Number mean: 0.0532595 max: 0.605941
nonePBiCGStab:  Solving for Ux, Initial residual = 0.0555797, Final residual = 0.00745545, No Iterations 5
nonePBiCGStab:  Solving for Uy, Initial residual = 0.135888, Final residual = 0.0234609, No Iterations 5
nonePBiCGStab:  Solving for Uz, Initial residual = 0.442146, Final residual = 0.0795894, No Iterations 5
linear solve U 173
nonePBiCGStab:  Solving for p, Initial residual = 0.613803, Final residual = 1.71848e-05, No Iterations 356
linear solve p 3104
time step continuity errors : sum local = 1.93681e-08, global = 3.89821e-21, cumulative = 4.93101e-21
nonePBiCGStab:  Solving for p, Initial residual = 0.546166, Final residual = 9.71191e-05, No Iterations 347
linear solve p 3036
time step continuity errors : sum local = 1.12703e-07, global = -4.38225e-21, cumulative = 5.4876e-22
ExecutionTime = 20.93 s  ClockTime = 21 s

Time = 0.004

Courant Number mean: 0.0638374 max: 0.623636
nonePBiCGStab:  Solving for Ux, Initial residual = 0.0336263, Final residual = 0.00392859, No Iterations 5
nonePBiCGStab:  Solving for Uy, Initial residual = 0.0886707, Final residual = 0.0110517, No Iterations 5
nonePBiCGStab:  Solving for Uz, Initial residual = 0.26766, Final residual = 0.039478, No Iterations 5
linear solve U 186
nonePBiCGStab:  Solving for p, Initial residual = 0.428977, Final residual = 8.89763e-05, No Iterations 405
linear solve p 3524
time step continuity errors : sum local = 6.15964e-08, global = -1.38597e-20, cumulative = -1.33109e-20
nonePBiCGStab:  Solving for p, Initial residual = 0.359481, Final residual = 9.30813e-05, No Iterations 399
linear solve p 3492
time step continuity errors : sum local = 8.71805e-08, global = -4.63332e-21, cumulative = -1.79443e-20
ExecutionTime = 28.32 s  ClockTime = 28 s

Time = 0.005

Courant Number mean: 0.0724656 max: 0.634645
nonePBiCGStab:  Solving for Ux, Initial residual = 0.0239867, Final residual = 0.00250566, No Iterations 5
nonePBiCGStab:  Solving for Uy, Initial residual = 0.0578563, Final residual = 0.00634152, No Iterations 5
nonePBiCGStab:  Solving for Uz, Initial residual = 0.162475, Final residual = 0.0302191, No Iterations 5
linear solve U 182
nonePBiCGStab:  Solving for p, Initial residual = 0.377256, Final residual = 5.90715e-05, No Iterations 334
linear solve p 2899
time step continuity errors : sum local = 5.49311e-08, global = -5.94658e-21, cumulative = -2.38908e-20
nonePBiCGStab:  Solving for p, Initial residual = 0.323639, Final residual = 9.19484e-05, No Iterations 339
linear solve p 2963
time step continuity errors : sum local = 8.57839e-08, global = 1.47121e-20, cumulative = -9.17876e-21
ExecutionTime = 34.53 s  ClockTime = 35 s

Time = 0.006

Courant Number mean: 0.0792285 max: 0.641411
nonePBiCGStab:  Solving for Ux, Initial residual = 0.0181815, Final residual = 0.00163378, No Iterations 5
nonePBiCGStab:  Solving for Uy, Initial residual = 0.0429488, Final residual = 0.00348643, No Iterations 5
nonePBiCGStab:  Solving for Uz, Initial residual = 0.134508, Final residual = 0.0250403, No Iterations 5
linear solve U 187
nonePBiCGStab:  Solving for p, Initial residual = 0.274587, Final residual = 9.48335e-05, No Iterations 370
linear solve p 3238
time step continuity errors : sum local = 6.05136e-08, global = -5.18131e-21, cumulative = -1.43601e-20
nonePBiCGStab:  Solving for p, Initial residual = 0.230663, Final residual = 9.78581e-05, No Iterations 397
linear solve p 3467
time step continuity errors : sum local = 5.73367e-08, global = 5.01439e-22, cumulative = -1.38586e-20
ExecutionTime = 41.59 s  ClockTime = 42 s

Time = 0.007

Courant Number mean: 0.0849182 max: 0.646016
nonePBiCGStab:  Solving for Ux, Initial residual = 0.0142415, Final residual = 0.00106162, No Iterations 5
nonePBiCGStab:  Solving for Uy, Initial residual = 0.0342329, Final residual = 0.00236565, No Iterations 5
nonePBiCGStab:  Solving for Uz, Initial residual = 0.100733, Final residual = 0.015836, No Iterations 5
linear solve U 186
nonePBiCGStab:  Solving for p, Initial residual = 0.228362, Final residual = 8.69661e-05, No Iterations 319
linear solve p 2785
time step continuity errors : sum local = 7.52134e-08, global = 2.00962e-20, cumulative = 6.23754e-21
nonePBiCGStab:  Solving for p, Initial residual = 0.193171, Final residual = 9.85226e-05, No Iterations 325
linear solve p 2854
time step continuity errors : sum local = 8.72776e-08, global = 1.48174e-20, cumulative = 2.1055e-20
ExecutionTime = 47.59 s  ClockTime = 48 s

Time = 0.008

Courant Number mean: 0.0897004 max: 0.649572
nonePBiCGStab:  Solving for Ux, Initial residual = 0.0118068, Final residual = 0.000833338, No Iterations 5
nonePBiCGStab:  Solving for Uy, Initial residual = 0.0270499, Final residual = 0.00181784, No Iterations 5
nonePBiCGStab:  Solving for Uz, Initial residual = 0.0912819, Final residual = 0.0187545, No Iterations 5
linear solve U 187
nonePBiCGStab:  Solving for p, Initial residual = 0.178713, Final residual = 9.82899e-05, No Iterations 401
linear solve p 3520
time step continuity errors : sum local = 4.55374e-08, global = 1.81065e-20, cumulative = 3.91614e-20
nonePBiCGStab:  Solving for p, Initial residual = 0.150754, Final residual = 9.55309e-05, No Iterations 400
linear solve p 3496
time step continuity errors : sum local = 4.47672e-08, global = 1.41161e-20, cumulative = 5.32776e-20
ExecutionTime = 54.96 s  ClockTime = 55 s

Time = 0.009

Courant Number mean: 0.0938102 max: 0.652182
nonePBiCGStab:  Solving for Ux, Initial residual = 0.00971673, Final residual = 0.000598421, No Iterations 5
nonePBiCGStab:  Solving for Uy, Initial residual = 0.0232632, Final residual = 0.0012466, No Iterations 5
nonePBiCGStab:  Solving for Uz, Initial residual = 0.0728988, Final residual = 0.0111959, No Iterations 5
linear solve U 187
nonePBiCGStab:  Solving for p, Initial residual = 0.150698, Final residual = 9.49054e-05, No Iterations 326
linear solve p 2853
time step continuity errors : sum local = 8.09839e-08, global = 3.02557e-21, cumulative = 5.63031e-20
nonePBiCGStab:  Solving for p, Initial residual = 0.127249, Final residual = 9.98763e-05, No Iterations 168
linear solve p 1476
time step continuity errors : sum local = 7.97735e-08, global = 2.01075e-20, cumulative = 7.64107e-20
ExecutionTime = 59.66 s  ClockTime = 60 s

Time = 0.01

Courant Number mean: 0.0973761 max: 0.654408
nonePBiCGStab:  Solving for Ux, Initial residual = 0.00838844, Final residual = 0.00059861, No Iterations 5
nonePBiCGStab:  Solving for Uy, Initial residual = 0.0192246, Final residual = 0.00118526, No Iterations 5
nonePBiCGStab:  Solving for Uz, Initial residual = 0.067389, Final residual = 0.0144549, No Iterations 5
linear solve U 188
nonePBiCGStab:  Solving for p, Initial residual = 0.129373, Final residual = 3.57726e-05, No Iterations 399
linear solve p 3489
time step continuity errors : sum local = 1.87202e-08, global = -1.29433e-20, cumulative = 6.34674e-20
nonePBiCGStab:  Solving for p, Initial residual = 0.109759, Final residual = 9.94691e-05, No Iterations 390
linear solve p 3410
time step continuity errors : sum local = 4.37603e-08, global = -6.32659e-21, cumulative = 5.71408e-20
ExecutionTime = 66.91 s  ClockTime = 67 s

End

