/*---------------------------------------------------------------------------*\
  =========                 |
  \\      /  F ield         | OpenFOAM: The Open Source CFD Toolbox
   \\    /   O peration     | Website:  https://openfoam.org
    \\  /    A nd           | Version:  8
     \\/     M anipulation  |
\*---------------------------------------------------------------------------*/
Build  : 8-14d69e1ee166
Exec   : icoFoam
Date   : Jul 29 2021
Time   : 05:07:31
Host   : "guyot.icl.utk.edu"
PID    : 245421
I/O    : uncollated
Case   : /home/greole/code/OBR/lidDrivenCavity3D/Variation_mesh/5/Variation_matrix_solver/BiCGStab_NoPrecond_CUDA/base
nProcs : 1
sigFpe : Enabling floating point exception trapping (FOAM_SIGFPE).
fileModificationChecking : Monitoring run-time modified files using timeStampMaster (fileModificationSkew 10)
allowSystemOperations : Allowing user-supplied system call operations

// * * * * * * * * * * * * * * * * * * * * * * * * * * * * * * * * * * * * * //
Create time

Create mesh for time = 0

Reading transportProperties

Reading field p

Reading field U

Reading/calculating face flux field phi


Starting time loop

Time = 0.001

Courant Number mean: 0 max: 0
DILUPBiCGStab:  Solving for Ux, Initial residual = 1, Final residual = 8.38041e-30, No Iterations 5
DILUPBiCGStab:  Solving for Uy:  solution singularity
DILUPBiCGStab:  Solving for Uz:  solution singularity
linear solve U 168
[OGL LOG] init_host_sparsity_pattern : 0 ms
[OGL LOG] matrix not stored update host matrix
[OGL LOG] update_host_mtx : 0 ms
[OGL LOG] matrix is not yet sorted, compute sorting idxs
[OGL LOG] compute_sort : 0 ms
[OGL LOG] matrix is not yet sorted, sorting host matrix
[OGL LOG] sort_host_mtx_sparsity_pattern : 0 ms
[OGL LOG] sort_host_mtx : 0 ms
[OGL LOG] init_preconditioner : 0 ms
[OGL LOG] solve : 12 ms
nonecudaGKOBiCGStab:  Solving for p, Initial residual = 1, Final residual = 7.38526e-05, No Iterations 23
linear solve p 1659491
time step continuity errors : sum local = 2.75901e-08, global = -8.08983e-22, cumulative = -8.08983e-22
[OGL LOG] init_host_sparsity_pattern : 0 ms
[OGL LOG] matrix not stored update host matrix
[OGL LOG] update_host_mtx : 0 ms
[OGL LOG] matrix is not yet sorted, sorting host matrix
[OGL LOG] sort_host_mtx_sparsity_pattern : 0 ms
[OGL LOG] sort_host_mtx : 0 ms
[OGL LOG] init_preconditioner : 0 ms
[OGL LOG] solve : 9 ms
nonecudaGKOBiCGStab:  Solving for p, Initial residual = 0.0545096, Final residual = 6.23111e-05, No Iterations 20
linear solve p 10485
time step continuity errors : sum local = 4.64828e-08, global = -4.36338e-21, cumulative = -5.17236e-21
ExecutionTime = 1.7 s  ClockTime = 2 s

Time = 0.002

Courant Number mean: 0.000593169 max: 0.0013735
DILUPBiCGStab:  Solving for Ux, Initial residual = 0.290561, Final residual = 1.32916e-30, No Iterations 5
DILUPBiCGStab:  Solving for Uy, Initial residual = 0.317552, Final residual = 1.13383e-30, No Iterations 5
DILUPBiCGStab:  Solving for Uz, Initial residual = 0.341861, Final residual = 2.16822e-30, No Iterations 5
linear solve U 132
[OGL LOG] init_host_sparsity_pattern : 0 ms
[OGL LOG] matrix not stored update host matrix
[OGL LOG] update_host_mtx : 0 ms
[OGL LOG] matrix is not yet sorted, sorting host matrix
[OGL LOG] sort_host_mtx_sparsity_pattern : 0 ms
[OGL LOG] sort_host_mtx : 0 ms
[OGL LOG] init_preconditioner : 0 ms
[OGL LOG] solve : 8 ms
nonecudaGKOBiCGStab:  Solving for p, Initial residual = 0.110324, Final residual = 9.79016e-05, No Iterations 18
linear solve p 9534
time step continuity errors : sum local = 7.87104e-08, global = -8.43683e-21, cumulative = -1.36092e-20
[OGL LOG] init_host_sparsity_pattern : 0 ms
[OGL LOG] matrix not stored update host matrix
[OGL LOG] update_host_mtx : 0 ms
[OGL LOG] matrix is not yet sorted, sorting host matrix
[OGL LOG] sort_host_mtx_sparsity_pattern : 0 ms
[OGL LOG] sort_host_mtx : 0 ms
[OGL LOG] init_preconditioner : 0 ms
[OGL LOG] solve : 3 ms
nonecudaGKOBiCGStab:  Solving for p, Initial residual = 0.00289133, Final residual = 9.53076e-05, No Iterations 5
linear solve p 3786
time step continuity errors : sum local = 7.51026e-08, global = 6.67369e-21, cumulative = -6.9355e-21
ExecutionTime = 1.71 s  ClockTime = 2 s

Time = 0.003

Courant Number mean: 0.00113048 max: 0.00263293
DILUPBiCGStab:  Solving for Ux, Initial residual = 0.161956, Final residual = 7.38268e-31, No Iterations 5
DILUPBiCGStab:  Solving for Uy, Initial residual = 0.186583, Final residual = 6.79964e-31, No Iterations 5
DILUPBiCGStab:  Solving for Uz, Initial residual = 0.22463, Final residual = 1.59654e-30, No Iterations 5
linear solve U 110
[OGL LOG] init_host_sparsity_pattern : 0 ms
[OGL LOG] matrix not stored update host matrix
[OGL LOG] update_host_mtx : 0 ms
[OGL LOG] matrix is not yet sorted, sorting host matrix
[OGL LOG] sort_host_mtx_sparsity_pattern : 0 ms
[OGL LOG] sort_host_mtx : 0 ms
[OGL LOG] init_preconditioner : 0 ms
[OGL LOG] solve : 7 ms
nonecudaGKOBiCGStab:  Solving for p, Initial residual = 0.0561868, Final residual = 9.67228e-05, No Iterations 15
linear solve p 8199
time step continuity errors : sum local = 9.09599e-08, global = -5.03339e-22, cumulative = -7.43884e-21
[OGL LOG] init_host_sparsity_pattern : 0 ms
[OGL LOG] matrix not stored update host matrix
[OGL LOG] update_host_mtx : 0 ms
[OGL LOG] matrix is not yet sorted, sorting host matrix
[OGL LOG] sort_host_mtx_sparsity_pattern : 0 ms
[OGL LOG] sort_host_mtx : 0 ms
[OGL LOG] init_preconditioner : 0 ms
[OGL LOG] solve : 2 ms
nonecudaGKOBiCGStab:  Solving for p, Initial residual = 0.00152782, Final residual = 9.66959e-05, No Iterations 4
linear solve p 3105
time step continuity errors : sum local = 8.8861e-08, global = -1.5534e-20, cumulative = -2.29729e-20
ExecutionTime = 1.72 s  ClockTime = 2 s

Time = 0.004

Courant Number mean: 0.00161825 max: 0.00379119
DILUPBiCGStab:  Solving for Ux, Initial residual = 0.108851, Final residual = 5.01435e-31, No Iterations 5
DILUPBiCGStab:  Solving for Uy, Initial residual = 0.129127, Final residual = 4.60844e-31, No Iterations 5
DILUPBiCGStab:  Solving for Uz, Initial residual = 0.173121, Final residual = 1.0076e-30, No Iterations 5
linear solve U 110
[OGL LOG] init_host_sparsity_pattern : 0 ms
[OGL LOG] matrix not stored update host matrix
[OGL LOG] update_host_mtx : 0 ms
[OGL LOG] matrix is not yet sorted, sorting host matrix
[OGL LOG] sort_host_mtx_sparsity_pattern : 0 ms
[OGL LOG] sort_host_mtx : 0 ms
[OGL LOG] init_preconditioner : 0 ms
[OGL LOG] solve : 8 ms
nonecudaGKOBiCGStab:  Solving for p, Initial residual = 0.0347132, Final residual = 7.31885e-05, No Iterations 16
linear solve p 8674
time step continuity errors : sum local = 7.51455e-08, global = 5.23605e-22, cumulative = -2.24493e-20
[OGL LOG] init_host_sparsity_pattern : 0 ms
[OGL LOG] matrix not stored update host matrix
[OGL LOG] update_host_mtx : 0 ms
[OGL LOG] matrix is not yet sorted, sorting host matrix
[OGL LOG] sort_host_mtx_sparsity_pattern : 0 ms
[OGL LOG] sort_host_mtx : 0 ms
[OGL LOG] init_preconditioner : 0 ms
[OGL LOG] solve : 2 ms
nonecudaGKOBiCGStab:  Solving for p, Initial residual = 0.0010084, Final residual = 9.35622e-05, No Iterations 3
linear solve p 2893
time step continuity errors : sum local = 8.23486e-08, global = -1.3938e-20, cumulative = -3.63873e-20
ExecutionTime = 1.73 s  ClockTime = 2 s

Time = 0.005

Courant Number mean: 0.0020619 max: 0.00485799
DILUPBiCGStab:  Solving for Ux, Initial residual = 0.0800505, Final residual = 3.73228e-31, No Iterations 5
DILUPBiCGStab:  Solving for Uy, Initial residual = 0.096707, Final residual = 3.34234e-31, No Iterations 5
DILUPBiCGStab:  Solving for Uz, Initial residual = 0.141183, Final residual = 7.233e-31, No Iterations 5
linear solve U 111
[OGL LOG] init_host_sparsity_pattern : 0 ms
[OGL LOG] matrix not stored update host matrix
[OGL LOG] update_host_mtx : 0 ms
[OGL LOG] matrix is not yet sorted, sorting host matrix
[OGL LOG] sort_host_mtx_sparsity_pattern : 0 ms
[OGL LOG] sort_host_mtx : 0 ms
[OGL LOG] init_preconditioner : 0 ms
[OGL LOG] solve : 7 ms
nonecudaGKOBiCGStab:  Solving for p, Initial residual = 0.023564, Final residual = 9.89628e-05, No Iterations 14
linear solve p 7773
time step continuity errors : sum local = 1.07437e-07, global = 1.30364e-21, cumulative = -3.50836e-20
[OGL LOG] init_host_sparsity_pattern : 0 ms
[OGL LOG] matrix not stored update host matrix
[OGL LOG] update_host_mtx : 0 ms
[OGL LOG] matrix is not yet sorted, sorting host matrix
[OGL LOG] sort_host_mtx_sparsity_pattern : 0 ms
[OGL LOG] sort_host_mtx : 0 ms
[OGL LOG] init_preconditioner : 0 ms
[OGL LOG] solve : 2 ms
nonecudaGKOBiCGStab:  Solving for p, Initial residual = 0.000756603, Final residual = 9.7233e-05, No Iterations 4
linear solve p 3108
time step continuity errors : sum local = 1.02941e-07, global = 1.15077e-20, cumulative = -2.35759e-20
ExecutionTime = 1.75 s  ClockTime = 2 s

Time = 0.006

Courant Number mean: 0.0024662 max: 0.00584197
DILUPBiCGStab:  Solving for Ux, Initial residual = 0.0620523, Final residual = 2.92096e-31, No Iterations 5
DILUPBiCGStab:  Solving for Uy, Initial residual = 0.0759702, Final residual = 2.54541e-31, No Iterations 5
DILUPBiCGStab:  Solving for Uz, Initial residual = 0.11772, Final residual = 6.10111e-31, No Iterations 5
linear solve U 111
[OGL LOG] init_host_sparsity_pattern : 0 ms
[OGL LOG] matrix not stored update host matrix
[OGL LOG] update_host_mtx : 0 ms
[OGL LOG] matrix is not yet sorted, sorting host matrix
[OGL LOG] sort_host_mtx_sparsity_pattern : 0 ms
[OGL LOG] sort_host_mtx : 0 ms
[OGL LOG] init_preconditioner : 0 ms
[OGL LOG] solve : 8 ms
nonecudaGKOBiCGStab:  Solving for p, Initial residual = 0.0172572, Final residual = 7.27787e-05, No Iterations 16
linear solve p 8644
time step continuity errors : sum local = 8.19007e-08, global = 7.64977e-21, cumulative = -1.59261e-20
[OGL LOG] init_host_sparsity_pattern : 0 ms
[OGL LOG] matrix not stored update host matrix
[OGL LOG] update_host_mtx : 0 ms
[OGL LOG] matrix is not yet sorted, sorting host matrix
[OGL LOG] sort_host_mtx_sparsity_pattern : 0 ms
[OGL LOG] sort_host_mtx : 0 ms
[OGL LOG] init_preconditioner : 0 ms
[OGL LOG] solve : 2 ms
nonecudaGKOBiCGStab:  Solving for p, Initial residual = 0.000607053, Final residual = 7.56555e-05, No Iterations 3
linear solve p 2886
time step continuity errors : sum local = 7.78973e-08, global = -1.55345e-21, cumulative = -1.74796e-20
ExecutionTime = 1.76 s  ClockTime = 2 s

Time = 0.007

Courant Number mean: 0.00283513 max: 0.00675071
DILUPBiCGStab:  Solving for Ux, Initial residual = 0.049768, Final residual = 2.35919e-31, No Iterations 5
DILUPBiCGStab:  Solving for Uy, Initial residual = 0.0616553, Final residual = 2.02667e-31, No Iterations 5
DILUPBiCGStab:  Solving for Uz, Initial residual = 0.10034, Final residual = 6.13212e-31, No Iterations 5
linear solve U 109
[OGL LOG] init_host_sparsity_pattern : 0 ms
[OGL LOG] matrix not stored update host matrix
[OGL LOG] update_host_mtx : 0 ms
[OGL LOG] matrix is not yet sorted, sorting host matrix
[OGL LOG] sort_host_mtx_sparsity_pattern : 0 ms
[OGL LOG] sort_host_mtx : 0 ms
[OGL LOG] init_preconditioner : 0 ms
[OGL LOG] solve : 7 ms
nonecudaGKOBiCGStab:  Solving for p, Initial residual = 0.0132833, Final residual = 9.85147e-05, No Iterations 14
linear solve p 7766
time step continuity errors : sum local = 1.14312e-07, global = -1.02256e-20, cumulative = -2.77052e-20
[OGL LOG] init_host_sparsity_pattern : 0 ms
[OGL LOG] matrix not stored update host matrix
[OGL LOG] update_host_mtx : 0 ms
[OGL LOG] matrix is not yet sorted, sorting host matrix
[OGL LOG] sort_host_mtx_sparsity_pattern : 0 ms
[OGL LOG] sort_host_mtx : 0 ms
[OGL LOG] init_preconditioner : 0 ms
[OGL LOG] solve : 2 ms
nonecudaGKOBiCGStab:  Solving for p, Initial residual = 0.000516277, Final residual = 9.39684e-05, No Iterations 3
linear solve p 2888
time step continuity errors : sum local = 1.06613e-07, global = -2.70356e-20, cumulative = -5.47407e-20
ExecutionTime = 1.77 s  ClockTime = 2 s

Time = 0.008

Courant Number mean: 0.00317234 max: 0.00759081
DILUPBiCGStab:  Solving for Ux, Initial residual = 0.0409139, Final residual = 1.95727e-31, No Iterations 5
DILUPBiCGStab:  Solving for Uy, Initial residual = 0.0511998, Final residual = 1.66915e-31, No Iterations 5
DILUPBiCGStab:  Solving for Uz, Initial residual = 0.0869859, Final residual = 6.25384e-31, No Iterations 5
linear solve U 110
[OGL LOG] init_host_sparsity_pattern : 0 ms
[OGL LOG] matrix not stored update host matrix
[OGL LOG] update_host_mtx : 0 ms
[OGL LOG] matrix is not yet sorted, sorting host matrix
[OGL LOG] sort_host_mtx_sparsity_pattern : 0 ms
[OGL LOG] sort_host_mtx : 0 ms
[OGL LOG] init_preconditioner : 0 ms
[OGL LOG] solve : 7 ms
nonecudaGKOBiCGStab:  Solving for p, Initial residual = 0.0106209, Final residual = 9.24236e-05, No Iterations 15
linear solve p 8180
time step continuity errors : sum local = 1.09842e-07, global = 1.99351e-20, cumulative = -3.48057e-20
[OGL LOG] init_host_sparsity_pattern : 0 ms
[OGL LOG] matrix not stored update host matrix
[OGL LOG] update_host_mtx : 0 ms
[OGL LOG] matrix is not yet sorted, sorting host matrix
[OGL LOG] sort_host_mtx_sparsity_pattern : 0 ms
[OGL LOG] sort_host_mtx : 0 ms
[OGL LOG] init_preconditioner : 0 ms
[OGL LOG] solve : 2 ms
nonecudaGKOBiCGStab:  Solving for p, Initial residual = 0.000464271, Final residual = 9.5385e-05, No Iterations 3
linear solve p 2660
time step continuity errors : sum local = 1.0617e-07, global = -1.67785e-20, cumulative = -5.15842e-20
ExecutionTime = 1.78 s  ClockTime = 2 s

Time = 0.009

Courant Number mean: 0.00348093 max: 0.00836828
DILUPBiCGStab:  Solving for Ux, Initial residual = 0.0342331, Final residual = 1.65767e-31, No Iterations 5
DILUPBiCGStab:  Solving for Uy, Initial residual = 0.0432951, Final residual = 1.40369e-31, No Iterations 5
DILUPBiCGStab:  Solving for Uz, Initial residual = 0.0758047, Final residual = 5.8459e-31, No Iterations 5
linear solve U 109
[OGL LOG] init_host_sparsity_pattern : 0 ms
[OGL LOG] matrix not stored update host matrix
[OGL LOG] update_host_mtx : 0 ms
[OGL LOG] matrix is not yet sorted, sorting host matrix
[OGL LOG] sort_host_mtx_sparsity_pattern : 0 ms
[OGL LOG] sort_host_mtx : 0 ms
[OGL LOG] init_preconditioner : 0 ms
[OGL LOG] solve : 7 ms
nonecudaGKOBiCGStab:  Solving for p, Initial residual = 0.00873186, Final residual = 8.23352e-05, No Iterations 15
linear solve p 8171
time step continuity errors : sum local = 9.95966e-08, global = 1.18088e-20, cumulative = -3.97754e-20
[OGL LOG] init_host_sparsity_pattern : 0 ms
[OGL LOG] matrix not stored update host matrix
[OGL LOG] update_host_mtx : 0 ms
[OGL LOG] matrix is not yet sorted, sorting host matrix
[OGL LOG] sort_host_mtx_sparsity_pattern : 0 ms
[OGL LOG] sort_host_mtx : 0 ms
[OGL LOG] init_preconditioner : 0 ms
[OGL LOG] solve : 2 ms
nonecudaGKOBiCGStab:  Solving for p, Initial residual = 0.000417472, Final residual = 8.46674e-05, No Iterations 3
linear solve p 2664
time step continuity errors : sum local = 9.60471e-08, global = 3.69253e-21, cumulative = -3.60829e-20
ExecutionTime = 1.79 s  ClockTime = 2 s

Time = 0.01

Courant Number mean: 0.00376373 max: 0.00908825
DILUPBiCGStab:  Solving for Ux, Initial residual = 0.0290517, Final residual = 1.43119e-31, No Iterations 5
DILUPBiCGStab:  Solving for Uy, Initial residual = 0.0371211, Final residual = 1.19447e-31, No Iterations 5
DILUPBiCGStab:  Solving for Uz, Initial residual = 0.0677636, Final residual = 5.05546e-31, No Iterations 5
linear solve U 109
[OGL LOG] init_host_sparsity_pattern : 0 ms
[OGL LOG] matrix not stored update host matrix
[OGL LOG] update_host_mtx : 0 ms
[OGL LOG] matrix is not yet sorted, sorting host matrix
[OGL LOG] sort_host_mtx_sparsity_pattern : 0 ms
[OGL LOG] sort_host_mtx : 0 ms
[OGL LOG] init_preconditioner : 0 ms
[OGL LOG] solve : 7 ms
nonecudaGKOBiCGStab:  Solving for p, Initial residual = 0.00733502, Final residual = 9.73086e-05, No Iterations 14
linear solve p 7764
time step continuity errors : sum local = 1.19351e-07, global = -2.48881e-20, cumulative = -6.0971e-20
[OGL LOG] init_host_sparsity_pattern : 0 ms
[OGL LOG] matrix not stored update host matrix
[OGL LOG] update_host_mtx : 0 ms
[OGL LOG] matrix is not yet sorted, sorting host matrix
[OGL LOG] sort_host_mtx_sparsity_pattern : 0 ms
[OGL LOG] sort_host_mtx : 0 ms
[OGL LOG] init_preconditioner : 0 ms
[OGL LOG] solve : 2 ms
nonecudaGKOBiCGStab:  Solving for p, Initial residual = 0.000386205, Final residual = 9.31626e-05, No Iterations 3
linear solve p 2658
time step continuity errors : sum local = 1.12334e-07, global = 2.30938e-21, cumulative = -5.86616e-20
ExecutionTime = 1.8 s  ClockTime = 2 s

End

