/*---------------------------------------------------------------------------*\
  =========                 |
  \\      /  F ield         | OpenFOAM: The Open Source CFD Toolbox
   \\    /   O peration     | Website:  https://openfoam.org
    \\  /    A nd           | Version:  8
     \\/     M anipulation  |
\*---------------------------------------------------------------------------*/
Build  : 8-ef60d22ea792
Exec   : icoFoam
Date   : Jul 29 2021
Time   : 08:04:27
Host   : "nla-gpu2.ianm.kit.edu"
PID    : 1972443
I/O    : uncollated
Case   : /home/greole/code/OBR/lidDrivenCavity3D/Variation_mesh/40/Variation_matrix_solver/IR_NoPrecond_HIP/base
nProcs : 1
sigFpe : Enabling floating point exception trapping (FOAM_SIGFPE).
fileModificationChecking : Monitoring run-time modified files using timeStampMaster (fileModificationSkew 10)
allowSystemOperations : Allowing user-supplied system call operations

// * * * * * * * * * * * * * * * * * * * * * * * * * * * * * * * * * * * * * //
Create time

Create mesh for time = 0

Reading transportProperties

Reading field p

Reading field U

Reading/calculating face flux field phi


Starting time loop

Time = 0.001

Courant Number mean: 0 max: 0
DILUPBiCGStab:  Solving for Ux, Initial residual = 1, Final residual = 1.19415e-05, No Iterations 5
DILUPBiCGStab:  Solving for Uy:  solution singularity
DILUPBiCGStab:  Solving for Uz:  solution singularity
linear solve U 23928
[OGL LOG] init_host_sparsity_pattern : 30 ms
[OGL LOG] matrix not stored update host matrix
[OGL LOG] update_host_mtx : 14 ms
[OGL LOG] matrix is not yet sorted, compute sorting idxs
[OGL LOG] compute_sort : 547 ms
[OGL LOG] matrix is not yet sorted, sorting host matrix
[OGL LOG] sort_host_mtx_sparsity_pattern : 12 ms
[OGL LOG] sort_host_mtx : 7 ms
[OGL LOG] init_preconditioner : 0 ms
[OGL LOG] solve : 79 ms
nonehipGKOIR:  Solving for p, Initial residual = 1, Final residual = 8.95712e-06, No Iterations 3
linear solve p 1121842
time step continuity errors : sum local = 5.14905e-09, global = -3.47608e-21, cumulative = -3.47608e-21
[OGL LOG] init_host_sparsity_pattern : 27 ms
[OGL LOG] matrix not stored update host matrix
[OGL LOG] update_host_mtx : 13 ms
[OGL LOG] matrix is not yet sorted, sorting host matrix
[OGL LOG] sort_host_mtx_sparsity_pattern : 11 ms
[OGL LOG] sort_host_mtx : 6 ms
[OGL LOG] init_preconditioner : 0 ms
[OGL LOG] solve : 54 ms
nonehipGKOIR:  Solving for p, Initial residual = 0.607463, Final residual = 3.49406e-06, No Iterations 3
linear solve p 117627
time step continuity errors : sum local = 2.92115e-09, global = 7.37013e-21, cumulative = 3.89405e-21
ExecutionTime = 1.7 s  ClockTime = 1 s

Time = 0.002

Courant Number mean: 0.0213818 max: 0.237104
DILUPBiCGStab:  Solving for Ux, Initial residual = 0.179109, Final residual = 2.29028e-06, No Iterations 5
DILUPBiCGStab:  Solving for Uy, Initial residual = 0.29084, Final residual = 3.23159e-06, No Iterations 5
DILUPBiCGStab:  Solving for Uz, Initial residual = 0.958354, Final residual = 1.2531e-05, No Iterations 5
linear solve U 44270
[OGL LOG] init_host_sparsity_pattern : 26 ms
[OGL LOG] matrix not stored update host matrix
[OGL LOG] update_host_mtx : 13 ms
[OGL LOG] matrix is not yet sorted, sorting host matrix
[OGL LOG] sort_host_mtx_sparsity_pattern : 11 ms
[OGL LOG] sort_host_mtx : 8 ms
[OGL LOG] init_preconditioner : 0 ms
[OGL LOG] solve : 58 ms
nonehipGKOIR:  Solving for p, Initial residual = 0.459146, Final residual = 1.49093e-06, No Iterations 3
linear solve p 123996
time step continuity errors : sum local = 1.18909e-09, global = -1.48534e-20, cumulative = -1.09593e-20
[OGL LOG] init_host_sparsity_pattern : 27 ms
[OGL LOG] matrix not stored update host matrix
[OGL LOG] update_host_mtx : 13 ms
[OGL LOG] matrix is not yet sorted, sorting host matrix
[OGL LOG] sort_host_mtx_sparsity_pattern : 11 ms
[OGL LOG] sort_host_mtx : 6 ms
[OGL LOG] init_preconditioner : 0 ms
[OGL LOG] solve : 57 ms
nonehipGKOIR:  Solving for p, Initial residual = 0.363692, Final residual = 1.21055e-06, No Iterations 3
linear solve p 121772
time step continuity errors : sum local = 1.00444e-09, global = 4.91001e-22, cumulative = -1.04683e-20
ExecutionTime = 2.12 s  ClockTime = 2 s

Time = 0.003

Courant Number mean: 0.032521 max: 0.306671
DILUPBiCGStab:  Solving for Ux, Initial residual = 0.0649075, Final residual = 7.63599e-07, No Iterations 5
DILUPBiCGStab:  Solving for Uy, Initial residual = 0.105098, Final residual = 6.05257e-07, No Iterations 5
DILUPBiCGStab:  Solving for Uz, Initial residual = 0.144732, Final residual = 1.65114e-06, No Iterations 5
linear solve U 43939
[OGL LOG] init_host_sparsity_pattern : 27 ms
[OGL LOG] matrix not stored update host matrix
[OGL LOG] update_host_mtx : 13 ms
[OGL LOG] matrix is not yet sorted, sorting host matrix
[OGL LOG] sort_host_mtx_sparsity_pattern : 11 ms
[OGL LOG] sort_host_mtx : 6 ms
[OGL LOG] init_preconditioner : 0 ms
[OGL LOG] solve : 44 ms
nonehipGKOIR:  Solving for p, Initial residual = 0.164436, Final residual = 4.23849e-05, No Iterations 2
linear solve p 106833
time step continuity errors : sum local = 2.72644e-08, global = 7.54153e-21, cumulative = -2.92681e-21
[OGL LOG] init_host_sparsity_pattern : 27 ms
[OGL LOG] matrix not stored update host matrix
[OGL LOG] update_host_mtx : 13 ms
[OGL LOG] matrix is not yet sorted, sorting host matrix
[OGL LOG] sort_host_mtx_sparsity_pattern : 11 ms
[OGL LOG] sort_host_mtx : 6 ms
[OGL LOG] init_preconditioner : 0 ms
[OGL LOG] solve : 44 ms
nonehipGKOIR:  Solving for p, Initial residual = 0.129697, Final residual = 3.13525e-05, No Iterations 2
linear solve p 108072
time step continuity errors : sum local = 2.01067e-08, global = 7.82146e-21, cumulative = 4.89465e-21
ExecutionTime = 2.49 s  ClockTime = 2 s

Time = 0.004

Courant Number mean: 0.0391011 max: 0.328163
DILUPBiCGStab:  Solving for Ux, Initial residual = 0.0380631, Final residual = 2.89173e-07, No Iterations 5
DILUPBiCGStab:  Solving for Uy, Initial residual = 0.0656651, Final residual = 3.025e-07, No Iterations 5
DILUPBiCGStab:  Solving for Uz, Initial residual = 0.105705, Final residual = 6.74722e-07, No Iterations 5
linear solve U 43661
[OGL LOG] init_host_sparsity_pattern : 27 ms
[OGL LOG] matrix not stored update host matrix
[OGL LOG] update_host_mtx : 13 ms
[OGL LOG] matrix is not yet sorted, sorting host matrix
[OGL LOG] sort_host_mtx_sparsity_pattern : 11 ms
[OGL LOG] sort_host_mtx : 6 ms
[OGL LOG] init_preconditioner : 0 ms
[OGL LOG] solve : 45 ms
nonehipGKOIR:  Solving for p, Initial residual = 0.0833901, Final residual = 2.16729e-05, No Iterations 2
linear solve p 107820
time step continuity errors : sum local = 1.34596e-08, global = -6.84679e-22, cumulative = 4.20997e-21
[OGL LOG] init_host_sparsity_pattern : 27 ms
[OGL LOG] matrix not stored update host matrix
[OGL LOG] update_host_mtx : 13 ms
[OGL LOG] matrix is not yet sorted, sorting host matrix
[OGL LOG] sort_host_mtx_sparsity_pattern : 11 ms
[OGL LOG] sort_host_mtx : 6 ms
[OGL LOG] init_preconditioner : 0 ms
[OGL LOG] solve : 44 ms
nonehipGKOIR:  Solving for p, Initial residual = 0.0649205, Final residual = 1.46065e-05, No Iterations 2
linear solve p 107337
time step continuity errors : sum local = 9.19044e-09, global = -2.62316e-20, cumulative = -2.20216e-20
ExecutionTime = 2.86 s  ClockTime = 2 s

Time = 0.005

Courant Number mean: 0.0438792 max: 0.338387
DILUPBiCGStab:  Solving for Ux, Initial residual = 0.0264331, Final residual = 7.82434e-08, No Iterations 5
DILUPBiCGStab:  Solving for Uy, Initial residual = 0.0455709, Final residual = 1.71039e-07, No Iterations 5
DILUPBiCGStab:  Solving for Uz, Initial residual = 0.0751064, Final residual = 2.92873e-07, No Iterations 5
linear solve U 43608
[OGL LOG] init_host_sparsity_pattern : 27 ms
[OGL LOG] matrix not stored update host matrix
[OGL LOG] update_host_mtx : 13 ms
[OGL LOG] matrix is not yet sorted, sorting host matrix
[OGL LOG] sort_host_mtx_sparsity_pattern : 11 ms
[OGL LOG] sort_host_mtx : 6 ms
[OGL LOG] init_preconditioner : 0 ms
[OGL LOG] solve : 45 ms
nonehipGKOIR:  Solving for p, Initial residual = 0.043954, Final residual = 9.49464e-06, No Iterations 2
linear solve p 108105
time step continuity errors : sum local = 5.89557e-09, global = -4.27107e-21, cumulative = -2.62927e-20
[OGL LOG] init_host_sparsity_pattern : 27 ms
[OGL LOG] matrix not stored update host matrix
[OGL LOG] update_host_mtx : 13 ms
[OGL LOG] matrix is not yet sorted, sorting host matrix
[OGL LOG] sort_host_mtx_sparsity_pattern : 11 ms
[OGL LOG] sort_host_mtx : 6 ms
[OGL LOG] init_preconditioner : 0 ms
[OGL LOG] solve : 44 ms
nonehipGKOIR:  Solving for p, Initial residual = 0.0355758, Final residual = 5.9909e-06, No Iterations 2
linear solve p 107431
time step continuity errors : sum local = 3.73504e-09, global = 2.9456e-20, cumulative = 3.16327e-21
ExecutionTime = 3.23 s  ClockTime = 3 s

Time = 0.006

Courant Number mean: 0.0475595 max: 0.344477
DILUPBiCGStab:  Solving for Ux, Initial residual = 0.0200121, Final residual = 3.55023e-08, No Iterations 5
DILUPBiCGStab:  Solving for Uy, Initial residual = 0.0348378, Final residual = 8.01688e-08, No Iterations 5
DILUPBiCGStab:  Solving for Uz, Initial residual = 0.0588569, Final residual = 1.91435e-07, No Iterations 5
linear solve U 44284
[OGL LOG] init_host_sparsity_pattern : 27 ms
[OGL LOG] matrix not stored update host matrix
[OGL LOG] update_host_mtx : 13 ms
[OGL LOG] matrix is not yet sorted, sorting host matrix
[OGL LOG] sort_host_mtx_sparsity_pattern : 11 ms
[OGL LOG] sort_host_mtx : 6 ms
[OGL LOG] init_preconditioner : 0 ms
[OGL LOG] solve : 45 ms
nonehipGKOIR:  Solving for p, Initial residual = 0.0293473, Final residual = 6.7698e-06, No Iterations 2
linear solve p 108134
time step continuity errors : sum local = 4.21548e-09, global = -3.85551e-21, cumulative = -6.92242e-22
[OGL LOG] init_host_sparsity_pattern : 27 ms
[OGL LOG] matrix not stored update host matrix
[OGL LOG] update_host_mtx : 13 ms
[OGL LOG] matrix is not yet sorted, sorting host matrix
[OGL LOG] sort_host_mtx_sparsity_pattern : 11 ms
[OGL LOG] sort_host_mtx : 6 ms
[OGL LOG] init_preconditioner : 0 ms
[OGL LOG] solve : 45 ms
nonehipGKOIR:  Solving for p, Initial residual = 0.024067, Final residual = 4.9108e-06, No Iterations 2
linear solve p 109044
time step continuity errors : sum local = 3.07107e-09, global = 4.21636e-22, cumulative = -2.70606e-22
ExecutionTime = 3.6 s  ClockTime = 3 s

Time = 0.007

Courant Number mean: 0.0505737 max: 0.348642
DILUPBiCGStab:  Solving for Ux, Initial residual = 0.0159158, Final residual = 2.12583e-08, No Iterations 5
DILUPBiCGStab:  Solving for Uy, Initial residual = 0.0278715, Final residual = 5.9525e-08, No Iterations 5
DILUPBiCGStab:  Solving for Uz, Initial residual = 0.0484697, Final residual = 1.35424e-07, No Iterations 5
linear solve U 44105
[OGL LOG] init_host_sparsity_pattern : 26 ms
[OGL LOG] matrix not stored update host matrix
[OGL LOG] update_host_mtx : 13 ms
[OGL LOG] matrix is not yet sorted, sorting host matrix
[OGL LOG] sort_host_mtx_sparsity_pattern : 11 ms
[OGL LOG] sort_host_mtx : 6 ms
[OGL LOG] init_preconditioner : 0 ms
[OGL LOG] solve : 46 ms
nonehipGKOIR:  Solving for p, Initial residual = 0.0227951, Final residual = 4.01502e-06, No Iterations 2
linear solve p 108858
time step continuity errors : sum local = 2.51301e-09, global = 1.54445e-21, cumulative = 1.27384e-21
[OGL LOG] init_host_sparsity_pattern : 27 ms
[OGL LOG] matrix not stored update host matrix
[OGL LOG] update_host_mtx : 13 ms
[OGL LOG] matrix is not yet sorted, sorting host matrix
[OGL LOG] sort_host_mtx_sparsity_pattern : 11 ms
[OGL LOG] sort_host_mtx : 6 ms
[OGL LOG] init_preconditioner : 0 ms
[OGL LOG] solve : 45 ms
nonehipGKOIR:  Solving for p, Initial residual = 0.0190896, Final residual = 3.43906e-06, No Iterations 2
linear solve p 109128
time step continuity errors : sum local = 2.15825e-09, global = 3.29404e-20, cumulative = 3.42142e-20
ExecutionTime = 3.97 s  ClockTime = 3 s

Time = 0.008

Courant Number mean: 0.053113 max: 0.351705
DILUPBiCGStab:  Solving for Ux, Initial residual = 0.0130731, Final residual = 1.51402e-08, No Iterations 5
DILUPBiCGStab:  Solving for Uy, Initial residual = 0.0230445, Final residual = 3.87451e-08, No Iterations 5
DILUPBiCGStab:  Solving for Uz, Initial residual = 0.0411266, Final residual = 1.11799e-07, No Iterations 5
linear solve U 43760
[OGL LOG] init_host_sparsity_pattern : 26 ms
[OGL LOG] matrix not stored update host matrix
[OGL LOG] update_host_mtx : 13 ms
[OGL LOG] matrix is not yet sorted, sorting host matrix
[OGL LOG] sort_host_mtx_sparsity_pattern : 11 ms
[OGL LOG] sort_host_mtx : 6 ms
[OGL LOG] init_preconditioner : 0 ms
[OGL LOG] solve : 46 ms
nonehipGKOIR:  Solving for p, Initial residual = 0.0179853, Final residual = 3.32038e-06, No Iterations 2
linear solve p 108524
time step continuity errors : sum local = 2.08627e-09, global = -2.2156e-21, cumulative = 3.19986e-20
[OGL LOG] init_host_sparsity_pattern : 27 ms
[OGL LOG] matrix not stored update host matrix
[OGL LOG] update_host_mtx : 13 ms
[OGL LOG] matrix is not yet sorted, sorting host matrix
[OGL LOG] sort_host_mtx_sparsity_pattern : 11 ms
[OGL LOG] sort_host_mtx : 6 ms
[OGL LOG] init_preconditioner : 0 ms
[OGL LOG] solve : 46 ms
nonehipGKOIR:  Solving for p, Initial residual = 0.0151967, Final residual = 2.73965e-06, No Iterations 2
linear solve p 108503
time step continuity errors : sum local = 1.72528e-09, global = -1.07656e-20, cumulative = 2.1233e-20
ExecutionTime = 4.34 s  ClockTime = 4 s

Time = 0.009

Courant Number mean: 0.0552704 max: 0.354071
DILUPBiCGStab:  Solving for Ux, Initial residual = 0.0109809, Final residual = 1.1451e-08, No Iterations 5
DILUPBiCGStab:  Solving for Uy, Initial residual = 0.0194794, Final residual = 2.96242e-08, No Iterations 5
DILUPBiCGStab:  Solving for Uz, Initial residual = 0.0355215, Final residual = 9.51223e-08, No Iterations 5
linear solve U 43679
[OGL LOG] init_host_sparsity_pattern : 27 ms
[OGL LOG] matrix not stored update host matrix
[OGL LOG] update_host_mtx : 13 ms
[OGL LOG] matrix is not yet sorted, sorting host matrix
[OGL LOG] sort_host_mtx_sparsity_pattern : 11 ms
[OGL LOG] sort_host_mtx : 6 ms
[OGL LOG] init_preconditioner : 0 ms
[OGL LOG] solve : 49 ms
nonehipGKOIR:  Solving for p, Initial residual = 0.0150941, Final residual = 2.80162e-06, No Iterations 2
linear solve p 112375
time step continuity errors : sum local = 1.76619e-09, global = 3.05739e-20, cumulative = 5.18069e-20
[OGL LOG] init_host_sparsity_pattern : 27 ms
[OGL LOG] matrix not stored update host matrix
[OGL LOG] update_host_mtx : 13 ms
[OGL LOG] matrix is not yet sorted, sorting host matrix
[OGL LOG] sort_host_mtx_sparsity_pattern : 11 ms
[OGL LOG] sort_host_mtx : 6 ms
[OGL LOG] init_preconditioner : 0 ms
[OGL LOG] solve : 46 ms
nonehipGKOIR:  Solving for p, Initial residual = 0.0128057, Final residual = 1.9808e-06, No Iterations 2
linear solve p 110054
time step continuity errors : sum local = 1.25099e-09, global = 5.35626e-21, cumulative = 5.71632e-20
ExecutionTime = 4.72 s  ClockTime = 4 s

Time = 0.01

Courant Number mean: 0.057126 max: 0.355962
DILUPBiCGStab:  Solving for Ux, Initial residual = 0.00937634, Final residual = 9.20317e-09, No Iterations 5
DILUPBiCGStab:  Solving for Uy, Initial residual = 0.0167464, Final residual = 2.21793e-08, No Iterations 5
DILUPBiCGStab:  Solving for Uz, Initial residual = 0.0310643, Final residual = 8.25677e-08, No Iterations 5
linear solve U 44864
[OGL LOG] init_host_sparsity_pattern : 27 ms
[OGL LOG] matrix not stored update host matrix
[OGL LOG] update_host_mtx : 13 ms
[OGL LOG] matrix is not yet sorted, sorting host matrix
[OGL LOG] sort_host_mtx_sparsity_pattern : 11 ms
[OGL LOG] sort_host_mtx : 6 ms
[OGL LOG] init_preconditioner : 0 ms
[OGL LOG] solve : 46 ms
nonehipGKOIR:  Solving for p, Initial residual = 0.0128027, Final residual = 2.35646e-06, No Iterations 2
linear solve p 108552
time step continuity errors : sum local = 1.4897e-09, global = 4.62248e-21, cumulative = 6.17856e-20
[OGL LOG] init_host_sparsity_pattern : 27 ms
[OGL LOG] matrix not stored update host matrix
[OGL LOG] update_host_mtx : 13 ms
[OGL LOG] matrix is not yet sorted, sorting host matrix
[OGL LOG] sort_host_mtx_sparsity_pattern : 11 ms
[OGL LOG] sort_host_mtx : 6 ms
[OGL LOG] init_preconditioner : 0 ms
[OGL LOG] solve : 46 ms
nonehipGKOIR:  Solving for p, Initial residual = 0.0108895, Final residual = 1.73878e-06, No Iterations 2
linear solve p 109566
time step continuity errors : sum local = 1.10095e-09, global = 3.46128e-21, cumulative = 6.52469e-20
ExecutionTime = 5.1 s  ClockTime = 4 s

End

