/*---------------------------------------------------------------------------*\
  =========                 |
  \\      /  F ield         | OpenFOAM: The Open Source CFD Toolbox
   \\    /   O peration     | Website:  https://openfoam.org
    \\  /    A nd           | Version:  8
     \\/     M anipulation  |
\*---------------------------------------------------------------------------*/
Build  : 8-40a5a48f630f
Exec   : icoFoam
Date   : Jul 28 2021
Time   : 12:45:53
Host   : "uc2n449.localdomain"
PID    : 1427130
I/O    : uncollated
Case   : /pfs/data5/home/kit/scc/nq7776/code/OBR/lidDrivenCavity3D/Variation_mesh/95/Variation_matrix_solver/CG_DIC_Serial/base
nProcs : 1
sigFpe : Enabling floating point exception trapping (FOAM_SIGFPE).
fileModificationChecking : Monitoring run-time modified files using timeStampMaster (fileModificationSkew 10)
allowSystemOperations : Allowing user-supplied system call operations

// * * * * * * * * * * * * * * * * * * * * * * * * * * * * * * * * * * * * * //
Create time

Create mesh for time = 0

Reading transportProperties

Reading field p

Reading field U

Reading/calculating face flux field phi


Starting time loop

Time = 0.001

Courant Number mean: 0 max: 0
nonePBiCGStab:  Solving for Ux, Initial residual = 1, Final residual = 0.078913, No Iterations 5
nonePBiCGStab:  Solving for Uy, Initial residual = 0, Final residual = 0, No Iterations 0
nonePBiCGStab:  Solving for Uz, Initial residual = 0, Final residual = 0, No Iterations 0
linear solve U 221
DICPCG:  Solving for p, Initial residual = 1, Final residual = 8.66885e-05, No Iterations 229
linear solve p 4704
time step continuity errors : sum local = 3.3979e-08, global = 5.97626e-21, cumulative = 5.97626e-21
DICPCG:  Solving for p, Initial residual = 0.704611, Final residual = 8.44037e-05, No Iterations 227
linear solve p 4629
time step continuity errors : sum local = 4.59231e-08, global = 1.36869e-21, cumulative = 7.34495e-21
ExecutionTime = 13.16 s  ClockTime = 13 s

Time = 0.002

Courant Number mean: 0.0412052 max: 0.745797
nonePBiCGStab:  Solving for Ux, Initial residual = 0.139163, Final residual = 0.0377851, No Iterations 5
nonePBiCGStab:  Solving for Uy, Initial residual = 0.440105, Final residual = 0.117163, No Iterations 5
nonePBiCGStab:  Solving for Uz, Initial residual = 0.986841, Final residual = 0.301617, No Iterations 5
linear solve U 489
DICPCG:  Solving for p, Initial residual = 0.777961, Final residual = 9.75005e-05, No Iterations 144
linear solve p 2961
time step continuity errors : sum local = 1.03421e-07, global = 4.84121e-21, cumulative = 1.21862e-20
DICPCG:  Solving for p, Initial residual = 0.701335, Final residual = 9.58544e-05, No Iterations 130
linear solve p 2660
time step continuity errors : sum local = 9.56487e-08, global = -1.1946e-20, cumulative = 2.40183e-22
ExecutionTime = 19.76 s  ClockTime = 19 s

Time = 0.003

Courant Number mean: 0.0654743 max: 0.85009
nonePBiCGStab:  Solving for Ux, Initial residual = 0.0603452, Final residual = 0.0137591, No Iterations 5
nonePBiCGStab:  Solving for Uy, Initial residual = 0.195581, Final residual = 0.0536745, No Iterations 5
nonePBiCGStab:  Solving for Uz, Initial residual = 0.689296, Final residual = 0.193636, No Iterations 5
linear solve U 488
DICPCG:  Solving for p, Initial residual = 0.778408, Final residual = 9.13999e-05, No Iterations 234
linear solve p 4777
time step continuity errors : sum local = 6.452e-08, global = -7.0394e-21, cumulative = -6.79921e-21
DICPCG:  Solving for p, Initial residual = 0.707036, Final residual = 9.28452e-05, No Iterations 233
linear solve p 4786
time step continuity errors : sum local = 6.38709e-08, global = 4.97957e-22, cumulative = -6.30126e-21
ExecutionTime = 30.31 s  ClockTime = 30 s

Time = 0.004

Courant Number mean: 0.0789374 max: 0.864946
nonePBiCGStab:  Solving for Ux, Initial residual = 0.0376395, Final residual = 0.00929825, No Iterations 5
nonePBiCGStab:  Solving for Uy, Initial residual = 0.138328, Final residual = 0.0427885, No Iterations 5
nonePBiCGStab:  Solving for Uz, Initial residual = 0.459588, Final residual = 0.116753, No Iterations 5
linear solve U 490
DICPCG:  Solving for p, Initial residual = 0.688497, Final residual = 9.33712e-05, No Iterations 112
linear solve p 2293
time step continuity errors : sum local = 7.25722e-08, global = -2.31301e-21, cumulative = -8.61427e-21
DICPCG:  Solving for p, Initial residual = 0.592699, Final residual = 9.43023e-05, No Iterations 111
linear solve p 2280
time step continuity errors : sum local = 7.11341e-08, global = -1.7456e-21, cumulative = -1.03599e-20
ExecutionTime = 35.85 s  ClockTime = 36 s

Time = 0.005

Courant Number mean: 0.0895856 max: 0.877408
nonePBiCGStab:  Solving for Ux, Initial residual = 0.028642, Final residual = 0.00746797, No Iterations 5
nonePBiCGStab:  Solving for Uy, Initial residual = 0.0903001, Final residual = 0.0307358, No Iterations 5
nonePBiCGStab:  Solving for Uz, Initial residual = 0.271725, Final residual = 0.0688673, No Iterations 5
linear solve U 488
DICPCG:  Solving for p, Initial residual = 0.723936, Final residual = 9.1314e-05, No Iterations 108
linear solve p 2206
time step continuity errors : sum local = 6.22972e-08, global = 1.64519e-20, cumulative = 6.09201e-21
DICPCG:  Solving for p, Initial residual = 0.640169, Final residual = 9.40879e-05, No Iterations 107
linear solve p 2205
time step continuity errors : sum local = 6.1257e-08, global = -2.2421e-21, cumulative = 3.84991e-21
ExecutionTime = 41.24 s  ClockTime = 41 s

Time = 0.006

Courant Number mean: 0.0978353 max: 0.884253
nonePBiCGStab:  Solving for Ux, Initial residual = 0.0222951, Final residual = 0.0059251, No Iterations 5
nonePBiCGStab:  Solving for Uy, Initial residual = 0.0723722, Final residual = 0.0240808, No Iterations 5
nonePBiCGStab:  Solving for Uz, Initial residual = 0.211659, Final residual = 0.0602722, No Iterations 5
linear solve U 487
DICPCG:  Solving for p, Initial residual = 0.650998, Final residual = 9.72778e-05, No Iterations 105
linear solve p 2168
time step continuity errors : sum local = 6.98687e-08, global = -1.27861e-20, cumulative = -8.93621e-21
DICPCG:  Solving for p, Initial residual = 0.558463, Final residual = 9.63263e-05, No Iterations 103
linear solve p 2127
time step continuity errors : sum local = 6.80183e-08, global = 1.47273e-20, cumulative = 5.79105e-21
ExecutionTime = 46.52 s  ClockTime = 46 s

Time = 0.007

Courant Number mean: 0.104798 max: 0.889599
nonePBiCGStab:  Solving for Ux, Initial residual = 0.0189476, Final residual = 0.00480469, No Iterations 5
nonePBiCGStab:  Solving for Uy, Initial residual = 0.0561717, Final residual = 0.0194378, No Iterations 5
nonePBiCGStab:  Solving for Uz, Initial residual = 0.160472, Final residual = 0.0451491, No Iterations 5
linear solve U 484
DICPCG:  Solving for p, Initial residual = 0.687916, Final residual = 8.79032e-05, No Iterations 101
linear solve p 2089
time step continuity errors : sum local = 5.71712e-08, global = 2.27297e-21, cumulative = 8.06402e-21
DICPCG:  Solving for p, Initial residual = 0.596965, Final residual = 9.06175e-05, No Iterations 100
linear solve p 2065
time step continuity errors : sum local = 5.74303e-08, global = -6.42547e-21, cumulative = 1.63855e-21
ExecutionTime = 51.64 s  ClockTime = 51 s

Time = 0.008

Courant Number mean: 0.110772 max: 0.893422
nonePBiCGStab:  Solving for Ux, Initial residual = 0.015878, Final residual = 0.00431113, No Iterations 5
nonePBiCGStab:  Solving for Uy, Initial residual = 0.04839, Final residual = 0.014392, No Iterations 5
nonePBiCGStab:  Solving for Uz, Initial residual = 0.134988, Final residual = 0.0411499, No Iterations 5
linear solve U 489
DICPCG:  Solving for p, Initial residual = 0.627521, Final residual = 9.00007e-05, No Iterations 100
linear solve p 2063
time step continuity errors : sum local = 6.18565e-08, global = -1.29877e-20, cumulative = -1.13492e-20
DICPCG:  Solving for p, Initial residual = 0.536196, Final residual = 9.69313e-05, No Iterations 98
linear solve p 2024
time step continuity errors : sum local = 6.61675e-08, global = -1.31924e-21, cumulative = -1.26684e-20
ExecutionTime = 56.69 s  ClockTime = 57 s

Time = 0.009

Courant Number mean: 0.116048 max: 0.896656
nonePBiCGStab:  Solving for Ux, Initial residual = 0.0143119, Final residual = 0.00340144, No Iterations 5
nonePBiCGStab:  Solving for Uy, Initial residual = 0.0404803, Final residual = 0.0127297, No Iterations 5
nonePBiCGStab:  Solving for Uz, Initial residual = 0.112409, Final residual = 0.0337196, No Iterations 5
linear solve U 490
DICPCG:  Solving for p, Initial residual = 0.665745, Final residual = 9.29415e-05, No Iterations 98
linear solve p 2030
time step continuity errors : sum local = 6.16094e-08, global = 8.42914e-21, cumulative = -4.23926e-21
DICPCG:  Solving for p, Initial residual = 0.573167, Final residual = 9.57778e-05, No Iterations 96
linear solve p 1981
time step continuity errors : sum local = 6.18317e-08, global = -1.48482e-20, cumulative = -1.90874e-20
ExecutionTime = 61.67 s  ClockTime = 62 s

Time = 0.01

Courant Number mean: 0.120809 max: 0.899108
nonePBiCGStab:  Solving for Ux, Initial residual = 0.0124635, Final residual = 0.00287141, No Iterations 5
nonePBiCGStab:  Solving for Uy, Initial residual = 0.0363935, Final residual = 0.00973513, No Iterations 5
nonePBiCGStab:  Solving for Uz, Initial residual = 0.101331, Final residual = 0.0319745, No Iterations 5
linear solve U 487
DICPCG:  Solving for p, Initial residual = 0.612816, Final residual = 8.99954e-05, No Iterations 103
linear solve p 2126
time step continuity errors : sum local = 5.99961e-08, global = -1.26766e-20, cumulative = -3.1764e-20
DICPCG:  Solving for p, Initial residual = 0.524117, Final residual = 9.62957e-05, No Iterations 101
linear solve p 2085
time step continuity errors : sum local = 6.47774e-08, global = 1.08813e-20, cumulative = -2.08827e-20
ExecutionTime = 66.85 s  ClockTime = 67 s

End

