/*---------------------------------------------------------------------------*\
  =========                 |
  \\      /  F ield         | OpenFOAM: The Open Source CFD Toolbox
   \\    /   O peration     | Website:  https://openfoam.org
    \\  /    A nd           | Version:  8
     \\/     M anipulation  |
\*---------------------------------------------------------------------------*/
Build  : 8-40a5a48f630f
Exec   : icoFoam
Date   : Jul 28 2021
Time   : 12:38:31
Host   : "uc2n449.localdomain"
PID    : 1425925
I/O    : uncollated
Case   : /pfs/data5/home/kit/scc/nq7776/code/OBR/lidDrivenCavity3D/Variation_mesh/25/Variation_matrix_solver/BiCGStab_NoPrecond_Serial/base
nProcs : 1
sigFpe : Enabling floating point exception trapping (FOAM_SIGFPE).
fileModificationChecking : Monitoring run-time modified files using timeStampMaster (fileModificationSkew 10)
allowSystemOperations : Allowing user-supplied system call operations

// * * * * * * * * * * * * * * * * * * * * * * * * * * * * * * * * * * * * * //
Create time

Create mesh for time = 0

Reading transportProperties

Reading field p

Reading field U

Reading/calculating face flux field phi


Starting time loop

Time = 0.001

Courant Number mean: 0 max: 0
nonePBiCGStab:  Solving for Ux, Initial residual = 1, Final residual = 0.00310183, No Iterations 5
nonePBiCGStab:  Solving for Uy, Initial residual = 0, Final residual = 0, No Iterations 0
nonePBiCGStab:  Solving for Uz, Initial residual = 0, Final residual = 0, No Iterations 0
linear solve U 3
nonePBiCGStab:  Solving for p, Initial residual = 1, Final residual = 6.93387e-05, No Iterations 161
linear solve p 45
time step continuity errors : sum local = 7.0902e-08, global = -2.73143e-20, cumulative = -2.73143e-20
nonePBiCGStab:  Solving for p, Initial residual = 0.480659, Final residual = 9.60821e-05, No Iterations 155
linear solve p 44
time step continuity errors : sum local = 1.58844e-07, global = 2.05014e-21, cumulative = -2.52642e-20
ExecutionTime = 0.18 s  ClockTime = 1 s

Time = 0.002

Courant Number mean: 0.0119708 max: 0.106554
nonePBiCGStab:  Solving for Ux, Initial residual = 0.210796, Final residual = 0.000695217, No Iterations 5
nonePBiCGStab:  Solving for Uy, Initial residual = 0.284565, Final residual = 0.000645696, No Iterations 5
nonePBiCGStab:  Solving for Uz, Initial residual = 0.879951, Final residual = 0.00335497, No Iterations 5
linear solve U 6
nonePBiCGStab:  Solving for p, Initial residual = 0.285945, Final residual = 9.50889e-05, No Iterations 146
linear solve p 41
time step continuity errors : sum local = 1.47453e-07, global = 1.07487e-20, cumulative = -1.45155e-20
nonePBiCGStab:  Solving for p, Initial residual = 0.189285, Final residual = 8.0369e-05, No Iterations 143
linear solve p 40
time step continuity errors : sum local = 1.32145e-07, global = 1.42473e-20, cumulative = -2.68239e-22
ExecutionTime = 0.28 s  ClockTime = 1 s

Time = 0.003

Courant Number mean: 0.0188463 max: 0.153563
nonePBiCGStab:  Solving for Ux, Initial residual = 0.0900299, Final residual = 0.000292232, No Iterations 5
nonePBiCGStab:  Solving for Uy, Initial residual = 0.124801, Final residual = 0.000199082, No Iterations 5
nonePBiCGStab:  Solving for Uz, Initial residual = 0.267989, Final residual = 0.000842029, No Iterations 5
linear solve U 5
nonePBiCGStab:  Solving for p, Initial residual = 0.102754, Final residual = 9.55627e-05, No Iterations 69
linear solve p 19
time step continuity errors : sum local = 1.16113e-07, global = -1.37854e-20, cumulative = -1.40536e-20
nonePBiCGStab:  Solving for p, Initial residual = 0.0699173, Final residual = 9.96006e-05, No Iterations 67
linear solve p 19
time step continuity errors : sum local = 1.58563e-07, global = -5.89645e-21, cumulative = -1.99501e-20
ExecutionTime = 0.34 s  ClockTime = 1 s

Time = 0.004

Courant Number mean: 0.0233144 max: 0.175119
nonePBiCGStab:  Solving for Ux, Initial residual = 0.052072, Final residual = 0.000102914, No Iterations 5
nonePBiCGStab:  Solving for Uy, Initial residual = 0.0743539, Final residual = 6.9949e-05, No Iterations 5
nonePBiCGStab:  Solving for Uz, Initial residual = 0.130462, Final residual = 0.000235208, No Iterations 5
linear solve U 5
nonePBiCGStab:  Solving for p, Initial residual = 0.0553903, Final residual = 9.93852e-05, No Iterations 58
linear solve p 16
time step continuity errors : sum local = 1.00437e-07, global = -1.0738e-20, cumulative = -3.06881e-20
nonePBiCGStab:  Solving for p, Initial residual = 0.0372177, Final residual = 9.6431e-05, No Iterations 54
linear solve p 15
time step continuity errors : sum local = 1.35864e-07, global = 1.3424e-20, cumulative = -1.72641e-20
ExecutionTime = 0.38 s  ClockTime = 1 s

Time = 0.005

Courant Number mean: 0.0264937 max: 0.186504
nonePBiCGStab:  Solving for Ux, Initial residual = 0.0351453, Final residual = 3.76305e-05, No Iterations 5
nonePBiCGStab:  Solving for Uy, Initial residual = 0.0508204, Final residual = 2.47903e-05, No Iterations 5
nonePBiCGStab:  Solving for Uz, Initial residual = 0.0917116, Final residual = 0.0001175, No Iterations 5
linear solve U 5
nonePBiCGStab:  Solving for p, Initial residual = 0.0350538, Final residual = 8.74378e-05, No Iterations 54
linear solve p 15
time step continuity errors : sum local = 9.39794e-08, global = 1.3841e-20, cumulative = -3.42311e-21
nonePBiCGStab:  Solving for p, Initial residual = 0.0232405, Final residual = 9.50582e-05, No Iterations 50
linear solve p 14
time step continuity errors : sum local = 1.22186e-07, global = -3.07566e-21, cumulative = -6.49877e-21
ExecutionTime = 0.42 s  ClockTime = 1 s

Time = 0.006

Courant Number mean: 0.0288953 max: 0.193336
nonePBiCGStab:  Solving for Ux, Initial residual = 0.0259466, Final residual = 1.42354e-05, No Iterations 5
nonePBiCGStab:  Solving for Uy, Initial residual = 0.0380083, Final residual = 1.60907e-05, No Iterations 5
nonePBiCGStab:  Solving for Uz, Initial residual = 0.0708826, Final residual = 6.73804e-05, No Iterations 5
linear solve U 5
nonePBiCGStab:  Solving for p, Initial residual = 0.0245307, Final residual = 7.96802e-05, No Iterations 51
linear solve p 14
time step continuity errors : sum local = 8.57164e-08, global = -2.21358e-20, cumulative = -2.86345e-20
nonePBiCGStab:  Solving for p, Initial residual = 0.016448, Final residual = 6.41027e-05, No Iterations 50
linear solve p 14
time step continuity errors : sum local = 8.72705e-08, global = 2.47753e-20, cumulative = -3.85924e-21
ExecutionTime = 0.46 s  ClockTime = 1 s

Time = 0.007

Courant Number mean: 0.030831 max: 0.197891
nonePBiCGStab:  Solving for Ux, Initial residual = 0.0203718, Final residual = 7.08631e-06, No Iterations 5
nonePBiCGStab:  Solving for Uy, Initial residual = 0.0300211, Final residual = 9.60194e-06, No Iterations 5
nonePBiCGStab:  Solving for Uz, Initial residual = 0.0574211, Final residual = 4.45896e-05, No Iterations 5
linear solve U 5
nonePBiCGStab:  Solving for p, Initial residual = 0.0186915, Final residual = 8.44016e-05, No Iterations 52
linear solve p 15
time step continuity errors : sum local = 8.62628e-08, global = -4.25129e-21, cumulative = -8.11053e-21
nonePBiCGStab:  Solving for p, Initial residual = 0.0126557, Final residual = 7.12959e-05, No Iterations 49
linear solve p 14
time step continuity errors : sum local = 8.58911e-08, global = 1.56123e-20, cumulative = 7.50173e-21
ExecutionTime = 0.5 s  ClockTime = 1 s

Time = 0.008

Courant Number mean: 0.0324764 max: 0.201172
nonePBiCGStab:  Solving for Ux, Initial residual = 0.0165293, Final residual = 4.97614e-06, No Iterations 5
nonePBiCGStab:  Solving for Uy, Initial residual = 0.0246123, Final residual = 6.25985e-06, No Iterations 5
nonePBiCGStab:  Solving for Uz, Initial residual = 0.047858, Final residual = 3.23348e-05, No Iterations 5
linear solve U 5
nonePBiCGStab:  Solving for p, Initial residual = 0.0148793, Final residual = 9.82556e-05, No Iterations 52
linear solve p 15
time step continuity errors : sum local = 9.56954e-08, global = 1.1334e-20, cumulative = 1.88358e-20
nonePBiCGStab:  Solving for p, Initial residual = 0.0101494, Final residual = 7.88105e-05, No Iterations 51
linear solve p 14
time step continuity errors : sum local = 8.7116e-08, global = 3.29702e-20, cumulative = 5.18059e-20
ExecutionTime = 0.54 s  ClockTime = 1 s

Time = 0.009

Courant Number mean: 0.0338807 max: 0.203668
nonePBiCGStab:  Solving for Ux, Initial residual = 0.0138007, Final residual = 3.20401e-06, No Iterations 5
nonePBiCGStab:  Solving for Uy, Initial residual = 0.0206801, Final residual = 4.15519e-06, No Iterations 5
nonePBiCGStab:  Solving for Uz, Initial residual = 0.0409474, Final residual = 2.11384e-05, No Iterations 5
linear solve U 5
nonePBiCGStab:  Solving for p, Initial residual = 0.0125238, Final residual = 9.12022e-05, No Iterations 52
linear solve p 14
time step continuity errors : sum local = 8.60886e-08, global = -1.80979e-20, cumulative = 3.37081e-20
nonePBiCGStab:  Solving for p, Initial residual = 0.00861974, Final residual = 7.29659e-05, No Iterations 49
linear solve p 14
time step continuity errors : sum local = 7.73646e-08, global = -1.6709e-21, cumulative = 3.20371e-20
ExecutionTime = 0.58 s  ClockTime = 1 s

Time = 0.01

Courant Number mean: 0.035092 max: 0.205643
nonePBiCGStab:  Solving for Ux, Initial residual = 0.0117306, Final residual = 2.25497e-06, No Iterations 5
nonePBiCGStab:  Solving for Uy, Initial residual = 0.0177067, Final residual = 3.0758e-06, No Iterations 5
nonePBiCGStab:  Solving for Uz, Initial residual = 0.0354351, Final residual = 1.63462e-05, No Iterations 5
linear solve U 5
nonePBiCGStab:  Solving for p, Initial residual = 0.0105438, Final residual = 8.6553e-05, No Iterations 51
linear solve p 14
time step continuity errors : sum local = 8.00633e-08, global = 7.56638e-21, cumulative = 3.96035e-20
nonePBiCGStab:  Solving for p, Initial residual = 0.00729035, Final residual = 9.93654e-05, No Iterations 46
linear solve p 13
time step continuity errors : sum local = 9.60981e-08, global = -2.06795e-22, cumulative = 3.93967e-20
ExecutionTime = 0.62 s  ClockTime = 1 s

End

