/*---------------------------------------------------------------------------*\
  =========                 |
  \\      /  F ield         | OpenFOAM: The Open Source CFD Toolbox
   \\    /   O peration     | Website:  https://openfoam.org
    \\  /    A nd           | Version:  8
     \\/     M anipulation  |
\*---------------------------------------------------------------------------*/
Build  : 8-ef60d22ea792
Exec   : icoFoam
Date   : Jul 29 2021
Time   : 05:42:47
Host   : "nla-gpu2.ianm.kit.edu"
PID    : 1907678
I/O    : uncollated
Case   : /home/greole/code/OBR/lidDrivenCavity3D/Variation_mesh/100/Variation_matrix_solver/BiCGStab_NoPrecond_Serial/base
nProcs : 1
sigFpe : Enabling floating point exception trapping (FOAM_SIGFPE).
fileModificationChecking : Monitoring run-time modified files using timeStampMaster (fileModificationSkew 10)
allowSystemOperations : Allowing user-supplied system call operations

// * * * * * * * * * * * * * * * * * * * * * * * * * * * * * * * * * * * * * //
Create time

Create mesh for time = 0

Reading transportProperties

Reading field p

Reading field U

Reading/calculating face flux field phi


Starting time loop

Time = 0.001

Courant Number mean: 0 max: 0
DILUPBiCGStab:  Solving for Ux, Initial residual = 1, Final residual = 0.00717233, No Iterations 5
DILUPBiCGStab:  Solving for Uy:  solution singularity
DILUPBiCGStab:  Solving for Uz:  solution singularity
linear solve U 415530
nonePBiCGStab:  Solving for p, Initial residual = 1, Final residual = 5.32739e-05, No Iterations 696
linear solve p 17583678
time step continuity errors : sum local = 6.10311e-08, global = 1.59542e-20, cumulative = 1.59542e-20
nonePBiCGStab:  Solving for p, Initial residual = 0.777495, Final residual = 3.31649e-05, No Iterations 598
linear solve p 15007046
time step continuity errors : sum local = 4.70626e-08, global = -1.52314e-21, cumulative = 1.44311e-20
ExecutionTime = 37.47 s  ClockTime = 37 s

Time = 0.002

Courant Number mean: 0.0560721 max: 0.805494
DILUPBiCGStab:  Solving for Ux, Initial residual = 0.138446, Final residual = 0.0031961, No Iterations 5
DILUPBiCGStab:  Solving for Uy, Initial residual = 0.430515, Final residual = 0.00908943, No Iterations 5
DILUPBiCGStab:  Solving for Uz, Initial residual = 0.988095, Final residual = 0.0228416, No Iterations 5
linear solve U 815508
nonePBiCGStab:  Solving for p, Initial residual = 0.799962, Final residual = 7.66561e-05, No Iterations 572
linear solve p 14402288
time step continuity errors : sum local = 1.12385e-07, global = 1.39085e-21, cumulative = 1.5822e-20
nonePBiCGStab:  Solving for p, Initial residual = 0.740599, Final residual = 5.18488e-05, No Iterations 627
linear solve p 15714133
time step continuity errors : sum local = 1.08261e-07, global = -7.35359e-21, cumulative = 8.46837e-21
ExecutionTime = 68.76 s  ClockTime = 69 s

Time = 0.003

Courant Number mean: 0.085294 max: 0.943694
DILUPBiCGStab:  Solving for Ux, Initial residual = 0.0648938, Final residual = 0.00111089, No Iterations 5
DILUPBiCGStab:  Solving for Uy, Initial residual = 0.22709, Final residual = 0.00307653, No Iterations 5
DILUPBiCGStab:  Solving for Uz, Initial residual = 0.787935, Final residual = 0.0175001, No Iterations 5
linear solve U 811444
nonePBiCGStab:  Solving for p, Initial residual = 0.833375, Final residual = 6.62253e-05, No Iterations 594
linear solve p 14944060
time step continuity errors : sum local = 1.00931e-07, global = 2.68203e-21, cumulative = 1.11504e-20
nonePBiCGStab:  Solving for p, Initial residual = 0.801465, Final residual = 9.94644e-05, No Iterations 607
linear solve p 15257131
time step continuity errors : sum local = 1.74161e-07, global = 2.80687e-21, cumulative = 1.39573e-20
ExecutionTime = 100.12 s  ClockTime = 100 s

Time = 0.004

Courant Number mean: 0.0982369 max: 0.926376
DILUPBiCGStab:  Solving for Ux, Initial residual = 0.0396231, Final residual = 0.000862378, No Iterations 5
DILUPBiCGStab:  Solving for Uy, Initial residual = 0.169254, Final residual = 0.00317838, No Iterations 5
DILUPBiCGStab:  Solving for Uz, Initial residual = 0.648876, Final residual = 0.0131381, No Iterations 5
linear solve U 813395
nonePBiCGStab:  Solving for p, Initial residual = 0.751446, Final residual = 9.13441e-05, No Iterations 690
linear solve p 17376907
time step continuity errors : sum local = 8.89221e-08, global = -8.7236e-21, cumulative = 5.23367e-21
nonePBiCGStab:  Solving for p, Initial residual = 0.685419, Final residual = 9.56479e-05, No Iterations 562
linear solve p 14174821
time step continuity errors : sum local = 9.7376e-08, global = 1.12456e-21, cumulative = 6.35823e-21
ExecutionTime = 132.83 s  ClockTime = 133 s

Time = 0.005

Courant Number mean: 0.110659 max: 0.944637
DILUPBiCGStab:  Solving for Ux, Initial residual = 0.0310068, Final residual = 0.000609455, No Iterations 5
DILUPBiCGStab:  Solving for Uy, Initial residual = 0.101624, Final residual = 0.00209041, No Iterations 5
DILUPBiCGStab:  Solving for Uz, Initial residual = 0.632587, Final residual = 0.0125693, No Iterations 5
linear solve U 812825
nonePBiCGStab:  Solving for p, Initial residual = 0.760745, Final residual = 7.79996e-05, No Iterations 592
linear solve p 14905574
time step continuity errors : sum local = 7.669e-08, global = -4.3127e-21, cumulative = 2.04553e-21
nonePBiCGStab:  Solving for p, Initial residual = 0.71108, Final residual = 4.95254e-05, No Iterations 603
linear solve p 15145872
time step continuity errors : sum local = 3.86891e-08, global = -6.07516e-21, cumulative = -4.02963e-21
ExecutionTime = 164.05 s  ClockTime = 164 s

Time = 0.006

Courant Number mean: 0.119025 max: 0.945175
DILUPBiCGStab:  Solving for Ux, Initial residual = 0.0207729, Final residual = 0.000438574, No Iterations 5
DILUPBiCGStab:  Solving for Uy, Initial residual = 0.0838614, Final residual = 0.00164358, No Iterations 5
DILUPBiCGStab:  Solving for Uz, Initial residual = 0.481415, Final residual = 0.00888993, No Iterations 5
linear solve U 811466
nonePBiCGStab:  Solving for p, Initial residual = 0.666403, Final residual = 8.90226e-05, No Iterations 626
linear solve p 15778366
time step continuity errors : sum local = 8.85889e-08, global = -1.85584e-20, cumulative = -2.2588e-20
nonePBiCGStab:  Solving for p, Initial residual = 0.604301, Final residual = 9.80545e-05, No Iterations 573
linear solve p 14463739
time step continuity errors : sum local = 1.38756e-07, global = 5.85213e-21, cumulative = -1.67359e-20
ExecutionTime = 195.45 s  ClockTime = 196 s

Time = 0.007

Courant Number mean: 0.12664 max: 0.948061
DILUPBiCGStab:  Solving for Ux, Initial residual = 0.0180015, Final residual = 0.000355191, No Iterations 5
DILUPBiCGStab:  Solving for Uy, Initial residual = 0.0589152, Final residual = 0.0013262, No Iterations 5
DILUPBiCGStab:  Solving for Uz, Initial residual = 0.447129, Final residual = 0.0093031, No Iterations 5
linear solve U 814660
nonePBiCGStab:  Solving for p, Initial residual = 0.666064, Final residual = 8.92607e-05, No Iterations 584
linear solve p 14655347
time step continuity errors : sum local = 7.04587e-08, global = 2.6151e-21, cumulative = -1.41208e-20
nonePBiCGStab:  Solving for p, Initial residual = 0.606273, Final residual = 6.29263e-05, No Iterations 652
linear solve p 16492544
time step continuity errors : sum local = 3.76196e-08, global = 1.36725e-20, cumulative = -4.48346e-22
ExecutionTime = 227.77 s  ClockTime = 228 s

Time = 0.008

Courant Number mean: 0.132684 max: 0.952101
DILUPBiCGStab:  Solving for Ux, Initial residual = 0.0134785, Final residual = 0.00026793, No Iterations 5
DILUPBiCGStab:  Solving for Uy, Initial residual = 0.0499632, Final residual = 0.00102028, No Iterations 5
DILUPBiCGStab:  Solving for Uz, Initial residual = 0.34618, Final residual = 0.00597135, No Iterations 5
linear solve U 808863
nonePBiCGStab:  Solving for p, Initial residual = 0.576396, Final residual = 9.66395e-05, No Iterations 623
linear solve p 15664579
time step continuity errors : sum local = 5.78486e-08, global = -1.1515e-20, cumulative = -1.19633e-20
nonePBiCGStab:  Solving for p, Initial residual = 0.517263, Final residual = 9.83795e-05, No Iterations 551
linear solve p 13786944
time step continuity errors : sum local = 6.82023e-08, global = -9.78283e-21, cumulative = -2.17462e-20
ExecutionTime = 258.38 s  ClockTime = 259 s

Time = 0.009

Courant Number mean: 0.138066 max: 0.95345
DILUPBiCGStab:  Solving for Ux, Initial residual = 0.011911, Final residual = 0.00022082, No Iterations 5
DILUPBiCGStab:  Solving for Uy, Initial residual = 0.0376473, Final residual = 0.000821974, No Iterations 5
DILUPBiCGStab:  Solving for Uz, Initial residual = 0.299541, Final residual = 0.00584782, No Iterations 5
linear solve U 812677
nonePBiCGStab:  Solving for p, Initial residual = 0.566575, Final residual = 9.92034e-05, No Iterations 564
linear solve p 14285638
time step continuity errors : sum local = 5.40119e-08, global = 7.42904e-22, cumulative = -2.10033e-20
nonePBiCGStab:  Solving for p, Initial residual = 0.505837, Final residual = 8.39094e-05, No Iterations 555
linear solve p 14014379
time step continuity errors : sum local = 5.69016e-08, global = 1.78415e-21, cumulative = -1.92191e-20
ExecutionTime = 287.85 s  ClockTime = 289 s

Time = 0.01

Courant Number mean: 0.142667 max: 0.956114
DILUPBiCGStab:  Solving for Ux, Initial residual = 0.00946718, Final residual = 0.00017052, No Iterations 5
DILUPBiCGStab:  Solving for Uy, Initial residual = 0.0322067, Final residual = 0.000656315, No Iterations 5
DILUPBiCGStab:  Solving for Uz, Initial residual = 0.231388, Final residual = 0.00398051, No Iterations 5
linear solve U 811897
nonePBiCGStab:  Solving for p, Initial residual = 0.488674, Final residual = 8.11186e-05, No Iterations 530
linear solve p 13300847
time step continuity errors : sum local = 5.1071e-08, global = -1.03686e-20, cumulative = -2.95878e-20
nonePBiCGStab:  Solving for p, Initial residual = 0.434535, Final residual = 9.75567e-05, No Iterations 581
linear solve p 14601408
time step continuity errors : sum local = 4.76751e-08, global = -4.30272e-21, cumulative = -3.38905e-20
ExecutionTime = 316.93 s  ClockTime = 318 s

End

