/*---------------------------------------------------------------------------*\
  =========                 |
  \\      /  F ield         | OpenFOAM: The Open Source CFD Toolbox
   \\    /   O peration     | Website:  https://openfoam.org
    \\  /    A nd           | Version:  8
     \\/     M anipulation  |
\*---------------------------------------------------------------------------*/
Build  : 8-ef60d22ea792
Exec   : icoFoam
Date   : Jul 29 2021
Time   : 08:22:15
Host   : "nla-gpu2.ianm.kit.edu"
PID    : 1980616
I/O    : uncollated
Case   : /home/greole/code/OBR/lidDrivenCavity3D/Variation_mesh/70/Variation_matrix_solver/CG_NoPrecond_Serial/base
nProcs : 1
sigFpe : Enabling floating point exception trapping (FOAM_SIGFPE).
fileModificationChecking : Monitoring run-time modified files using timeStampMaster (fileModificationSkew 10)
allowSystemOperations : Allowing user-supplied system call operations

// * * * * * * * * * * * * * * * * * * * * * * * * * * * * * * * * * * * * * //
Create time

Create mesh for time = 0

Reading transportProperties

Reading field p

Reading field U

Reading/calculating face flux field phi


Starting time loop

Time = 0.001

Courant Number mean: 0 max: 0
DILUPBiCGStab:  Solving for Ux, Initial residual = 1, Final residual = 0.00143011, No Iterations 5
DILUPBiCGStab:  Solving for Uy:  solution singularity
DILUPBiCGStab:  Solving for Uz:  solution singularity
linear solve U 138334
nonePCG:  Solving for p, Initial residual = 1, Final residual = 9.61985e-05, No Iterations 549
linear solve p 2013793
time step continuity errors : sum local = 5.65817e-08, global = 2.3753e-22, cumulative = 2.3753e-22
nonePCG:  Solving for p, Initial residual = 0.723818, Final residual = 9.71276e-05, No Iterations 542
linear solve p 1982653
time step continuity errors : sum local = 7.59423e-08, global = 2.17337e-21, cumulative = 2.4109e-21
ExecutionTime = 5.82 s  ClockTime = 6 s

Time = 0.002

Courant Number mean: 0.0394021 max: 0.518352
DILUPBiCGStab:  Solving for Ux, Initial residual = 0.151291, Final residual = 0.000459811, No Iterations 5
DILUPBiCGStab:  Solving for Uy, Initial residual = 0.361767, Final residual = 0.000929268, No Iterations 5
DILUPBiCGStab:  Solving for Uz, Initial residual = 0.984714, Final residual = 0.0030295, No Iterations 5
linear solve U 267311
nonePCG:  Solving for p, Initial residual = 0.674278, Final residual = 9.97088e-05, No Iterations 538
linear solve p 1954799
time step continuity errors : sum local = 8.53184e-08, global = -1.42416e-20, cumulative = -1.18307e-20
nonePCG:  Solving for p, Initial residual = 0.601596, Final residual = 9.53198e-05, No Iterations 537
linear solve p 1982399
time step continuity errors : sum local = 8.3408e-08, global = 4.96854e-21, cumulative = -6.86216e-21
ExecutionTime = 10.18 s  ClockTime = 10 s

Time = 0.003

Courant Number mean: 0.0591359 max: 0.616284
DILUPBiCGStab:  Solving for Ux, Initial residual = 0.0520841, Final residual = 0.00010812, No Iterations 5
DILUPBiCGStab:  Solving for Uy, Initial residual = 0.118681, Final residual = 0.000223844, No Iterations 5
DILUPBiCGStab:  Solving for Uz, Initial residual = 0.503947, Final residual = 0.00144608, No Iterations 5
linear solve U 265822
nonePCG:  Solving for p, Initial residual = 0.609277, Final residual = 9.40797e-05, No Iterations 535
linear solve p 1976007
time step continuity errors : sum local = 5.76842e-08, global = -2.82129e-21, cumulative = -9.68346e-21
nonePCG:  Solving for p, Initial residual = 0.557387, Final residual = 9.30812e-05, No Iterations 534
linear solve p 1951110
time step continuity errors : sum local = 5.54112e-08, global = -9.56943e-22, cumulative = -1.06404e-20
ExecutionTime = 14.51 s  ClockTime = 15 s

Time = 0.004

Courant Number mean: 0.0695969 max: 0.629494
DILUPBiCGStab:  Solving for Ux, Initial residual = 0.0286857, Final residual = 5.77661e-05, No Iterations 5
DILUPBiCGStab:  Solving for Uy, Initial residual = 0.0790585, Final residual = 0.000132076, No Iterations 5
DILUPBiCGStab:  Solving for Uz, Initial residual = 0.262004, Final residual = 0.000582518, No Iterations 5
linear solve U 266834
nonePCG:  Solving for p, Initial residual = 0.386005, Final residual = 9.87431e-05, No Iterations 524
linear solve p 1948310
time step continuity errors : sum local = 5.26543e-08, global = 6.84744e-21, cumulative = -3.79295e-21
nonePCG:  Solving for p, Initial residual = 0.325684, Final residual = 9.94113e-05, No Iterations 522
linear solve p 1937567
time step continuity errors : sum local = 5.3669e-08, global = -6.17609e-21, cumulative = -9.96904e-21
ExecutionTime = 18.82 s  ClockTime = 19 s

Time = 0.005

Courant Number mean: 0.0778345 max: 0.639336
DILUPBiCGStab:  Solving for Ux, Initial residual = 0.0206098, Final residual = 3.13998e-05, No Iterations 5
DILUPBiCGStab:  Solving for Uy, Initial residual = 0.0456757, Final residual = 6.10452e-05, No Iterations 5
DILUPBiCGStab:  Solving for Uz, Initial residual = 0.0899409, Final residual = 0.000190892, No Iterations 5
linear solve U 265334
nonePCG:  Solving for p, Initial residual = 0.289486, Final residual = 9.28657e-05, No Iterations 490
linear solve p 1819481
time step continuity errors : sum local = 4.13301e-08, global = 1.84535e-20, cumulative = 8.48447e-21
nonePCG:  Solving for p, Initial residual = 0.247236, Final residual = 9.53454e-05, No Iterations 490
linear solve p 1811102
time step continuity errors : sum local = 4.21148e-08, global = -3.08623e-22, cumulative = 8.17585e-21
ExecutionTime = 22.86 s  ClockTime = 23 s

Time = 0.006

Courant Number mean: 0.0841384 max: 0.645082
DILUPBiCGStab:  Solving for Ux, Initial residual = 0.0148949, Final residual = 2.19775e-05, No Iterations 5
DILUPBiCGStab:  Solving for Uy, Initial residual = 0.0354602, Final residual = 3.6645e-05, No Iterations 5
DILUPBiCGStab:  Solving for Uz, Initial residual = 0.0796619, Final residual = 0.000157456, No Iterations 5
linear solve U 270789
nonePCG:  Solving for p, Initial residual = 0.177353, Final residual = 9.49475e-05, No Iterations 243
linear solve p 900093
time step continuity errors : sum local = 4.90525e-08, global = 1.04863e-20, cumulative = 1.86621e-20
nonePCG:  Solving for p, Initial residual = 0.146704, Final residual = 9.72864e-05, No Iterations 239
linear solve p 902477
time step continuity errors : sum local = 4.46858e-08, global = 1.32542e-20, cumulative = 3.19163e-20
ExecutionTime = 25.07 s  ClockTime = 25 s

Time = 0.007

Courant Number mean: 0.0893566 max: 0.648974
DILUPBiCGStab:  Solving for Ux, Initial residual = 0.011884, Final residual = 1.2344e-05, No Iterations 5
DILUPBiCGStab:  Solving for Uy, Initial residual = 0.0272464, Final residual = 2.86802e-05, No Iterations 5
DILUPBiCGStab:  Solving for Uz, Initial residual = 0.0498449, Final residual = 7.73948e-05, No Iterations 5
linear solve U 265208
nonePCG:  Solving for p, Initial residual = 0.124155, Final residual = 9.56585e-05, No Iterations 239
linear solve p 894097
time step continuity errors : sum local = 4.00521e-08, global = -4.8561e-22, cumulative = 3.14307e-20
nonePCG:  Solving for p, Initial residual = 0.103648, Final residual = 9.90665e-05, No Iterations 236
linear solve p 878303
time step continuity errors : sum local = 4.12494e-08, global = -1.55208e-21, cumulative = 2.98786e-20
ExecutionTime = 27.24 s  ClockTime = 27 s

Time = 0.008

Courant Number mean: 0.0937058 max: 0.652002
DILUPBiCGStab:  Solving for Ux, Initial residual = 0.00969539, Final residual = 1.01187e-05, No Iterations 5
DILUPBiCGStab:  Solving for Uy, Initial residual = 0.0223547, Final residual = 1.32845e-05, No Iterations 5
DILUPBiCGStab:  Solving for Uz, Initial residual = 0.0442174, Final residual = 5.68373e-05, No Iterations 5
linear solve U 266577
nonePCG:  Solving for p, Initial residual = 0.0805355, Final residual = 9.7727e-05, No Iterations 236
linear solve p 881826
time step continuity errors : sum local = 4.86811e-08, global = -1.76266e-20, cumulative = 1.2252e-20
nonePCG:  Solving for p, Initial residual = 0.0665057, Final residual = 9.68075e-05, No Iterations 226
linear solve p 843948
time step continuity errors : sum local = 4.26855e-08, global = 3.36243e-21, cumulative = 1.56145e-20
ExecutionTime = 29.38 s  ClockTime = 29 s

Time = 0.009

Courant Number mean: 0.0974484 max: 0.654264
DILUPBiCGStab:  Solving for Ux, Initial residual = 0.0081026, Final residual = 5.39842e-06, No Iterations 5
DILUPBiCGStab:  Solving for Uy, Initial residual = 0.018858, Final residual = 1.31799e-05, No Iterations 5
DILUPBiCGStab:  Solving for Uz, Initial residual = 0.0361776, Final residual = 4.4357e-05, No Iterations 5
linear solve U 264482
nonePCG:  Solving for p, Initial residual = 0.0584448, Final residual = 9.67597e-05, No Iterations 227
linear solve p 849302
time step continuity errors : sum local = 4.24293e-08, global = 2.52068e-21, cumulative = 1.81351e-20
nonePCG:  Solving for p, Initial residual = 0.048748, Final residual = 9.47442e-05, No Iterations 224
linear solve p 833642
time step continuity errors : sum local = 3.85082e-08, global = 4.52524e-21, cumulative = 2.26604e-20
ExecutionTime = 31.47 s  ClockTime = 32 s

Time = 0.01

Courant Number mean: 0.100691 max: 0.656135
DILUPBiCGStab:  Solving for Ux, Initial residual = 0.00695121, Final residual = 4.38269e-06, No Iterations 5
DILUPBiCGStab:  Solving for Uy, Initial residual = 0.016099, Final residual = 6.70755e-06, No Iterations 5
DILUPBiCGStab:  Solving for Uz, Initial residual = 0.0321088, Final residual = 3.30375e-05, No Iterations 5
linear solve U 265966
nonePCG:  Solving for p, Initial residual = 0.0396252, Final residual = 9.77041e-05, No Iterations 480
linear solve p 1783052
time step continuity errors : sum local = 3.91003e-08, global = -9.20744e-21, cumulative = 1.34529e-20
nonePCG:  Solving for p, Initial residual = 0.0333898, Final residual = 9.55969e-05, No Iterations 479
linear solve p 1774887
time step continuity errors : sum local = 3.82851e-08, global = 4.5964e-21, cumulative = 1.80493e-20
ExecutionTime = 35.42 s  ClockTime = 36 s

End

