/*---------------------------------------------------------------------------*\
  =========                 |
  \\      /  F ield         | OpenFOAM: The Open Source CFD Toolbox
   \\    /   O peration     | Website:  https://openfoam.org
    \\  /    A nd           | Version:  8
     \\/     M anipulation  |
\*---------------------------------------------------------------------------*/
Build  : 8-14d69e1ee166
Exec   : icoFoam
Date   : Jul 29 2021
Time   : 04:06:39
Host   : "guyot.icl.utk.edu"
PID    : 122421
I/O    : uncollated
Case   : /home/greole/code/OBR/lidDrivenCavity3D/Variation_mesh/95/Variation_matrix_solver/CG_NoPrecond_CUDA/base
nProcs : 1
sigFpe : Enabling floating point exception trapping (FOAM_SIGFPE).
fileModificationChecking : Monitoring run-time modified files using timeStampMaster (fileModificationSkew 10)
allowSystemOperations : Allowing user-supplied system call operations

// * * * * * * * * * * * * * * * * * * * * * * * * * * * * * * * * * * * * * //
Create time

Create mesh for time = 0

Reading transportProperties

Reading field p

Reading field U

Reading/calculating face flux field phi


Starting time loop

Time = 0.001

Courant Number mean: 0 max: 0
DILUPBiCGStab:  Solving for Ux, Initial residual = 1, Final residual = 0.00597808, No Iterations 5
DILUPBiCGStab:  Solving for Uy:  solution singularity
DILUPBiCGStab:  Solving for Uz:  solution singularity
linear solve U 335993
[OGL LOG] init_host_sparsity_pattern : 391 ms
[OGL LOG] matrix not stored update host matrix
[OGL LOG] update_host_mtx : 196 ms
[OGL LOG] matrix is not yet sorted, compute sorting idxs
[OGL LOG] compute_sort : 8703 ms
[OGL LOG] matrix is not yet sorted, sorting host matrix
[OGL LOG] sort_host_mtx_sparsity_pattern : 168 ms
[OGL LOG] sort_host_mtx : 103 ms
[OGL LOG] init_preconditioner : 0 ms
[OGL LOG] solve : 941 ms
nonecudaGKOCG:  Solving for p, Initial residual = 1, Final residual = 9.63872e-05, No Iterations 752
linear solve p 12205351
time step continuity errors : sum local = 5.56507e-08, global = 8.74522e-21, cumulative = 8.74522e-21
[OGL LOG] init_host_sparsity_pattern : 377 ms
[OGL LOG] matrix not stored update host matrix
[OGL LOG] update_host_mtx : 194 ms
[OGL LOG] matrix is not yet sorted, sorting host matrix
[OGL LOG] sort_host_mtx_sparsity_pattern : 175 ms
[OGL LOG] sort_host_mtx : 103 ms
[OGL LOG] init_preconditioner : 0 ms
[OGL LOG] solve : 925 ms
nonecudaGKOCG:  Solving for p, Initial residual = 0.770647, Final residual = 9.99055e-05, No Iterations 742
linear solve p 1822087
time step continuity errors : sum local = 7.32577e-08, global = -1.00433e-21, cumulative = 7.74089e-21
ExecutionTime = 18.23 s  ClockTime = 18 s

Time = 0.002

Courant Number mean: 0.0534417 max: 0.757475
DILUPBiCGStab:  Solving for Ux, Initial residual = 0.140129, Final residual = 0.00255033, No Iterations 5
DILUPBiCGStab:  Solving for Uy, Initial residual = 0.419603, Final residual = 0.00695949, No Iterations 5
DILUPBiCGStab:  Solving for Uz, Initial residual = 0.989728, Final residual = 0.0177983, No Iterations 5
linear solve U 658918
[OGL LOG] init_host_sparsity_pattern : 377 ms
[OGL LOG] matrix not stored update host matrix
[OGL LOG] update_host_mtx : 194 ms
[OGL LOG] matrix is not yet sorted, sorting host matrix
[OGL LOG] sort_host_mtx_sparsity_pattern : 168 ms
[OGL LOG] sort_host_mtx : 103 ms
[OGL LOG] init_preconditioner : 0 ms
[OGL LOG] solve : 933 ms
nonecudaGKOCG:  Solving for p, Initial residual = 0.783553, Final residual = 9.65118e-05, No Iterations 739
linear solve p 1823116
time step continuity errors : sum local = 9.55762e-08, global = -8.22515e-22, cumulative = 6.91837e-21
[OGL LOG] init_host_sparsity_pattern : 376 ms
[OGL LOG] matrix not stored update host matrix
[OGL LOG] update_host_mtx : 195 ms
[OGL LOG] matrix is not yet sorted, sorting host matrix
[OGL LOG] sort_host_mtx_sparsity_pattern : 164 ms
[OGL LOG] sort_host_mtx : 101 ms
[OGL LOG] init_preconditioner : 0 ms
[OGL LOG] solve : 910 ms
nonecudaGKOCG:  Solving for p, Initial residual = 0.722897, Final residual = 9.61649e-05, No Iterations 737
linear solve p 1793383
time step continuity errors : sum local = 9.71933e-08, global = -1.20336e-20, cumulative = -5.11524e-21
ExecutionTime = 22.9 s  ClockTime = 23 s

Time = 0.003

Courant Number mean: 0.0810139 max: 0.886815
DILUPBiCGStab:  Solving for Ux, Initial residual = 0.0625977, Final residual = 0.00087712, No Iterations 5
DILUPBiCGStab:  Solving for Uy, Initial residual = 0.202715, Final residual = 0.00232247, No Iterations 5
DILUPBiCGStab:  Solving for Uz, Initial residual = 0.778862, Final residual = 0.0126322, No Iterations 5
linear solve U 679590
[OGL LOG] init_host_sparsity_pattern : 371 ms
[OGL LOG] matrix not stored update host matrix
[OGL LOG] update_host_mtx : 194 ms
[OGL LOG] matrix is not yet sorted, sorting host matrix
[OGL LOG] sort_host_mtx_sparsity_pattern : 180 ms
[OGL LOG] sort_host_mtx : 106 ms
[OGL LOG] init_preconditioner : 0 ms
[OGL LOG] solve : 555 ms
nonecudaGKOCG:  Solving for p, Initial residual = 0.809018, Final residual = 9.82613e-05, No Iterations 440
linear solve p 1456872
time step continuity errors : sum local = 8.97002e-08, global = -1.18945e-21, cumulative = -6.30469e-21
[OGL LOG] init_host_sparsity_pattern : 378 ms
[OGL LOG] matrix not stored update host matrix
[OGL LOG] update_host_mtx : 194 ms
[OGL LOG] matrix is not yet sorted, sorting host matrix
[OGL LOG] sort_host_mtx_sparsity_pattern : 169 ms
[OGL LOG] sort_host_mtx : 103 ms
[OGL LOG] init_preconditioner : 0 ms
[OGL LOG] solve : 545 ms
nonecudaGKOCG:  Solving for p, Initial residual = 0.776121, Final residual = 9.44648e-05, No Iterations 439
linear solve p 1437286
time step continuity errors : sum local = 8.23898e-08, global = -3.72915e-21, cumulative = -1.00338e-20
ExecutionTime = 26.86 s  ClockTime = 27 s

Time = 0.004

Courant Number mean: 0.0936152 max: 0.877113
DILUPBiCGStab:  Solving for Ux, Initial residual = 0.0356753, Final residual = 0.000617167, No Iterations 5
DILUPBiCGStab:  Solving for Uy, Initial residual = 0.148236, Final residual = 0.00224198, No Iterations 5
DILUPBiCGStab:  Solving for Uz, Initial residual = 0.579732, Final residual = 0.00799746, No Iterations 5
linear solve U 673774
[OGL LOG] init_host_sparsity_pattern : 376 ms
[OGL LOG] matrix not stored update host matrix
[OGL LOG] update_host_mtx : 201 ms
[OGL LOG] matrix is not yet sorted, sorting host matrix
[OGL LOG] sort_host_mtx_sparsity_pattern : 165 ms
[OGL LOG] sort_host_mtx : 98 ms
[OGL LOG] init_preconditioner : 0 ms
[OGL LOG] solve : 563 ms
nonecudaGKOCG:  Solving for p, Initial residual = 0.70479, Final residual = 9.94327e-05, No Iterations 438
linear solve p 1453882
time step continuity errors : sum local = 8.26473e-08, global = 9.14032e-21, cumulative = -8.93519e-22
[OGL LOG] init_host_sparsity_pattern : 378 ms
[OGL LOG] matrix not stored update host matrix
[OGL LOG] update_host_mtx : 196 ms
[OGL LOG] matrix is not yet sorted, sorting host matrix
[OGL LOG] sort_host_mtx_sparsity_pattern : 158 ms
[OGL LOG] sort_host_mtx : 100 ms
[OGL LOG] init_preconditioner : 0 ms
[OGL LOG] solve : 508 ms
nonecudaGKOCG:  Solving for p, Initial residual = 0.639061, Final residual = 9.68017e-05, No Iterations 403
linear solve p 1387656
time step continuity errors : sum local = 7.93039e-08, global = 1.25134e-20, cumulative = 1.16199e-20
ExecutionTime = 30.77 s  ClockTime = 31 s

Time = 0.005

Courant Number mean: 0.105259 max: 0.889662
DILUPBiCGStab:  Solving for Ux, Initial residual = 0.0274666, Final residual = 0.000432737, No Iterations 5
DILUPBiCGStab:  Solving for Uy, Initial residual = 0.081214, Final residual = 0.00141311, No Iterations 5
DILUPBiCGStab:  Solving for Uz, Initial residual = 0.484218, Final residual = 0.00623558, No Iterations 5
linear solve U 681240
[OGL LOG] init_host_sparsity_pattern : 367 ms
[OGL LOG] matrix not stored update host matrix
[OGL LOG] update_host_mtx : 194 ms
[OGL LOG] matrix is not yet sorted, sorting host matrix
[OGL LOG] sort_host_mtx_sparsity_pattern : 158 ms
[OGL LOG] sort_host_mtx : 110 ms
[OGL LOG] init_preconditioner : 0 ms
[OGL LOG] solve : 487 ms
nonecudaGKOCG:  Solving for p, Initial residual = 0.699288, Final residual = 9.95662e-05, No Iterations 395
linear solve p 1366282
time step continuity errors : sum local = 7.00372e-08, global = -3.40598e-21, cumulative = 8.21394e-21
[OGL LOG] init_host_sparsity_pattern : 378 ms
[OGL LOG] matrix not stored update host matrix
[OGL LOG] update_host_mtx : 194 ms
[OGL LOG] matrix is not yet sorted, sorting host matrix
[OGL LOG] sort_host_mtx_sparsity_pattern : 170 ms
[OGL LOG] sort_host_mtx : 102 ms
[OGL LOG] init_preconditioner : 0 ms
[OGL LOG] solve : 478 ms
nonecudaGKOCG:  Solving for p, Initial residual = 0.648227, Final residual = 9.88546e-05, No Iterations 387
linear solve p 1369650
time step continuity errors : sum local = 6.49012e-08, global = 5.56879e-21, cumulative = 1.37827e-20
ExecutionTime = 34.58 s  ClockTime = 35 s

Time = 0.006

Courant Number mean: 0.113391 max: 0.895055
DILUPBiCGStab:  Solving for Ux, Initial residual = 0.0177921, Final residual = 0.000284109, No Iterations 5
DILUPBiCGStab:  Solving for Uy, Initial residual = 0.0672164, Final residual = 0.00104597, No Iterations 5
DILUPBiCGStab:  Solving for Uz, Initial residual = 0.346893, Final residual = 0.00452794, No Iterations 5
linear solve U 681211
[OGL LOG] init_host_sparsity_pattern : 376 ms
[OGL LOG] matrix not stored update host matrix
[OGL LOG] update_host_mtx : 194 ms
[OGL LOG] matrix is not yet sorted, sorting host matrix
[OGL LOG] sort_host_mtx_sparsity_pattern : 158 ms
[OGL LOG] sort_host_mtx : 101 ms
[OGL LOG] init_preconditioner : 0 ms
[OGL LOG] solve : 494 ms
nonecudaGKOCG:  Solving for p, Initial residual = 0.58199, Final residual = 9.61249e-05, No Iterations 387
linear solve p 1373053
time step continuity errors : sum local = 5.86236e-08, global = -1.7583e-20, cumulative = -3.8003e-21
[OGL LOG] init_host_sparsity_pattern : 378 ms
[OGL LOG] matrix not stored update host matrix
[OGL LOG] update_host_mtx : 197 ms
[OGL LOG] matrix is not yet sorted, sorting host matrix
[OGL LOG] sort_host_mtx_sparsity_pattern : 169 ms
[OGL LOG] sort_host_mtx : 104 ms
[OGL LOG] init_preconditioner : 0 ms
[OGL LOG] solve : 477 ms
nonecudaGKOCG:  Solving for p, Initial residual = 0.52332, Final residual = 9.68315e-05, No Iterations 384
linear solve p 1372794
time step continuity errors : sum local = 5.80993e-08, global = 5.01165e-21, cumulative = 1.21135e-21
ExecutionTime = 38.41 s  ClockTime = 39 s

Time = 0.007

Courant Number mean: 0.120594 max: 0.898295
DILUPBiCGStab:  Solving for Ux, Initial residual = 0.0152426, Final residual = 0.000219134, No Iterations 5
DILUPBiCGStab:  Solving for Uy, Initial residual = 0.0437744, Final residual = 0.000706505, No Iterations 5
DILUPBiCGStab:  Solving for Uz, Initial residual = 0.264215, Final residual = 0.00348839, No Iterations 5
linear solve U 675544
[OGL LOG] init_host_sparsity_pattern : 376 ms
[OGL LOG] matrix not stored update host matrix
[OGL LOG] update_host_mtx : 195 ms
[OGL LOG] matrix is not yet sorted, sorting host matrix
[OGL LOG] sort_host_mtx_sparsity_pattern : 170 ms
[OGL LOG] sort_host_mtx : 108 ms
[OGL LOG] init_preconditioner : 0 ms
[OGL LOG] solve : 904 ms
nonecudaGKOCG:  Solving for p, Initial residual = 0.562281, Final residual = 9.92325e-05, No Iterations 725
linear solve p 1802688
time step continuity errors : sum local = 4.92127e-08, global = 6.54459e-21, cumulative = 7.75593e-21
[OGL LOG] init_host_sparsity_pattern : 379 ms
[OGL LOG] matrix not stored update host matrix
[OGL LOG] update_host_mtx : 194 ms
[OGL LOG] matrix is not yet sorted, sorting host matrix
[OGL LOG] sort_host_mtx_sparsity_pattern : 170 ms
[OGL LOG] sort_host_mtx : 105 ms
[OGL LOG] init_preconditioner : 0 ms
[OGL LOG] solve : 888 ms
nonecudaGKOCG:  Solving for p, Initial residual = 0.504909, Final residual = 9.9588e-05, No Iterations 724
linear solve p 1784441
time step continuity errors : sum local = 4.9177e-08, global = -2.65158e-21, cumulative = 5.10435e-21
ExecutionTime = 43.07 s  ClockTime = 43 s

Time = 0.008

Courant Number mean: 0.126416 max: 0.902024
DILUPBiCGStab:  Solving for Ux, Initial residual = 0.0110599, Final residual = 0.00014948, No Iterations 5
DILUPBiCGStab:  Solving for Uy, Initial residual = 0.0374998, Final residual = 0.000547659, No Iterations 5
DILUPBiCGStab:  Solving for Uz, Initial residual = 0.197214, Final residual = 0.0026222, No Iterations 5
linear solve U 670851
[OGL LOG] init_host_sparsity_pattern : 377 ms
[OGL LOG] matrix not stored update host matrix
[OGL LOG] update_host_mtx : 194 ms
[OGL LOG] matrix is not yet sorted, sorting host matrix
[OGL LOG] sort_host_mtx_sparsity_pattern : 158 ms
[OGL LOG] sort_host_mtx : 98 ms
[OGL LOG] init_preconditioner : 0 ms
[OGL LOG] solve : 450 ms
nonecudaGKOCG:  Solving for p, Initial residual = 0.459242, Final residual = 9.84541e-05, No Iterations 359
linear solve p 1326675
time step continuity errors : sum local = 4.79678e-08, global = 7.45969e-21, cumulative = 1.2564e-20
[OGL LOG] init_host_sparsity_pattern : 379 ms
[OGL LOG] matrix not stored update host matrix
[OGL LOG] update_host_mtx : 201 ms
[OGL LOG] matrix is not yet sorted, sorting host matrix
[OGL LOG] sort_host_mtx_sparsity_pattern : 161 ms
[OGL LOG] sort_host_mtx : 98 ms
[OGL LOG] init_preconditioner : 0 ms
[OGL LOG] solve : 430 ms
nonecudaGKOCG:  Solving for p, Initial residual = 0.40697, Final residual = 9.99727e-05, No Iterations 344
linear solve p 1318000
time step continuity errors : sum local = 4.81909e-08, global = 1.78193e-21, cumulative = 1.4346e-20
ExecutionTime = 46.78 s  ClockTime = 47 s

Time = 0.009

Courant Number mean: 0.131553 max: 0.903729
DILUPBiCGStab:  Solving for Ux, Initial residual = 0.00964988, Final residual = 0.000116434, No Iterations 5
DILUPBiCGStab:  Solving for Uy, Initial residual = 0.0273321, Final residual = 0.00033521, No Iterations 5
DILUPBiCGStab:  Solving for Uz, Initial residual = 0.14763, Final residual = 0.00216124, No Iterations 5
linear solve U 671676
[OGL LOG] init_host_sparsity_pattern : 376 ms
[OGL LOG] matrix not stored update host matrix
[OGL LOG] update_host_mtx : 194 ms
[OGL LOG] matrix is not yet sorted, sorting host matrix
[OGL LOG] sort_host_mtx_sparsity_pattern : 169 ms
[OGL LOG] sort_host_mtx : 98 ms
[OGL LOG] init_preconditioner : 0 ms
[OGL LOG] solve : 470 ms
nonecudaGKOCG:  Solving for p, Initial residual = 0.428004, Final residual = 9.77821e-05, No Iterations 362
linear solve p 1356910
time step continuity errors : sum local = 4.61969e-08, global = -9.63768e-21, cumulative = 4.7083e-21
[OGL LOG] init_host_sparsity_pattern : 372 ms
[OGL LOG] matrix not stored update host matrix
[OGL LOG] update_host_mtx : 195 ms
[OGL LOG] matrix is not yet sorted, sorting host matrix
[OGL LOG] sort_host_mtx_sparsity_pattern : 167 ms
[OGL LOG] sort_host_mtx : 102 ms
[OGL LOG] init_preconditioner : 0 ms
[OGL LOG] solve : 427 ms
nonecudaGKOCG:  Solving for p, Initial residual = 0.375847, Final residual = 9.63474e-05, No Iterations 341
linear solve p 1311749
time step continuity errors : sum local = 4.18485e-08, global = 2.53898e-20, cumulative = 3.00981e-20
ExecutionTime = 50.51 s  ClockTime = 51 s

Time = 0.01

Courant Number mean: 0.135966 max: 0.906069
DILUPBiCGStab:  Solving for Ux, Initial residual = 0.00755092, Final residual = 8.36526e-05, No Iterations 5
DILUPBiCGStab:  Solving for Uy, Initial residual = 0.0238494, Final residual = 0.000280379, No Iterations 5
DILUPBiCGStab:  Solving for Uz, Initial residual = 0.116257, Final residual = 0.00174173, No Iterations 5
linear solve U 672016
[OGL LOG] init_host_sparsity_pattern : 377 ms
[OGL LOG] matrix not stored update host matrix
[OGL LOG] update_host_mtx : 196 ms
[OGL LOG] matrix is not yet sorted, sorting host matrix
[OGL LOG] sort_host_mtx_sparsity_pattern : 160 ms
[OGL LOG] sort_host_mtx : 98 ms
[OGL LOG] init_preconditioner : 0 ms
[OGL LOG] solve : 874 ms
nonecudaGKOCG:  Solving for p, Initial residual = 0.351147, Final residual = 9.90055e-05, No Iterations 715
linear solve p 1754255
time step continuity errors : sum local = 4.05949e-08, global = 4.44109e-21, cumulative = 3.45392e-20
[OGL LOG] init_host_sparsity_pattern : 375 ms
[OGL LOG] matrix not stored update host matrix
[OGL LOG] update_host_mtx : 195 ms
[OGL LOG] matrix is not yet sorted, sorting host matrix
[OGL LOG] sort_host_mtx_sparsity_pattern : 158 ms
[OGL LOG] sort_host_mtx : 103 ms
[OGL LOG] init_preconditioner : 0 ms
[OGL LOG] solve : 893 ms
nonecudaGKOCG:  Solving for p, Initial residual = 0.307699, Final residual = 9.93345e-05, No Iterations 713
linear solve p 1773317
time step continuity errors : sum local = 4.05719e-08, global = -2.34799e-20, cumulative = 1.10594e-20
ExecutionTime = 55.1 s  ClockTime = 55 s

End

