/*---------------------------------------------------------------------------*\
  =========                 |
  \\      /  F ield         | OpenFOAM: The Open Source CFD Toolbox
   \\    /   O peration     | Website:  https://openfoam.org
    \\  /    A nd           | Version:  8
     \\/     M anipulation  |
\*---------------------------------------------------------------------------*/
Build  : 8-ef60d22ea792
Exec   : icoFoam
Date   : Jul 29 2021
Time   : 04:09:13
Host   : "uc2n489.localdomain"
PID    : 3425215
I/O    : uncollated
Case   : /pfs/data5/home/kit/scc/nq7776/code/OBR/lidDrivenCavity3D/Variation_mesh/10/Variation_matrix_solver/IR_NoPrecond_CUDA/base
nProcs : 1
sigFpe : Enabling floating point exception trapping (FOAM_SIGFPE).
fileModificationChecking : Monitoring run-time modified files using timeStampMaster (fileModificationSkew 10)
allowSystemOperations : Allowing user-supplied system call operations

// * * * * * * * * * * * * * * * * * * * * * * * * * * * * * * * * * * * * * //
Create time

Create mesh for time = 0

Reading transportProperties

Reading field p

Reading field U

Reading/calculating face flux field phi


Starting time loop

Time = 0.001

Courant Number mean: 0 max: 0
DILUPBiCGStab:  Solving for Ux, Initial residual = 1, Final residual = 8.04173e-19, No Iterations 5
DILUPBiCGStab:  Solving for Uy:  solution singularity
DILUPBiCGStab:  Solving for Uz:  solution singularity
linear solve U 421
[OGL LOG] init_host_sparsity_pattern : 0 ms
[OGL LOG] matrix not stored update host matrix
[OGL LOG] update_host_mtx : 0 ms
[OGL LOG] matrix is not yet sorted, compute sorting idxs
[OGL LOG] compute_sort : 5 ms
[OGL LOG] matrix is not yet sorted, sorting host matrix
[OGL LOG] sort_host_mtx_sparsity_pattern : 0 ms
[OGL LOG] sort_host_mtx : 0 ms
[OGL LOG] init_preconditioner : 0 ms
[OGL LOG] solve : 13 ms
nonecudaGKOIR:  Solving for p, Initial residual = 1, Final residual = 2.54636e-06, No Iterations 3
linear solve p 741096
time step continuity errors : sum local = 8.4413e-10, global = -2.87815e-21, cumulative = -2.87815e-21
[OGL LOG] init_host_sparsity_pattern : 0 ms
[OGL LOG] matrix not stored update host matrix
[OGL LOG] update_host_mtx : 0 ms
[OGL LOG] matrix is not yet sorted, sorting host matrix
[OGL LOG] sort_host_mtx_sparsity_pattern : 0 ms
[OGL LOG] sort_host_mtx : 0 ms
[OGL LOG] init_preconditioner : 0 ms
[OGL LOG] solve : 9 ms
nonecudaGKOIR:  Solving for p, Initial residual = 0.190403, Final residual = 4.15743e-05, No Iterations 2
linear solve p 10971
time step continuity errors : sum local = 2.53517e-08, global = -1.03299e-21, cumulative = -3.91114e-21
ExecutionTime = 0.79 s  ClockTime = 1 s

Time = 0.002

Courant Number mean: 0.00276862 max: 0.0123846
DILUPBiCGStab:  Solving for Ux, Initial residual = 0.271634, Final residual = 6.92815e-20, No Iterations 5
DILUPBiCGStab:  Solving for Uy, Initial residual = 0.305257, Final residual = 9.73391e-20, No Iterations 5
DILUPBiCGStab:  Solving for Uz, Initial residual = 0.479877, Final residual = 1.67089e-19, No Iterations 5
linear solve U 552
[OGL LOG] init_host_sparsity_pattern : 0 ms
[OGL LOG] matrix not stored update host matrix
[OGL LOG] update_host_mtx : 0 ms
[OGL LOG] matrix is not yet sorted, sorting host matrix
[OGL LOG] sort_host_mtx_sparsity_pattern : 0 ms
[OGL LOG] sort_host_mtx : 0 ms
[OGL LOG] init_preconditioner : 0 ms
[OGL LOG] solve : 9 ms
nonecudaGKOIR:  Solving for p, Initial residual = 0.124803, Final residual = 2.08538e-05, No Iterations 2
linear solve p 10576
time step continuity errors : sum local = 1.30046e-08, global = -1.55148e-20, cumulative = -1.94259e-20
[OGL LOG] init_host_sparsity_pattern : 0 ms
[OGL LOG] matrix not stored update host matrix
[OGL LOG] update_host_mtx : 0 ms
[OGL LOG] matrix is not yet sorted, sorting host matrix
[OGL LOG] sort_host_mtx_sparsity_pattern : 0 ms
[OGL LOG] sort_host_mtx : 0 ms
[OGL LOG] init_preconditioner : 0 ms
[OGL LOG] solve : 9 ms
nonecudaGKOIR:  Solving for p, Initial residual = 0.0212479, Final residual = 2.37631e-06, No Iterations 2
linear solve p 10781
time step continuity errors : sum local = 1.63454e-09, global = -1.01095e-20, cumulative = -2.95354e-20
ExecutionTime = 0.81 s  ClockTime = 1 s

Time = 0.003

Courant Number mean: 0.00491749 max: 0.022139
DILUPBiCGStab:  Solving for Ux, Initial residual = 0.137912, Final residual = 3.7019e-20, No Iterations 5
DILUPBiCGStab:  Solving for Uy, Initial residual = 0.165973, Final residual = 4.87371e-20, No Iterations 5
DILUPBiCGStab:  Solving for Uz, Initial residual = 0.287934, Final residual = 9.86322e-20, No Iterations 5
linear solve U 544
[OGL LOG] init_host_sparsity_pattern : 0 ms
[OGL LOG] matrix not stored update host matrix
[OGL LOG] update_host_mtx : 0 ms
[OGL LOG] matrix is not yet sorted, sorting host matrix
[OGL LOG] sort_host_mtx_sparsity_pattern : 0 ms
[OGL LOG] sort_host_mtx : 0 ms
[OGL LOG] init_preconditioner : 0 ms
[OGL LOG] solve : 9 ms
nonecudaGKOIR:  Solving for p, Initial residual = 0.0634329, Final residual = 7.7023e-06, No Iterations 2
linear solve p 10782
time step continuity errors : sum local = 5.54794e-09, global = -5.09574e-21, cumulative = -3.46311e-20
[OGL LOG] init_host_sparsity_pattern : 0 ms
[OGL LOG] matrix not stored update host matrix
[OGL LOG] update_host_mtx : 0 ms
[OGL LOG] matrix is not yet sorted, sorting host matrix
[OGL LOG] sort_host_mtx_sparsity_pattern : 0 ms
[OGL LOG] sort_host_mtx : 0 ms
[OGL LOG] init_preconditioner : 0 ms
[OGL LOG] solve : 9 ms
nonecudaGKOIR:  Solving for p, Initial residual = 0.0132204, Final residual = 1.27349e-06, No Iterations 2
linear solve p 10657
time step continuity errors : sum local = 1.17331e-09, global = 4.7928e-21, cumulative = -2.98383e-20
ExecutionTime = 0.83 s  ClockTime = 1 s

Time = 0.004

Courant Number mean: 0.00660392 max: 0.0298428
DILUPBiCGStab:  Solving for Ux, Initial residual = 0.0843947, Final residual = 2.35691e-20, No Iterations 5
DILUPBiCGStab:  Solving for Uy, Initial residual = 0.107803, Final residual = 2.84384e-20, No Iterations 5
DILUPBiCGStab:  Solving for Uz, Initial residual = 0.192936, Final residual = 7.69486e-20, No Iterations 5
linear solve U 540
[OGL LOG] init_host_sparsity_pattern : 0 ms
[OGL LOG] matrix not stored update host matrix
[OGL LOG] update_host_mtx : 0 ms
[OGL LOG] matrix is not yet sorted, sorting host matrix
[OGL LOG] sort_host_mtx_sparsity_pattern : 0 ms
[OGL LOG] sort_host_mtx : 0 ms
[OGL LOG] init_preconditioner : 0 ms
[OGL LOG] solve : 9 ms
nonecudaGKOIR:  Solving for p, Initial residual = 0.0390119, Final residual = 5.46104e-06, No Iterations 2
linear solve p 10809
time step continuity errors : sum local = 4.24341e-09, global = -1.00033e-20, cumulative = -3.98416e-20
[OGL LOG] init_host_sparsity_pattern : 0 ms
[OGL LOG] matrix not stored update host matrix
[OGL LOG] update_host_mtx : 0 ms
[OGL LOG] matrix is not yet sorted, sorting host matrix
[OGL LOG] sort_host_mtx_sparsity_pattern : 0 ms
[OGL LOG] sort_host_mtx : 0 ms
[OGL LOG] init_preconditioner : 0 ms
[OGL LOG] solve : 9 ms
nonecudaGKOIR:  Solving for p, Initial residual = 0.00955931, Final residual = 9.66514e-07, No Iterations 2
linear solve p 10697
time step continuity errors : sum local = 9.50419e-10, global = -1.80413e-21, cumulative = -4.16458e-20
ExecutionTime = 0.86 s  ClockTime = 1 s

Time = 0.005

Courant Number mean: 0.0079444 max: 0.0359757
DILUPBiCGStab:  Solving for Ux, Initial residual = 0.0590439, Final residual = 1.62626e-20, No Iterations 5
DILUPBiCGStab:  Solving for Uy, Initial residual = 0.0764358, Final residual = 1.7829e-20, No Iterations 5
DILUPBiCGStab:  Solving for Uz, Initial residual = 0.15048, Final residual = 6.2811e-20, No Iterations 5
linear solve U 546
[OGL LOG] init_host_sparsity_pattern : 0 ms
[OGL LOG] matrix not stored update host matrix
[OGL LOG] update_host_mtx : 0 ms
[OGL LOG] matrix is not yet sorted, sorting host matrix
[OGL LOG] sort_host_mtx_sparsity_pattern : 0 ms
[OGL LOG] sort_host_mtx : 0 ms
[OGL LOG] init_preconditioner : 0 ms
[OGL LOG] solve : 9 ms
nonecudaGKOIR:  Solving for p, Initial residual = 0.0280734, Final residual = 4.23588e-06, No Iterations 2
linear solve p 10807
time step continuity errors : sum local = 3.45795e-09, global = 3.73379e-20, cumulative = -4.30789e-21
[OGL LOG] init_host_sparsity_pattern : 0 ms
[OGL LOG] matrix not stored update host matrix
[OGL LOG] update_host_mtx : 0 ms
[OGL LOG] matrix is not yet sorted, sorting host matrix
[OGL LOG] sort_host_mtx_sparsity_pattern : 0 ms
[OGL LOG] sort_host_mtx : 0 ms
[OGL LOG] init_preconditioner : 0 ms
[OGL LOG] solve : 6 ms
nonecudaGKOIR:  Solving for p, Initial residual = 0.00733469, Final residual = 8.51884e-05, No Iterations 1
linear solve p 7713
time step continuity errors : sum local = 7.07834e-08, global = -1.64855e-20, cumulative = -2.07934e-20
ExecutionTime = 0.88 s  ClockTime = 1 s

Time = 0.006

Courant Number mean: 0.0090242 max: 0.0408976
DILUPBiCGStab:  Solving for Ux, Initial residual = 0.0444262, Final residual = 1.17381e-20, No Iterations 5
DILUPBiCGStab:  Solving for Uy, Initial residual = 0.0572632, Final residual = 1.17254e-20, No Iterations 5
DILUPBiCGStab:  Solving for Uz, Initial residual = 0.122495, Final residual = 5.08865e-20, No Iterations 5
linear solve U 543
[OGL LOG] init_host_sparsity_pattern : 0 ms
[OGL LOG] matrix not stored update host matrix
[OGL LOG] update_host_mtx : 0 ms
[OGL LOG] matrix is not yet sorted, sorting host matrix
[OGL LOG] sort_host_mtx_sparsity_pattern : 0 ms
[OGL LOG] sort_host_mtx : 0 ms
[OGL LOG] init_preconditioner : 0 ms
[OGL LOG] solve : 9 ms
nonecudaGKOIR:  Solving for p, Initial residual = 0.0228146, Final residual = 3.46982e-06, No Iterations 2
linear solve p 10816
time step continuity errors : sum local = 2.9274e-09, global = -1.78957e-20, cumulative = -3.8689e-20
[OGL LOG] init_host_sparsity_pattern : 0 ms
[OGL LOG] matrix not stored update host matrix
[OGL LOG] update_host_mtx : 0 ms
[OGL LOG] matrix is not yet sorted, sorting host matrix
[OGL LOG] sort_host_mtx_sparsity_pattern : 0 ms
[OGL LOG] sort_host_mtx : 0 ms
[OGL LOG] init_preconditioner : 0 ms
[OGL LOG] solve : 6 ms
nonecudaGKOIR:  Solving for p, Initial residual = 0.00581026, Final residual = 7.31135e-05, No Iterations 1
linear solve p 7722
time step continuity errors : sum local = 6.24782e-08, global = 2.24451e-20, cumulative = -1.62439e-20
ExecutionTime = 0.9 s  ClockTime = 1 s

Time = 0.007

Courant Number mean: 0.00990696 max: 0.0448801
DILUPBiCGStab:  Solving for Ux, Initial residual = 0.0349033, Final residual = 8.75866e-21, No Iterations 5
DILUPBiCGStab:  Solving for Uy, Initial residual = 0.0445961, Final residual = 8.05673e-21, No Iterations 5
DILUPBiCGStab:  Solving for Uz, Initial residual = 0.102242, Final residual = 4.20029e-20, No Iterations 5
linear solve U 540
[OGL LOG] init_host_sparsity_pattern : 0 ms
[OGL LOG] matrix not stored update host matrix
[OGL LOG] update_host_mtx : 0 ms
[OGL LOG] matrix is not yet sorted, sorting host matrix
[OGL LOG] sort_host_mtx_sparsity_pattern : 0 ms
[OGL LOG] sort_host_mtx : 0 ms
[OGL LOG] init_preconditioner : 0 ms
[OGL LOG] solve : 10 ms
nonecudaGKOIR:  Solving for p, Initial residual = 0.0194846, Final residual = 2.24068e-06, No Iterations 2
linear solve p 11088
time step continuity errors : sum local = 1.94034e-09, global = -2.44581e-22, cumulative = -1.64885e-20
[OGL LOG] init_host_sparsity_pattern : 0 ms
[OGL LOG] matrix not stored update host matrix
[OGL LOG] update_host_mtx : 0 ms
[OGL LOG] matrix is not yet sorted, sorting host matrix
[OGL LOG] sort_host_mtx_sparsity_pattern : 0 ms
[OGL LOG] sort_host_mtx : 0 ms
[OGL LOG] init_preconditioner : 0 ms
[OGL LOG] solve : 6 ms
nonecudaGKOIR:  Solving for p, Initial residual = 0.00473711, Final residual = 5.79966e-05, No Iterations 1
linear solve p 7780
time step continuity errors : sum local = 5.07549e-08, global = 5.68273e-21, cumulative = -1.08058e-20
ExecutionTime = 0.92 s  ClockTime = 1 s

Time = 0.008

Courant Number mean: 0.0106744 max: 0.0481313
DILUPBiCGStab:  Solving for Ux, Initial residual = 0.0282094, Final residual = 6.85086e-21, No Iterations 5
DILUPBiCGStab:  Solving for Uy, Initial residual = 0.0357574, Final residual = 5.92595e-21, No Iterations 5
DILUPBiCGStab:  Solving for Uz, Initial residual = 0.0864542, Final residual = 3.54723e-20, No Iterations 5
linear solve U 544
[OGL LOG] init_host_sparsity_pattern : 0 ms
[OGL LOG] matrix not stored update host matrix
[OGL LOG] update_host_mtx : 0 ms
[OGL LOG] matrix is not yet sorted, sorting host matrix
[OGL LOG] sort_host_mtx_sparsity_pattern : 0 ms
[OGL LOG] sort_host_mtx : 0 ms
[OGL LOG] init_preconditioner : 0 ms
[OGL LOG] solve : 9 ms
nonecudaGKOIR:  Solving for p, Initial residual = 0.0167759, Final residual = 2.68705e-06, No Iterations 2
linear solve p 10813
time step continuity errors : sum local = 2.37995e-09, global = -1.23329e-20, cumulative = -2.31387e-20
[OGL LOG] init_host_sparsity_pattern : 0 ms
[OGL LOG] matrix not stored update host matrix
[OGL LOG] update_host_mtx : 0 ms
[OGL LOG] matrix is not yet sorted, sorting host matrix
[OGL LOG] sort_host_mtx_sparsity_pattern : 0 ms
[OGL LOG] sort_host_mtx : 0 ms
[OGL LOG] init_preconditioner : 0 ms
[OGL LOG] solve : 3 ms
nonecudaGKOIR:  Solving for p, Initial residual = 0.00387103, Final residual = 5.21504e-05, No Iterations 1
linear solve p 4771
time step continuity errors : sum local = 6.71458e-08, global = -3.34719e-21, cumulative = -2.64859e-20
ExecutionTime = 0.94 s  ClockTime = 1 s

Time = 0.009

Courant Number mean: 0.0113438 max: 0.0508022
DILUPBiCGStab:  Solving for Ux, Initial residual = 0.0231965, Final residual = 5.57796e-21, No Iterations 5
DILUPBiCGStab:  Solving for Uy, Initial residual = 0.0293701, Final residual = 4.75243e-21, No Iterations 5
DILUPBiCGStab:  Solving for Uz, Initial residual = 0.0734473, Final residual = 2.92787e-20, No Iterations 5
linear solve U 539
[OGL LOG] init_host_sparsity_pattern : 0 ms
[OGL LOG] matrix not stored update host matrix
[OGL LOG] update_host_mtx : 0 ms
[OGL LOG] matrix is not yet sorted, sorting host matrix
[OGL LOG] sort_host_mtx_sparsity_pattern : 0 ms
[OGL LOG] sort_host_mtx : 0 ms
[OGL LOG] init_preconditioner : 0 ms
[OGL LOG] solve : 9 ms
nonecudaGKOIR:  Solving for p, Initial residual = 0.0150966, Final residual = 1.86116e-06, No Iterations 2
linear solve p 10943
time step continuity errors : sum local = 1.67557e-09, global = 2.19877e-20, cumulative = -4.49814e-21
[OGL LOG] init_host_sparsity_pattern : 0 ms
[OGL LOG] matrix not stored update host matrix
[OGL LOG] update_host_mtx : 0 ms
[OGL LOG] matrix is not yet sorted, sorting host matrix
[OGL LOG] sort_host_mtx_sparsity_pattern : 0 ms
[OGL LOG] sort_host_mtx : 0 ms
[OGL LOG] init_preconditioner : 0 ms
[OGL LOG] solve : 3 ms
nonecudaGKOIR:  Solving for p, Initial residual = 0.00333378, Final residual = 4.04018e-05, No Iterations 1
linear solve p 4778
time step continuity errors : sum local = 5.04462e-08, global = 1.10207e-20, cumulative = 6.52259e-21
ExecutionTime = 0.95 s  ClockTime = 1 s

Time = 0.01

Courant Number mean: 0.011944 max: 0.053017
DILUPBiCGStab:  Solving for Ux, Initial residual = 0.0193024, Final residual = 4.68956e-21, No Iterations 5
DILUPBiCGStab:  Solving for Uy, Initial residual = 0.024545, Final residual = 4.13144e-21, No Iterations 5
DILUPBiCGStab:  Solving for Uz, Initial residual = 0.0637007, Final residual = 2.59314e-20, No Iterations 5
linear solve U 540
[OGL LOG] init_host_sparsity_pattern : 0 ms
[OGL LOG] matrix not stored update host matrix
[OGL LOG] update_host_mtx : 0 ms
[OGL LOG] matrix is not yet sorted, sorting host matrix
[OGL LOG] sort_host_mtx_sparsity_pattern : 0 ms
[OGL LOG] sort_host_mtx : 0 ms
[OGL LOG] init_preconditioner : 0 ms
[OGL LOG] solve : 9 ms
nonecudaGKOIR:  Solving for p, Initial residual = 0.0134748, Final residual = 1.52397e-06, No Iterations 2
linear solve p 10931
time step continuity errors : sum local = 1.3946e-09, global = 3.06661e-20, cumulative = 3.71886e-20
[OGL LOG] init_host_sparsity_pattern : 0 ms
[OGL LOG] matrix not stored update host matrix
[OGL LOG] update_host_mtx : 0 ms
[OGL LOG] matrix is not yet sorted, sorting host matrix
[OGL LOG] sort_host_mtx_sparsity_pattern : 0 ms
[OGL LOG] sort_host_mtx : 0 ms
[OGL LOG] init_preconditioner : 0 ms
[OGL LOG] solve : 3 ms
nonecudaGKOIR:  Solving for p, Initial residual = 0.00272581, Final residual = 3.54263e-05, No Iterations 1
linear solve p 4816
time step continuity errors : sum local = 4.55776e-08, global = -1.38842e-20, cumulative = 2.33044e-20
ExecutionTime = 0.97 s  ClockTime = 1 s

End

