/*---------------------------------------------------------------------------*\
  =========                 |
  \\      /  F ield         | OpenFOAM: The Open Source CFD Toolbox
   \\    /   O peration     | Website:  https://openfoam.org
    \\  /    A nd           | Version:  8
     \\/     M anipulation  |
\*---------------------------------------------------------------------------*/
Build  : 8-ef60d22ea792
Exec   : icoFoam
Date   : Jul 28 2021
Time   : 18:12:05
Host   : "nla-gpu2.ianm.kit.edu"
PID    : 1581706
I/O    : uncollated
Case   : /home/greole/code/OBR/lidDrivenCavity3D/Variation_mesh/75/Variation_matrix_solver/BiCGStab_NoPrecond_HIP/base
nProcs : 1
sigFpe : Enabling floating point exception trapping (FOAM_SIGFPE).
fileModificationChecking : Monitoring run-time modified files using timeStampMaster (fileModificationSkew 10)
allowSystemOperations : Allowing user-supplied system call operations

// * * * * * * * * * * * * * * * * * * * * * * * * * * * * * * * * * * * * * //
Create time

Create mesh for time = 0

Reading transportProperties

Reading field p

Reading field U

Reading/calculating face flux field phi


Starting time loop

Time = 0.001

Courant Number mean: 0 max: 0
DILUPBiCGStab:  Solving for Ux, Initial residual = 1, Final residual = 0.00209367, No Iterations 5
DILUPBiCGStab:  Solving for Uy:  solution singularity
DILUPBiCGStab:  Solving for Uz:  solution singularity
linear solve U 174579
[OGL LOG] init_host_sparsity_pattern : 196 ms
[OGL LOG] matrix not stored update host matrix
[OGL LOG] update_host_mtx : 95 ms
[OGL LOG] matrix is not yet sorted, compute sorting idxs
[OGL LOG] compute_sort : 3980 ms
[OGL LOG] matrix is not yet sorted, sorting host matrix
[OGL LOG] sort_host_mtx_sparsity_pattern : 87 ms
[OGL LOG] sort_host_mtx : 51 ms
[OGL LOG] init_preconditioner : 0 ms
[OGL LOG] solve : 310 ms
nonehipGKOBiCGStab:  Solving for p, Initial residual = 1, Final residual = 9.29459e-05, No Iterations 470
linear solve p 5177496
time step continuity errors : sum local = 0.00984183, global = -1.5452e-19, cumulative = -1.5452e-19
[OGL LOG] init_host_sparsity_pattern : 190 ms
[OGL LOG] matrix not stored update host matrix
[OGL LOG] update_host_mtx : 90 ms
[OGL LOG] matrix is not yet sorted, sorting host matrix
[OGL LOG] sort_host_mtx_sparsity_pattern : 79 ms
[OGL LOG] sort_host_mtx : 49 ms
[OGL LOG] init_preconditioner : 0 ms
[OGL LOG] solve : 104 ms
nonehipGKOBiCGStab:  Solving for p, Initial residual = 0.972141, Final residual = 9.97441e-05, No Iterations 174
linear solve p 531429
time step continuity errors : sum local = 3.24072e-05, global = 9.21544e-22, cumulative = -1.53599e-19
ExecutionTime = 8.21 s  ClockTime = 8 s

Time = 0.002

Courant Number mean: 0.0423929 max: 0.567206
DILUPBiCGStab:  Solving for Ux, Initial residual = 0.15189, Final residual = 0.000729283, No Iterations 5
DILUPBiCGStab:  Solving for Uy, Initial residual = 0.455625, Final residual = 0.00182234, No Iterations 5
DILUPBiCGStab:  Solving for Uz, Initial residual = 0.869489, Final residual = 0.00253223, No Iterations 5
linear solve U 335547
[OGL LOG] init_host_sparsity_pattern : 189 ms
[OGL LOG] matrix not stored update host matrix
[OGL LOG] update_host_mtx : 90 ms
[OGL LOG] matrix is not yet sorted, sorting host matrix
[OGL LOG] sort_host_mtx_sparsity_pattern : 80 ms
[OGL LOG] sort_host_mtx : 49 ms
[OGL LOG] init_preconditioner : 0 ms
[OGL LOG] solve : 256 ms
nonehipGKOBiCGStab:  Solving for p, Initial residual = 0.910373, Final residual = 9.69455e-05, No Iterations 428
linear solve p 683533
time step continuity errors : sum local = 0.032948, global = 6.44383e-18, cumulative = 6.29023e-18
[OGL LOG] init_host_sparsity_pattern : 189 ms
[OGL LOG] matrix not stored update host matrix
[OGL LOG] update_host_mtx : 90 ms
[OGL LOG] matrix is not yet sorted, sorting host matrix
[OGL LOG] sort_host_mtx_sparsity_pattern : 80 ms
[OGL LOG] sort_host_mtx : 48 ms
[OGL LOG] init_preconditioner : 0 ms
[OGL LOG] solve : 105 ms
nonehipGKOBiCGStab:  Solving for p, Initial residual = 0.954482, Final residual = 9.8922e-05, No Iterations 170
linear solve p 530619
time step continuity errors : sum local = 6.52418e-05, global = -3.55513e-20, cumulative = 6.25468e-18
ExecutionTime = 10.21 s  ClockTime = 10 s

Time = 0.003

Courant Number mean: 0.0648272 max: 0.683254
DILUPBiCGStab:  Solving for Ux, Initial residual = 0.0589905, Final residual = 0.000206291, No Iterations 5
DILUPBiCGStab:  Solving for Uy, Initial residual = 0.511397, Final residual = 0.00139135, No Iterations 5
DILUPBiCGStab:  Solving for Uz, Initial residual = 0.838958, Final residual = 0.00201223, No Iterations 5
linear solve U 339923
[OGL LOG] init_host_sparsity_pattern : 189 ms
[OGL LOG] matrix not stored update host matrix
[OGL LOG] update_host_mtx : 90 ms
[OGL LOG] matrix is not yet sorted, sorting host matrix
[OGL LOG] sort_host_mtx_sparsity_pattern : 80 ms
[OGL LOG] sort_host_mtx : 48 ms
[OGL LOG] init_preconditioner : 0 ms
[OGL LOG] solve : 235 ms
nonehipGKOBiCGStab:  Solving for p, Initial residual = 0.944239, Final residual = 9.81152e-05, No Iterations 390
linear solve p 661332
time step continuity errors : sum local = 0.040865, global = -2.25502e-18, cumulative = 3.99967e-18
[OGL LOG] init_host_sparsity_pattern : 189 ms
[OGL LOG] matrix not stored update host matrix
[OGL LOG] update_host_mtx : 90 ms
[OGL LOG] matrix is not yet sorted, sorting host matrix
[OGL LOG] sort_host_mtx_sparsity_pattern : 79 ms
[OGL LOG] sort_host_mtx : 48 ms
[OGL LOG] init_preconditioner : 0 ms
[OGL LOG] solve : 82 ms
nonehipGKOBiCGStab:  Solving for p, Initial residual = 0.923506, Final residual = 9.86879e-05, No Iterations 134
linear solve p 506722
time step continuity errors : sum local = 7.20678e-05, global = 1.60102e-20, cumulative = 4.01568e-18
ExecutionTime = 12.13 s  ClockTime = 12 s

Time = 0.004

Courant Number mean: 0.0781059 max: 0.724318
DILUPBiCGStab:  Solving for Ux, Initial residual = 0.0498831, Final residual = 0.000231562, No Iterations 5
DILUPBiCGStab:  Solving for Uy, Initial residual = 0.549902, Final residual = 0.00143942, No Iterations 5
DILUPBiCGStab:  Solving for Uz, Initial residual = 0.877715, Final residual = 0.00187693, No Iterations 5
linear solve U 332896
[OGL LOG] init_host_sparsity_pattern : 189 ms
[OGL LOG] matrix not stored update host matrix
[OGL LOG] update_host_mtx : 90 ms
[OGL LOG] matrix is not yet sorted, sorting host matrix
[OGL LOG] sort_host_mtx_sparsity_pattern : 83 ms
[OGL LOG] sort_host_mtx : 50 ms
[OGL LOG] init_preconditioner : 0 ms
[OGL LOG] solve : 231 ms
nonehipGKOBiCGStab:  Solving for p, Initial residual = 0.946757, Final residual = 9.40059e-05, No Iterations 386
linear solve p 662234
time step continuity errors : sum local = 0.12895, global = -2.00401e-18, cumulative = 2.01166e-18
[OGL LOG] init_host_sparsity_pattern : 189 ms
[OGL LOG] matrix not stored update host matrix
[OGL LOG] update_host_mtx : 90 ms
[OGL LOG] matrix is not yet sorted, sorting host matrix
[OGL LOG] sort_host_mtx_sparsity_pattern : 80 ms
[OGL LOG] sort_host_mtx : 49 ms
[OGL LOG] init_preconditioner : 0 ms
[OGL LOG] solve : 85 ms
nonehipGKOBiCGStab:  Solving for p, Initial residual = 0.929093, Final residual = 9.72821e-05, No Iterations 140
linear solve p 512845
time step continuity errors : sum local = 1.80215e-05, global = -3.78518e-21, cumulative = 2.00788e-18
ExecutionTime = 14.05 s  ClockTime = 13 s

Time = 0.005

Courant Number mean: 0.090585 max: 0.766735
DILUPBiCGStab:  Solving for Ux, Initial residual = 0.0679047, Final residual = 0.00029162, No Iterations 5
DILUPBiCGStab:  Solving for Uy, Initial residual = 0.716704, Final residual = 0.00138811, No Iterations 5
DILUPBiCGStab:  Solving for Uz, Initial residual = 0.869007, Final residual = 0.0024, No Iterations 5
linear solve U 334663
[OGL LOG] init_host_sparsity_pattern : 190 ms
[OGL LOG] matrix not stored update host matrix
[OGL LOG] update_host_mtx : 90 ms
[OGL LOG] matrix is not yet sorted, sorting host matrix
[OGL LOG] sort_host_mtx_sparsity_pattern : 84 ms
[OGL LOG] sort_host_mtx : 48 ms
[OGL LOG] init_preconditioner : 0 ms
[OGL LOG] solve : 249 ms
nonehipGKOBiCGStab:  Solving for p, Initial residual = 0.961658, Final residual = 9.91925e-05, No Iterations 416
linear solve p 682026
time step continuity errors : sum local = 0.39241, global = 1.82887e-17, cumulative = 2.02965e-17
[OGL LOG] init_host_sparsity_pattern : 189 ms
[OGL LOG] matrix not stored update host matrix
[OGL LOG] update_host_mtx : 90 ms
[OGL LOG] matrix is not yet sorted, sorting host matrix
[OGL LOG] sort_host_mtx_sparsity_pattern : 79 ms
[OGL LOG] sort_host_mtx : 49 ms
[OGL LOG] init_preconditioner : 0 ms
[OGL LOG] solve : 84 ms
nonehipGKOBiCGStab:  Solving for p, Initial residual = 0.940774, Final residual = 7.51213e-05, No Iterations 138
linear solve p 510535
time step continuity errors : sum local = 4.25298e-05, global = -1.13516e-19, cumulative = 2.0183e-17
ExecutionTime = 16.02 s  ClockTime = 15 s

Time = 0.006

Courant Number mean: 0.113863 max: 1.33288
DILUPBiCGStab:  Solving for Ux, Initial residual = 0.133866, Final residual = 0.000737065, No Iterations 5
DILUPBiCGStab:  Solving for Uy, Initial residual = 0.768081, Final residual = 0.00119492, No Iterations 5
DILUPBiCGStab:  Solving for Uz, Initial residual = 0.843465, Final residual = 0.00178745, No Iterations 5
linear solve U 333469
[OGL LOG] init_host_sparsity_pattern : 189 ms
[OGL LOG] matrix not stored update host matrix
[OGL LOG] update_host_mtx : 90 ms
[OGL LOG] matrix is not yet sorted, sorting host matrix
[OGL LOG] sort_host_mtx_sparsity_pattern : 81 ms
[OGL LOG] sort_host_mtx : 50 ms
[OGL LOG] init_preconditioner : 0 ms
[OGL LOG] solve : 243 ms
nonehipGKOBiCGStab:  Solving for p, Initial residual = 0.964878, Final residual = 8.08606e-05, No Iterations 404
linear solve p 672544
time step continuity errors : sum local = 1.84815, global = -8.5458e-18, cumulative = 1.16372e-17
[OGL LOG] init_host_sparsity_pattern : 189 ms
[OGL LOG] matrix not stored update host matrix
[OGL LOG] update_host_mtx : 90 ms
[OGL LOG] matrix is not yet sorted, sorting host matrix
[OGL LOG] sort_host_mtx_sparsity_pattern : 79 ms
[OGL LOG] sort_host_mtx : 50 ms
[OGL LOG] init_preconditioner : 0 ms
[OGL LOG] solve : 75 ms
nonehipGKOBiCGStab:  Solving for p, Initial residual = 0.947188, Final residual = 9.69444e-05, No Iterations 120
linear solve p 502408
time step continuity errors : sum local = 0.000238079, global = 1.43801e-18, cumulative = 1.30752e-17
ExecutionTime = 17.94 s  ClockTime = 17 s

Time = 0.007

Courant Number mean: 0.186826 max: 2.74234
DILUPBiCGStab:  Solving for Ux, Initial residual = 0.355159, Final residual = 0.00210949, No Iterations 5
DILUPBiCGStab:  Solving for Uy, Initial residual = 0.790146, Final residual = 0.00151975, No Iterations 5
DILUPBiCGStab:  Solving for Uz, Initial residual = 0.864895, Final residual = 0.00284135, No Iterations 5
linear solve U 333434
[OGL LOG] init_host_sparsity_pattern : 189 ms
[OGL LOG] matrix not stored update host matrix
[OGL LOG] update_host_mtx : 90 ms
[OGL LOG] matrix is not yet sorted, sorting host matrix
[OGL LOG] sort_host_mtx_sparsity_pattern : 81 ms
[OGL LOG] sort_host_mtx : 49 ms
[OGL LOG] init_preconditioner : 0 ms
[OGL LOG] solve : 222 ms
nonehipGKOBiCGStab:  Solving for p, Initial residual = 0.95173, Final residual = 9.69988e-05, No Iterations 377
linear solve p 651227
time step continuity errors : sum local = 4.42554, global = 1.18264e-15, cumulative = 1.19571e-15
[OGL LOG] init_host_sparsity_pattern : 189 ms
[OGL LOG] matrix not stored update host matrix
[OGL LOG] update_host_mtx : 90 ms
[OGL LOG] matrix is not yet sorted, sorting host matrix
[OGL LOG] sort_host_mtx_sparsity_pattern : 79 ms
[OGL LOG] sort_host_mtx : 49 ms
[OGL LOG] init_preconditioner : 0 ms
[OGL LOG] solve : 82 ms
nonehipGKOBiCGStab:  Solving for p, Initial residual = 0.920054, Final residual = 9.73212e-05, No Iterations 134
linear solve p 508922
time step continuity errors : sum local = 0.00514712, global = -3.37124e-18, cumulative = 1.19234e-15
ExecutionTime = 19.85 s  ClockTime = 18 s

Time = 0.008

Courant Number mean: 0.670375 max: 13.4231
DILUPBiCGStab:  Solving for Ux, Initial residual = 0.535065, Final residual = 0.00280487, No Iterations 5
DILUPBiCGStab:  Solving for Uy, Initial residual = 0.8194, Final residual = 0.00154189, No Iterations 5
DILUPBiCGStab:  Solving for Uz, Initial residual = 0.849342, Final residual = 0.0029851, No Iterations 5
linear solve U 339172
[OGL LOG] init_host_sparsity_pattern : 189 ms
[OGL LOG] matrix not stored update host matrix
[OGL LOG] update_host_mtx : 90 ms
[OGL LOG] matrix is not yet sorted, sorting host matrix
[OGL LOG] sort_host_mtx_sparsity_pattern : 80 ms
[OGL LOG] sort_host_mtx : 48 ms
[OGL LOG] init_preconditioner : 0 ms
[OGL LOG] solve : 255 ms
nonehipGKOBiCGStab:  Solving for p, Initial residual = 0.959364, Final residual = 9.95106e-05, No Iterations 371
linear solve p 682623
time step continuity errors : sum local = 2.43291, global = -3.52979e-16, cumulative = 8.39361e-16
[OGL LOG] init_host_sparsity_pattern : 189 ms
[OGL LOG] matrix not stored update host matrix
[OGL LOG] update_host_mtx : 90 ms
[OGL LOG] matrix is not yet sorted, sorting host matrix
[OGL LOG] sort_host_mtx_sparsity_pattern : 80 ms
[OGL LOG] sort_host_mtx : 49 ms
[OGL LOG] init_preconditioner : 0 ms
[OGL LOG] solve : 110 ms
nonehipGKOBiCGStab:  Solving for p, Initial residual = 0.884707, Final residual = 8.33373e-05, No Iterations 156
linear solve p 538366
time step continuity errors : sum local = 0.00059746, global = 4.8265e-19, cumulative = 8.39843e-16
ExecutionTime = 21.85 s  ClockTime = 20 s

Time = 0.009

Courant Number mean: 1.61051 max: 19.1507
DILUPBiCGStab:  Solving for Ux, Initial residual = 0.682912, Final residual = 0.00312354, No Iterations 5
DILUPBiCGStab:  Solving for Uy, Initial residual = 0.858532, Final residual = 0.00172057, No Iterations 5
DILUPBiCGStab:  Solving for Uz, Initial residual = 0.862139, Final residual = 0.00209206, No Iterations 5
linear solve U 334001
[OGL LOG] init_host_sparsity_pattern : 189 ms
[OGL LOG] matrix not stored update host matrix
[OGL LOG] update_host_mtx : 90 ms
[OGL LOG] matrix is not yet sorted, sorting host matrix
[OGL LOG] sort_host_mtx_sparsity_pattern : 80 ms
[OGL LOG] sort_host_mtx : 48 ms
[OGL LOG] init_preconditioner : 0 ms
[OGL LOG] solve : 266 ms
nonehipGKOBiCGStab:  Solving for p, Initial residual = 0.975766, Final residual = 7.93768e-05, No Iterations 388
linear solve p 691975
time step continuity errors : sum local = 0.000876373, global = 1.52612e-17, cumulative = 8.55104e-16
[OGL LOG] init_host_sparsity_pattern : 189 ms
[OGL LOG] matrix not stored update host matrix
[OGL LOG] update_host_mtx : 90 ms
[OGL LOG] matrix is not yet sorted, sorting host matrix
[OGL LOG] sort_host_mtx_sparsity_pattern : 79 ms
[OGL LOG] sort_host_mtx : 49 ms
[OGL LOG] init_preconditioner : 0 ms
[OGL LOG] solve : 105 ms
nonehipGKOBiCGStab:  Solving for p, Initial residual = 0.842563, Final residual = 9.61633e-05, No Iterations 172
linear solve p 532760
time step continuity errors : sum local = 0.00449444, global = 8.02405e-19, cumulative = 8.55907e-16
ExecutionTime = 23.85 s  ClockTime = 22 s

Time = 0.01

Courant Number mean: 1.19681 max: 91.749
DILUPBiCGStab:  Solving for Ux, Initial residual = 0.57591, Final residual = 0.0922553, No Iterations 5
DILUPBiCGStab:  Solving for Uy, Initial residual = 0.841702, Final residual = 0.0334485, No Iterations 5
DILUPBiCGStab:  Solving for Uz, Initial residual = 0.880192, Final residual = 0.0319107, No Iterations 5
linear solve U 332869
[OGL LOG] init_host_sparsity_pattern : 189 ms
[OGL LOG] matrix not stored update host matrix
[OGL LOG] update_host_mtx : 90 ms
[OGL LOG] matrix is not yet sorted, sorting host matrix
[OGL LOG] sort_host_mtx_sparsity_pattern : 82 ms
[OGL LOG] sort_host_mtx : 48 ms
[OGL LOG] init_preconditioner : 0 ms
[OGL LOG] solve : 249 ms
nonehipGKOBiCGStab:  Solving for p, Initial residual = 0.988919, Final residual = 6.17909e-05, No Iterations 415
linear solve p 678862
time step continuity errors : sum local = 0.000344155, global = 3.54179e-18, cumulative = 8.59449e-16
[OGL LOG] init_host_sparsity_pattern : 190 ms
[OGL LOG] matrix not stored update host matrix
[OGL LOG] update_host_mtx : 90 ms
[OGL LOG] matrix is not yet sorted, sorting host matrix
[OGL LOG] sort_host_mtx_sparsity_pattern : 80 ms
[OGL LOG] sort_host_mtx : 49 ms
[OGL LOG] init_preconditioner : 0 ms
[OGL LOG] solve : 247 ms
nonehipGKOBiCGStab:  Solving for p, Initial residual = 0.844488, Final residual = 8.9619e-05, No Iterations 415
linear solve p 676132
time step continuity errors : sum local = 0.000374942, global = -2.64026e-18, cumulative = 8.56808e-16
ExecutionTime = 26.07 s  ClockTime = 24 s

End

