/*---------------------------------------------------------------------------*\
  =========                 |
  \\      /  F ield         | OpenFOAM: The Open Source CFD Toolbox
   \\    /   O peration     | Website:  https://openfoam.org
    \\  /    A nd           | Version:  8
     \\/     M anipulation  |
\*---------------------------------------------------------------------------*/
Build  : 8-ef60d22ea792
Exec   : icoFoam
Date   : Jul 28 2021
Time   : 22:08:51
Host   : "uc2n542.localdomain"
PID    : 4185593
I/O    : uncollated
Case   : /pfs/data5/home/kit/scc/nq7776/code/OBR/lidDrivenCavity3D/Variation_mesh/5/Variation_matrix_solver/BiCGStab_NoPrecond_OMP/base
nProcs : 1
sigFpe : Enabling floating point exception trapping (FOAM_SIGFPE).
fileModificationChecking : Monitoring run-time modified files using timeStampMaster (fileModificationSkew 10)
allowSystemOperations : Allowing user-supplied system call operations

// * * * * * * * * * * * * * * * * * * * * * * * * * * * * * * * * * * * * * //
Create time

Create mesh for time = 0

Reading transportProperties

Reading field p

Reading field U

Reading/calculating face flux field phi


Starting time loop

Time = 0.001

Courant Number mean: 0 max: 0
DILUPBiCGStab:  Solving for Ux, Initial residual = 1, Final residual = 8.38041e-30, No Iterations 5
DILUPBiCGStab:  Solving for Uy:  solution singularity
DILUPBiCGStab:  Solving for Uz:  solution singularity
linear solve U 161
[OGL LOG] init_host_sparsity_pattern : 0 ms
[OGL LOG] matrix not stored update host matrix
[OGL LOG] update_host_mtx : 0 ms
[OGL LOG] matrix is not yet sorted, compute sorting idxs
[OGL LOG] compute_sort : 0 ms
[OGL LOG] matrix is not yet sorted, sorting host matrix
[OGL LOG] sort_host_mtx_sparsity_pattern : 0 ms
[OGL LOG] sort_host_mtx : 0 ms
[OGL LOG] init_preconditioner : 0 ms
[OGL LOG] solve : 4379 ms
noneompGKOBiCGStab:  Solving for p, Initial residual = 1, Final residual = 7.38526e-05, No Iterations 23
linear solve p 4468248
time step continuity errors : sum local = 2.84721e-07, global = -2.13082e-21, cumulative = -2.13082e-21
[OGL LOG] init_host_sparsity_pattern : 0 ms
[OGL LOG] matrix not stored update host matrix
[OGL LOG] update_host_mtx : 0 ms
[OGL LOG] matrix is not yet sorted, sorting host matrix
[OGL LOG] sort_host_mtx_sparsity_pattern : 0 ms
[OGL LOG] sort_host_mtx : 0 ms
[OGL LOG] init_preconditioner : 0 ms
[OGL LOG] solve : 3811 ms
noneompGKOBiCGStab:  Solving for p, Initial residual = 0.0549068, Final residual = 9.63878e-05, No Iterations 20
linear solve p 3826032
time step continuity errors : sum local = 3.00069e-06, global = -9.45633e-21, cumulative = -1.15871e-20
ExecutionTime = 147.2 s  ClockTime = 9 s

Time = 0.002

Courant Number mean: 0.000593942 max: 0.00137898
DILUPBiCGStab:  Solving for Ux, Initial residual = 0.290583, Final residual = 1.32964e-30, No Iterations 5
DILUPBiCGStab:  Solving for Uy, Initial residual = 0.317555, Final residual = 1.13222e-30, No Iterations 5
DILUPBiCGStab:  Solving for Uz, Initial residual = 0.33108, Final residual = 1.39316e-30, No Iterations 5
linear solve U 231
[OGL LOG] init_host_sparsity_pattern : 0 ms
[OGL LOG] matrix not stored update host matrix
[OGL LOG] update_host_mtx : 0 ms
[OGL LOG] matrix is not yet sorted, sorting host matrix
[OGL LOG] sort_host_mtx_sparsity_pattern : 0 ms
[OGL LOG] sort_host_mtx : 0 ms
[OGL LOG] init_preconditioner : 0 ms
[OGL LOG] solve : 3621 ms
noneompGKOBiCGStab:  Solving for p, Initial residual = 0.117218, Final residual = 9.64431e-05, No Iterations 19
linear solve p 3636016
time step continuity errors : sum local = 3.77455e-07, global = 2.16969e-21, cumulative = -9.41745e-21
[OGL LOG] init_host_sparsity_pattern : 0 ms
[OGL LOG] matrix not stored update host matrix
[OGL LOG] update_host_mtx : 0 ms
[OGL LOG] matrix is not yet sorted, sorting host matrix
[OGL LOG] sort_host_mtx_sparsity_pattern : 0 ms
[OGL LOG] sort_host_mtx : 0 ms
[OGL LOG] init_preconditioner : 0 ms
[OGL LOG] solve : 2537 ms
noneompGKOBiCGStab:  Solving for p, Initial residual = 0.00339371, Final residual = 8.56634e-05, No Iterations 13
linear solve p 2553055
time step continuity errors : sum local = 8.38299e-07, global = -3.82654e-21, cumulative = -1.3244e-20
ExecutionTime = 258.36 s  ClockTime = 15 s

Time = 0.003

Courant Number mean: 0.00113056 max: 0.0026331
DILUPBiCGStab:  Solving for Ux, Initial residual = 0.161927, Final residual = 7.37639e-31, No Iterations 5
DILUPBiCGStab:  Solving for Uy, Initial residual = 0.1866, Final residual = 6.80705e-31, No Iterations 5
DILUPBiCGStab:  Solving for Uz, Initial residual = 0.278908, Final residual = 1.48446e-30, No Iterations 5
linear solve U 167
[OGL LOG] init_host_sparsity_pattern : 0 ms
[OGL LOG] matrix not stored update host matrix
[OGL LOG] update_host_mtx : 0 ms
[OGL LOG] matrix is not yet sorted, sorting host matrix
[OGL LOG] sort_host_mtx_sparsity_pattern : 0 ms
[OGL LOG] sort_host_mtx : 0 ms
[OGL LOG] init_preconditioner : 0 ms
[OGL LOG] solve : 2809 ms
noneompGKOBiCGStab:  Solving for p, Initial residual = 0.0573729, Final residual = 9.92684e-05, No Iterations 15
linear solve p 2824422
time step continuity errors : sum local = 9.36356e-08, global = -2.01609e-20, cumulative = -3.34049e-20
[OGL LOG] init_host_sparsity_pattern : 0 ms
[OGL LOG] matrix not stored update host matrix
[OGL LOG] update_host_mtx : 0 ms
[OGL LOG] matrix is not yet sorted, sorting host matrix
[OGL LOG] sort_host_mtx_sparsity_pattern : 0 ms
[OGL LOG] sort_host_mtx : 0 ms
[OGL LOG] init_preconditioner : 0 ms
[OGL LOG] solve : 898 ms
noneompGKOBiCGStab:  Solving for p, Initial residual = 0.00153893, Final residual = 8.63764e-05, No Iterations 4
linear solve p 914196
time step continuity errors : sum local = 1.00008e-07, global = 1.09101e-20, cumulative = -2.24948e-20
ExecutionTime = 325.5 s  ClockTime = 19 s

Time = 0.004

Courant Number mean: 0.00161827 max: 0.00379126
DILUPBiCGStab:  Solving for Ux, Initial residual = 0.108861, Final residual = 5.01554e-31, No Iterations 5
DILUPBiCGStab:  Solving for Uy, Initial residual = 0.129129, Final residual = 4.60694e-31, No Iterations 5
DILUPBiCGStab:  Solving for Uz, Initial residual = 0.185625, Final residual = 8.87068e-31, No Iterations 5
linear solve U 165
[OGL LOG] init_host_sparsity_pattern : 0 ms
[OGL LOG] matrix not stored update host matrix
[OGL LOG] update_host_mtx : 0 ms
[OGL LOG] matrix is not yet sorted, sorting host matrix
[OGL LOG] sort_host_mtx_sparsity_pattern : 0 ms
[OGL LOG] sort_host_mtx : 0 ms
[OGL LOG] init_preconditioner : 0 ms
[OGL LOG] solve : 3076 ms
noneompGKOBiCGStab:  Solving for p, Initial residual = 0.0350434, Final residual = 7.56206e-05, No Iterations 16
linear solve p 3091562
time step continuity errors : sum local = 2.26818e-07, global = -7.80528e-21, cumulative = -3.03e-20
[OGL LOG] init_host_sparsity_pattern : 0 ms
[OGL LOG] matrix not stored update host matrix
[OGL LOG] update_host_mtx : 0 ms
[OGL LOG] matrix is not yet sorted, sorting host matrix
[OGL LOG] sort_host_mtx_sparsity_pattern : 0 ms
[OGL LOG] sort_host_mtx : 0 ms
[OGL LOG] init_preconditioner : 0 ms
[OGL LOG] solve : 1079 ms
noneompGKOBiCGStab:  Solving for p, Initial residual = 0.00114808, Final residual = 9.29856e-05, No Iterations 5
linear solve p 1095714
time step continuity errors : sum local = 1.11337e-07, global = -2.78247e-20, cumulative = -5.81247e-20
ExecutionTime = 400.7 s  ClockTime = 23 s

regIOobject::readIfModified() : 
    Re-reading object controlDict from file "/pfs/data5/home/kit/scc/nq7776/code/OBR/lidDrivenCavity3D/Variation_mesh/5/Variation_matrix_solver/BiCGStab_NoPrecond_OMP/base/system/controlDict"
End

