/*---------------------------------------------------------------------------*\
  =========                 |
  \\      /  F ield         | OpenFOAM: The Open Source CFD Toolbox
   \\    /   O peration     | Website:  https://openfoam.org
    \\  /    A nd           | Version:  8
     \\/     M anipulation  |
\*---------------------------------------------------------------------------*/
Build  : 8-ef60d22ea792
Exec   : icoFoam
Date   : Jul 28 2021
Time   : 23:41:59
Host   : "uc2n420.localdomain"
PID    : 981011
I/O    : uncollated
Case   : /pfs/data5/home/kit/scc/nq7776/code/OBR/lidDrivenCavity3D/Variation_mesh/95/Variation_matrix_solver/BiCGStab_DIC_Serial/base
nProcs : 1
sigFpe : Enabling floating point exception trapping (FOAM_SIGFPE).
fileModificationChecking : Monitoring run-time modified files using timeStampMaster (fileModificationSkew 10)
allowSystemOperations : Allowing user-supplied system call operations

// * * * * * * * * * * * * * * * * * * * * * * * * * * * * * * * * * * * * * //
Create time

Create mesh for time = 0

Reading transportProperties

Reading field p

Reading field U

Reading/calculating face flux field phi


Starting time loop

Time = 0.001

Courant Number mean: 0 max: 0
DILUPBiCGStab:  Solving for Ux, Initial residual = 1, Final residual = 0.00597808, No Iterations 5
DILUPBiCGStab:  Solving for Uy:  solution singularity
DILUPBiCGStab:  Solving for Uz:  solution singularity
linear solve U 429257
DICPBiCGStab:  Solving for p, Initial residual = 1, Final residual = 8.03974e-05, No Iterations 180
linear solve p 7746846
time step continuity errors : sum local = 4.68654e-08, global = 1.05511e-20, cumulative = 1.05511e-20
DICPBiCGStab:  Solving for p, Initial residual = 0.770659, Final residual = 9.46747e-05, No Iterations 170
linear solve p 7380124
time step continuity errors : sum local = 7.62439e-08, global = 2.99215e-22, cumulative = 1.08503e-20
ExecutionTime = 19.33 s  ClockTime = 19 s

Time = 0.002

Courant Number mean: 0.0534419 max: 0.757476
DILUPBiCGStab:  Solving for Ux, Initial residual = 0.140117, Final residual = 0.0025499, No Iterations 5
DILUPBiCGStab:  Solving for Uy, Initial residual = 0.419612, Final residual = 0.00695987, No Iterations 5
DILUPBiCGStab:  Solving for Uz, Initial residual = 0.988574, Final residual = 0.0178327, No Iterations 5
linear solve U 844918
DICPBiCGStab:  Solving for p, Initial residual = 0.783729, Final residual = 9.53389e-05, No Iterations 182
linear solve p 7854150
time step continuity errors : sum local = 1.18508e-07, global = 5.76878e-21, cumulative = 1.66191e-20
DICPBiCGStab:  Solving for p, Initial residual = 0.722957, Final residual = 9.12575e-05, No Iterations 168
linear solve p 7285640
time step continuity errors : sum local = 1.55423e-07, global = -2.45098e-21, cumulative = 1.41681e-20
ExecutionTime = 35.76 s  ClockTime = 36 s

Time = 0.003

Courant Number mean: 0.0810169 max: 0.886832
DILUPBiCGStab:  Solving for Ux, Initial residual = 0.0629103, Final residual = 0.000888473, No Iterations 5
DILUPBiCGStab:  Solving for Uy, Initial residual = 0.20263, Final residual = 0.00227083, No Iterations 5
DILUPBiCGStab:  Solving for Uz, Initial residual = 0.780474, Final residual = 0.0130235, No Iterations 5
linear solve U 846925
DICPBiCGStab:  Solving for p, Initial residual = 0.809625, Final residual = 5.39376e-05, No Iterations 186
linear solve p 8032257
time step continuity errors : sum local = 4.87369e-08, global = 5.35428e-21, cumulative = 1.95224e-20
DICPBiCGStab:  Solving for p, Initial residual = 0.776019, Final residual = 9.82123e-05, No Iterations 158
linear solve p 6833600
time step continuity errors : sum local = 1.45383e-07, global = 6.16334e-21, cumulative = 2.56858e-20
ExecutionTime = 51.91 s  ClockTime = 52 s

Time = 0.004

Courant Number mean: 0.0936366 max: 0.877235
DILUPBiCGStab:  Solving for Ux, Initial residual = 0.0356644, Final residual = 0.000608513, No Iterations 5
DILUPBiCGStab:  Solving for Uy, Initial residual = 0.149627, Final residual = 0.00226383, No Iterations 5
DILUPBiCGStab:  Solving for Uz, Initial residual = 0.588536, Final residual = 0.00840996, No Iterations 5
linear solve U 850752
DICPBiCGStab:  Solving for p, Initial residual = 0.706609, Final residual = 9.84588e-05, No Iterations 190
linear solve p 8220453
time step continuity errors : sum local = 8.42416e-08, global = 4.26704e-21, cumulative = 2.99528e-20
DICPBiCGStab:  Solving for p, Initial residual = 0.640144, Final residual = 7.3151e-05, No Iterations 160
linear solve p 6947655
time step continuity errors : sum local = 1.18564e-07, global = 1.37687e-20, cumulative = 4.37215e-20
ExecutionTime = 68.37 s  ClockTime = 68 s

Time = 0.005

Courant Number mean: 0.105283 max: 0.8897
DILUPBiCGStab:  Solving for Ux, Initial residual = 0.0279969, Final residual = 0.000443706, No Iterations 5
DILUPBiCGStab:  Solving for Uy, Initial residual = 0.0819606, Final residual = 0.00139838, No Iterations 5
DILUPBiCGStab:  Solving for Uz, Initial residual = 0.509894, Final residual = 0.00721223, No Iterations 5
linear solve U 847959
DICPBiCGStab:  Solving for p, Initial residual = 0.701883, Final residual = 9.75068e-05, No Iterations 183
linear solve p 7933256
time step continuity errors : sum local = 6.3734e-08, global = -7.24268e-21, cumulative = 3.64788e-20
DICPBiCGStab:  Solving for p, Initial residual = 0.649559, Final residual = 8.96766e-05, No Iterations 151
linear solve p 6517143
time step continuity errors : sum local = 1.15595e-07, global = 1.06998e-20, cumulative = 4.71787e-20
ExecutionTime = 84.12 s  ClockTime = 84 s

Time = 0.006

Courant Number mean: 0.113424 max: 0.895142
DILUPBiCGStab:  Solving for Ux, Initial residual = 0.0180312, Final residual = 0.000280245, No Iterations 5
DILUPBiCGStab:  Solving for Uy, Initial residual = 0.0691304, Final residual = 0.00107538, No Iterations 5
DILUPBiCGStab:  Solving for Uz, Initial residual = 0.381064, Final residual = 0.00532643, No Iterations 5
linear solve U 845454
DICPBiCGStab:  Solving for p, Initial residual = 0.586857, Final residual = 6.67518e-05, No Iterations 181
linear solve p 7812923
time step continuity errors : sum local = 6.01785e-08, global = -9.28158e-21, cumulative = 3.78971e-20
DICPBiCGStab:  Solving for p, Initial residual = 0.527085, Final residual = 8.23223e-05, No Iterations 155
linear solve p 6687076
time step continuity errors : sum local = 9.70876e-08, global = -2.25342e-20, cumulative = 1.53629e-20
ExecutionTime = 99.91 s  ClockTime = 100 s

Time = 0.007

Courant Number mean: 0.120625 max: 0.898308
DILUPBiCGStab:  Solving for Ux, Initial residual = 0.0158671, Final residual = 0.000228542, No Iterations 5
DILUPBiCGStab:  Solving for Uy, Initial residual = 0.0450973, Final residual = 0.000729875, No Iterations 5
DILUPBiCGStab:  Solving for Uz, Initial residual = 0.31669, Final residual = 0.00483693, No Iterations 5
linear solve U 849766
DICPBiCGStab:  Solving for p, Initial residual = 0.568351, Final residual = 8.99828e-05, No Iterations 162
linear solve p 6990590
time step continuity errors : sum local = 8.86679e-08, global = 2.06394e-20, cumulative = 3.60023e-20
DICPBiCGStab:  Solving for p, Initial residual = 0.509734, Final residual = 8.3676e-05, No Iterations 154
linear solve p 6640971
time step continuity errors : sum local = 8.42776e-08, global = 8.33634e-21, cumulative = 4.43387e-20
ExecutionTime = 114.84 s  ClockTime = 115 s

Time = 0.008

Courant Number mean: 0.126454 max: 0.90207
DILUPBiCGStab:  Solving for Ux, Initial residual = 0.0113635, Final residual = 0.000149222, No Iterations 5
DILUPBiCGStab:  Solving for Uy, Initial residual = 0.0401695, Final residual = 0.000589777, No Iterations 5
DILUPBiCGStab:  Solving for Uz, Initial residual = 0.257946, Final residual = 0.00408935, No Iterations 5
linear solve U 851448
DICPBiCGStab:  Solving for p, Initial residual = 0.47035, Final residual = 2.56674e-05, No Iterations 182
linear solve p 7854903
time step continuity errors : sum local = 1.51359e-08, global = 4.90208e-21, cumulative = 4.92407e-20
DICPBiCGStab:  Solving for p, Initial residual = 0.416389, Final residual = 7.59238e-05, No Iterations 154
linear solve p 6642733
time step continuity errors : sum local = 7.44506e-08, global = 1.81496e-21, cumulative = 5.10557e-20
ExecutionTime = 130.63 s  ClockTime = 131 s

Time = 0.009

Courant Number mean: 0.131588 max: 0.903674
DILUPBiCGStab:  Solving for Ux, Initial residual = 0.0103725, Final residual = 0.000127205, No Iterations 5
DILUPBiCGStab:  Solving for Uy, Initial residual = 0.0291587, Final residual = 0.000384225, No Iterations 5
DILUPBiCGStab:  Solving for Uz, Initial residual = 0.213512, Final residual = 0.00332103, No Iterations 5
linear solve U 843733
DICPBiCGStab:  Solving for p, Initial residual = 0.440676, Final residual = 9.71246e-05, No Iterations 162
linear solve p 6990950
time step continuity errors : sum local = 6.22673e-08, global = 1.3437e-20, cumulative = 6.44927e-20
DICPBiCGStab:  Solving for p, Initial residual = 0.387033, Final residual = 8.3034e-05, No Iterations 155
linear solve p 6695191
time step continuity errors : sum local = 7.18024e-08, global = 1.34615e-21, cumulative = 6.58389e-20
ExecutionTime = 145.61 s  ClockTime = 146 s

Time = 0.01

Courant Number mean: 0.135995 max: 0.906105
DILUPBiCGStab:  Solving for Ux, Initial residual = 0.00791696, Final residual = 8.85674e-05, No Iterations 5
DILUPBiCGStab:  Solving for Uy, Initial residual = 0.0262136, Final residual = 0.00032593, No Iterations 5
DILUPBiCGStab:  Solving for Uz, Initial residual = 0.171178, Final residual = 0.00273542, No Iterations 5
linear solve U 848998
DICPBiCGStab:  Solving for p, Initial residual = 0.367663, Final residual = 9.61687e-05, No Iterations 165
linear solve p 7120761
time step continuity errors : sum local = 5.55145e-08, global = 5.38912e-21, cumulative = 7.1228e-20
DICPBiCGStab:  Solving for p, Initial residual = 0.322558, Final residual = 9.33724e-05, No Iterations 155
linear solve p 6677128
time step continuity errors : sum local = 7.14337e-08, global = 5.75364e-21, cumulative = 7.69816e-20
ExecutionTime = 160.72 s  ClockTime = 161 s

End

