/*---------------------------------------------------------------------------*\
  =========                 |
  \\      /  F ield         | OpenFOAM: The Open Source CFD Toolbox
   \\    /   O peration     | Website:  https://openfoam.org
    \\  /    A nd           | Version:  8
     \\/     M anipulation  |
\*---------------------------------------------------------------------------*/
Build  : 8-14d69e1ee166
Exec   : icoFoam
Date   : Jul 28 2021
Time   : 16:20:23
Host   : "guyot.icl.utk.edu"
PID    : 12988
I/O    : uncollated
Case   : /home/greole/code/OBR/lidDrivenCavity3D/Variation_mesh/55/Variation_matrix_solver/BiCGStab_NoPrecond_Serial/base
nProcs : 1
sigFpe : Enabling floating point exception trapping (FOAM_SIGFPE).
fileModificationChecking : Monitoring run-time modified files using timeStampMaster (fileModificationSkew 10)
allowSystemOperations : Allowing user-supplied system call operations

// * * * * * * * * * * * * * * * * * * * * * * * * * * * * * * * * * * * * * //
Create time

Create mesh for time = 0

Reading transportProperties

Reading field p

Reading field U

Reading/calculating face flux field phi


Starting time loop

Time = 0.001

Courant Number mean: 0 max: 0
DILUPBiCGStab:  Solving for Ux, Initial residual = 1, Final residual = 0.000272743, No Iterations 5
DILUPBiCGStab:  Solving for Uy:  solution singularity
DILUPBiCGStab:  Solving for Uz:  solution singularity
linear solve U 64418
nonePBiCGStab:  Solving for p, Initial residual = 1, Final residual = 8.88533e-05, No Iterations 343
linear solve p 1218594
time step continuity errors : sum local = 1.02671e-07, global = -1.83841e-21, cumulative = -1.83841e-21
nonePBiCGStab:  Solving for p, Initial residual = 0.678856, Final residual = 9.69718e-05, No Iterations 344
linear solve p 1212085
time step continuity errors : sum local = 1.56781e-07, global = 3.41065e-21, cumulative = 1.57224e-21
ExecutionTime = 3.29 s  ClockTime = 4 s

Time = 0.002

Courant Number mean: 0.030509 max: 0.37634
DILUPBiCGStab:  Solving for Ux, Initial residual = 0.162415, Final residual = 6.90664e-05, No Iterations 5
DILUPBiCGStab:  Solving for Uy, Initial residual = 0.327248, Final residual = 0.00010996, No Iterations 5
DILUPBiCGStab:  Solving for Uz, Initial residual = 0.969975, Final residual = 0.000443314, No Iterations 5
linear solve U 120618
nonePBiCGStab:  Solving for p, Initial residual = 0.580523, Final residual = 8.3607e-05, No Iterations 326
linear solve p 1150989
time step continuity errors : sum local = 1.30383e-07, global = -2.25416e-20, cumulative = -2.09693e-20
nonePBiCGStab:  Solving for p, Initial residual = 0.498149, Final residual = 9.73648e-05, No Iterations 320
linear solve p 1123832
time step continuity errors : sum local = 1.63221e-07, global = 5.58038e-21, cumulative = -1.53889e-20
ExecutionTime = 5.75 s  ClockTime = 6 s

Time = 0.003

Courant Number mean: 0.0458543 max: 0.461236
DILUPBiCGStab:  Solving for Ux, Initial residual = 0.0522132, Final residual = 2.19228e-05, No Iterations 5
DILUPBiCGStab:  Solving for Uy, Initial residual = 0.100971, Final residual = 3.10582e-05, No Iterations 5
DILUPBiCGStab:  Solving for Uz, Initial residual = 0.253965, Final residual = 0.000144701, No Iterations 5
linear solve U 120326
nonePBiCGStab:  Solving for p, Initial residual = 0.393234, Final residual = 9.25054e-05, No Iterations 308
linear solve p 1091596
time step continuity errors : sum local = 7.45132e-08, global = -2.80442e-21, cumulative = -1.81934e-20
nonePBiCGStab:  Solving for p, Initial residual = 0.338739, Final residual = 7.13293e-05, No Iterations 333
linear solve p 1196409
time step continuity errors : sum local = 4.92513e-08, global = 3.39975e-21, cumulative = -1.47936e-20
ExecutionTime = 8.23 s  ClockTime = 9 s

Time = 0.004

Courant Number mean: 0.0544892 max: 0.479445
DILUPBiCGStab:  Solving for Ux, Initial residual = 0.0313028, Final residual = 6.37424e-06, No Iterations 5
DILUPBiCGStab:  Solving for Uy, Initial residual = 0.0647194, Final residual = 1.14713e-05, No Iterations 5
DILUPBiCGStab:  Solving for Uz, Initial residual = 0.155127, Final residual = 5.30207e-05, No Iterations 5
linear solve U 120692
nonePBiCGStab:  Solving for p, Initial residual = 0.195638, Final residual = 9.65879e-05, No Iterations 304
linear solve p 1083772
time step continuity errors : sum local = 8.31939e-08, global = 8.63281e-21, cumulative = -6.16081e-21
nonePBiCGStab:  Solving for p, Initial residual = 0.157344, Final residual = 9.951e-05, No Iterations 135
linear solve p 480558
time step continuity errors : sum local = 1.00688e-07, global = 3.04456e-21, cumulative = -3.11625e-21
ExecutionTime = 9.98 s  ClockTime = 10 s

Time = 0.005

Courant Number mean: 0.0609397 max: 0.489046
DILUPBiCGStab:  Solving for Ux, Initial residual = 0.0219291, Final residual = 5.46326e-06, No Iterations 5
DILUPBiCGStab:  Solving for Uy, Initial residual = 0.0445085, Final residual = 7.43505e-06, No Iterations 5
DILUPBiCGStab:  Solving for Uz, Initial residual = 0.0927065, Final residual = 3.39163e-05, No Iterations 5
linear solve U 119559
nonePBiCGStab:  Solving for p, Initial residual = 0.110056, Final residual = 9.72617e-05, No Iterations 282
linear solve p 1012503
time step continuity errors : sum local = 7.91494e-08, global = 1.96133e-20, cumulative = 1.6497e-20
nonePBiCGStab:  Solving for p, Initial residual = 0.0902899, Final residual = 9.97028e-05, No Iterations 249
linear solve p 888119
time step continuity errors : sum local = 9.96089e-08, global = 2.68181e-21, cumulative = 1.91789e-20
ExecutionTime = 12.06 s  ClockTime = 13 s

Time = 0.006

Courant Number mean: 0.065943 max: 0.494875
DILUPBiCGStab:  Solving for Ux, Initial residual = 0.0168773, Final residual = 3.62762e-06, No Iterations 5
DILUPBiCGStab:  Solving for Uy, Initial residual = 0.0337557, Final residual = 2.07905e-06, No Iterations 5
DILUPBiCGStab:  Solving for Uz, Initial residual = 0.0762748, Final residual = 2.60083e-05, No Iterations 5
linear solve U 119657
nonePBiCGStab:  Solving for p, Initial residual = 0.0673496, Final residual = 8.77883e-05, No Iterations 280
linear solve p 995870
time step continuity errors : sum local = 8.6908e-08, global = -7.22791e-21, cumulative = 1.19509e-20
nonePBiCGStab:  Solving for p, Initial residual = 0.0555953, Final residual = 6.44296e-05, No Iterations 292
linear solve p 1027706
time step continuity errors : sum local = 5.16088e-08, global = 1.04448e-20, cumulative = 2.23958e-20
ExecutionTime = 14.27 s  ClockTime = 15 s

Time = 0.007

Courant Number mean: 0.0700498 max: 0.498911
DILUPBiCGStab:  Solving for Ux, Initial residual = 0.0133658, Final residual = 1.46597e-06, No Iterations 5
DILUPBiCGStab:  Solving for Uy, Initial residual = 0.0270802, Final residual = 2.6479e-06, No Iterations 5
DILUPBiCGStab:  Solving for Uz, Initial residual = 0.0531793, Final residual = 1.09427e-05, No Iterations 5
linear solve U 120410
nonePBiCGStab:  Solving for p, Initial residual = 0.0413652, Final residual = 9.47772e-05, No Iterations 119
linear solve p 426576
time step continuity errors : sum local = 7.33086e-08, global = 5.97812e-22, cumulative = 2.29936e-20
nonePBiCGStab:  Solving for p, Initial residual = 0.034983, Final residual = 9.60926e-05, No Iterations 116
linear solve p 410743
time step continuity errors : sum local = 7.00652e-08, global = 1.35982e-21, cumulative = 2.43534e-20
ExecutionTime = 15.29 s  ClockTime = 16 s

Time = 0.008

Courant Number mean: 0.0734868 max: 0.501903
DILUPBiCGStab:  Solving for Ux, Initial residual = 0.0109322, Final residual = 1.33562e-06, No Iterations 5
DILUPBiCGStab:  Solving for Uy, Initial residual = 0.022406, Final residual = 1.52606e-06, No Iterations 5
DILUPBiCGStab:  Solving for Uz, Initial residual = 0.0419203, Final residual = 5.12623e-06, No Iterations 5
linear solve U 120400
nonePBiCGStab:  Solving for p, Initial residual = 0.0288469, Final residual = 9.97266e-05, No Iterations 105
linear solve p 375793
time step continuity errors : sum local = 6.03643e-08, global = 1.1455e-21, cumulative = 2.54989e-20
nonePBiCGStab:  Solving for p, Initial residual = 0.02483, Final residual = 8.54401e-05, No Iterations 110
linear solve p 391686
time step continuity errors : sum local = 5.99702e-08, global = -1.87008e-20, cumulative = 6.79813e-21
ExecutionTime = 16.24 s  ClockTime = 17 s

Time = 0.009

Courant Number mean: 0.076417 max: 0.504221
DILUPBiCGStab:  Solving for Ux, Initial residual = 0.00915564, Final residual = 6.15784e-07, No Iterations 5
DILUPBiCGStab:  Solving for Uy, Initial residual = 0.0190352, Final residual = 1.33834e-06, No Iterations 5
DILUPBiCGStab:  Solving for Uz, Initial residual = 0.0354515, Final residual = 3.70872e-06, No Iterations 5
linear solve U 122010
nonePBiCGStab:  Solving for p, Initial residual = 0.0219505, Final residual = 9.35591e-05, No Iterations 112
linear solve p 397428
time step continuity errors : sum local = 7.14963e-08, global = 3.42832e-21, cumulative = 1.02265e-20
nonePBiCGStab:  Solving for p, Initial residual = 0.0193455, Final residual = 8.11768e-05, No Iterations 107
linear solve p 381010
time step continuity errors : sum local = 6.14031e-08, global = 3.58429e-20, cumulative = 4.60693e-20
ExecutionTime = 17.21 s  ClockTime = 18 s

Time = 0.01

Courant Number mean: 0.0789758 max: 0.506076
DILUPBiCGStab:  Solving for Ux, Initial residual = 0.00784506, Final residual = 5.2959e-07, No Iterations 5
DILUPBiCGStab:  Solving for Uy, Initial residual = 0.0163338, Final residual = 9.3515e-07, No Iterations 5
DILUPBiCGStab:  Solving for Uz, Initial residual = 0.0312871, Final residual = 2.7921e-06, No Iterations 5
linear solve U 120140
nonePBiCGStab:  Solving for p, Initial residual = 0.017009, Final residual = 9.48386e-05, No Iterations 108
linear solve p 378168
time step continuity errors : sum local = 5.93293e-08, global = -4.27893e-20, cumulative = 3.28007e-21
nonePBiCGStab:  Solving for p, Initial residual = 0.0152885, Final residual = 9.88821e-05, No Iterations 109
linear solve p 381232
time step continuity errors : sum local = 6.60135e-08, global = -1.82622e-20, cumulative = -1.49821e-20
ExecutionTime = 18.15 s  ClockTime = 19 s

End

