/*---------------------------------------------------------------------------*\
  =========                 |
  \\      /  F ield         | OpenFOAM: The Open Source CFD Toolbox
   \\    /   O peration     | Website:  https://openfoam.org
    \\  /    A nd           | Version:  8
     \\/     M anipulation  |
\*---------------------------------------------------------------------------*/
Build  : 8-ef60d22ea792
Exec   : icoFoam
Date   : Jul 29 2021
Time   : 04:20:17
Host   : "uc2n489.localdomain"
PID    : 3428868
I/O    : uncollated
Case   : /pfs/data5/home/kit/scc/nq7776/code/OBR/lidDrivenCavity3D/Variation_mesh/60/Variation_matrix_solver/BiCGStab_NoPrecond_CUDA/base
nProcs : 1
sigFpe : Enabling floating point exception trapping (FOAM_SIGFPE).
fileModificationChecking : Monitoring run-time modified files using timeStampMaster (fileModificationSkew 10)
allowSystemOperations : Allowing user-supplied system call operations

// * * * * * * * * * * * * * * * * * * * * * * * * * * * * * * * * * * * * * //
Create time

Create mesh for time = 0

Reading transportProperties

Reading field p

Reading field U

Reading/calculating face flux field phi


Starting time loop

Time = 0.001

Courant Number mean: 0 max: 0
DILUPBiCGStab:  Solving for Ux, Initial residual = 1, Final residual = 0.000527977, No Iterations 5
DILUPBiCGStab:  Solving for Uy:  solution singularity
DILUPBiCGStab:  Solving for Uz:  solution singularity
linear solve U 103307
[OGL LOG] init_host_sparsity_pattern : 60 ms
[OGL LOG] matrix not stored update host matrix
[OGL LOG] update_host_mtx : 31 ms
[OGL LOG] matrix is not yet sorted, compute sorting idxs
[OGL LOG] compute_sort : 1769 ms
[OGL LOG] matrix is not yet sorted, sorting host matrix
[OGL LOG] sort_host_mtx_sparsity_pattern : 42 ms
[OGL LOG] sort_host_mtx : 22 ms
[OGL LOG] init_preconditioner : 0 ms
[OGL LOG] solve : 237 ms
nonecudaGKOBiCGStab:  Solving for p, Initial residual = 1, Final residual = 7.22576e-05, No Iterations 355
linear solve p 2908519
time step continuity errors : sum local = 0.0023417, global = -5.14189e-19, cumulative = -5.14189e-19
[OGL LOG] init_host_sparsity_pattern : 57 ms
[OGL LOG] matrix not stored update host matrix
[OGL LOG] update_host_mtx : 31 ms
[OGL LOG] matrix is not yet sorted, sorting host matrix
[OGL LOG] sort_host_mtx_sparsity_pattern : 44 ms
[OGL LOG] sort_host_mtx : 21 ms
[OGL LOG] init_preconditioner : 0 ms
[OGL LOG] solve : 119 ms
nonecudaGKOBiCGStab:  Solving for p, Initial residual = 0.938162, Final residual = 9.89606e-05, No Iterations 171
linear solve p 289148
time step continuity errors : sum local = 7.63439e-07, global = 6.92743e-21, cumulative = -5.07261e-19
ExecutionTime = 4.19 s  ClockTime = 5 s

Time = 0.002

Courant Number mean: 0.0335359 max: 0.426943
DILUPBiCGStab:  Solving for Ux, Initial residual = 0.159098, Final residual = 0.000145728, No Iterations 5
DILUPBiCGStab:  Solving for Uy, Initial residual = 0.344412, Final residual = 0.000269465, No Iterations 5
DILUPBiCGStab:  Solving for Uz, Initial residual = 0.879243, Final residual = 0.00134433, No Iterations 5
linear solve U 199771
[OGL LOG] init_host_sparsity_pattern : 57 ms
[OGL LOG] matrix not stored update host matrix
[OGL LOG] update_host_mtx : 29 ms
[OGL LOG] matrix is not yet sorted, sorting host matrix
[OGL LOG] sort_host_mtx_sparsity_pattern : 42 ms
[OGL LOG] sort_host_mtx : 21 ms
[OGL LOG] init_preconditioner : 0 ms
[OGL LOG] solve : 226 ms
nonecudaGKOBiCGStab:  Solving for p, Initial residual = 0.963647, Final residual = 6.81057e-05, No Iterations 336
linear solve p 391495
time step continuity errors : sum local = 0.00716983, global = 1.37846e-18, cumulative = 8.71198e-19
[OGL LOG] init_host_sparsity_pattern : 56 ms
[OGL LOG] matrix not stored update host matrix
[OGL LOG] update_host_mtx : 27 ms
[OGL LOG] matrix is not yet sorted, sorting host matrix
[OGL LOG] sort_host_mtx_sparsity_pattern : 40 ms
[OGL LOG] sort_host_mtx : 22 ms
[OGL LOG] init_preconditioner : 0 ms
[OGL LOG] solve : 106 ms
nonecudaGKOBiCGStab:  Solving for p, Initial residual = 0.742631, Final residual = 8.65604e-05, No Iterations 156
linear solve p 266307
time step continuity errors : sum local = 1.95403e-06, global = -2.231e-20, cumulative = 8.48888e-19
ExecutionTime = 5.16 s  ClockTime = 6 s

Time = 0.003

Courant Number mean: 0.0537845 max: 0.574975
DILUPBiCGStab:  Solving for Ux, Initial residual = 0.0547556, Final residual = 3.28488e-05, No Iterations 5
DILUPBiCGStab:  Solving for Uy, Initial residual = 0.150622, Final residual = 0.000212709, No Iterations 5
DILUPBiCGStab:  Solving for Uz, Initial residual = 0.828937, Final residual = 0.00123376, No Iterations 5
linear solve U 196286
[OGL LOG] init_host_sparsity_pattern : 56 ms
[OGL LOG] matrix not stored update host matrix
[OGL LOG] update_host_mtx : 27 ms
[OGL LOG] matrix is not yet sorted, sorting host matrix
[OGL LOG] sort_host_mtx_sparsity_pattern : 40 ms
[OGL LOG] sort_host_mtx : 21 ms
[OGL LOG] init_preconditioner : 0 ms
[OGL LOG] solve : 220 ms
nonecudaGKOBiCGStab:  Solving for p, Initial residual = 0.982303, Final residual = 8.14727e-05, No Iterations 329
linear solve p 380150
time step continuity errors : sum local = 0.025802, global = 3.3075e-17, cumulative = 3.39239e-17
[OGL LOG] init_host_sparsity_pattern : 58 ms
[OGL LOG] matrix not stored update host matrix
[OGL LOG] update_host_mtx : 27 ms
[OGL LOG] matrix is not yet sorted, sorting host matrix
[OGL LOG] sort_host_mtx_sparsity_pattern : 40 ms
[OGL LOG] sort_host_mtx : 21 ms
[OGL LOG] init_preconditioner : 0 ms
[OGL LOG] solve : 86 ms
nonecudaGKOBiCGStab:  Solving for p, Initial residual = 0.744861, Final residual = 9.96384e-05, No Iterations 126
linear solve p 247571
time step continuity errors : sum local = 6.49765e-06, global = -6.03511e-21, cumulative = 3.39179e-17
ExecutionTime = 6.1 s  ClockTime = 7 s

Time = 0.004

Courant Number mean: 0.0706879 max: 0.733765
DILUPBiCGStab:  Solving for Ux, Initial residual = 0.0548822, Final residual = 4.90075e-05, No Iterations 5
DILUPBiCGStab:  Solving for Uy, Initial residual = 0.212536, Final residual = 0.000442665, No Iterations 5
DILUPBiCGStab:  Solving for Uz, Initial residual = 0.838602, Final residual = 0.00124622, No Iterations 5
linear solve U 197527
[OGL LOG] init_host_sparsity_pattern : 59 ms
[OGL LOG] matrix not stored update host matrix
[OGL LOG] update_host_mtx : 27 ms
[OGL LOG] matrix is not yet sorted, sorting host matrix
[OGL LOG] sort_host_mtx_sparsity_pattern : 41 ms
[OGL LOG] sort_host_mtx : 22 ms
[OGL LOG] init_preconditioner : 0 ms
[OGL LOG] solve : 220 ms
nonecudaGKOBiCGStab:  Solving for p, Initial residual = 0.988743, Final residual = 9.15904e-05, No Iterations 328
linear solve p 386085
time step continuity errors : sum local = 0.0137054, global = -8.66564e-18, cumulative = 2.52522e-17
[OGL LOG] init_host_sparsity_pattern : 56 ms
[OGL LOG] matrix not stored update host matrix
[OGL LOG] update_host_mtx : 27 ms
[OGL LOG] matrix is not yet sorted, sorting host matrix
[OGL LOG] sort_host_mtx_sparsity_pattern : 39 ms
[OGL LOG] sort_host_mtx : 21 ms
[OGL LOG] init_preconditioner : 0 ms
[OGL LOG] solve : 98 ms
nonecudaGKOBiCGStab:  Solving for p, Initial residual = 0.826492, Final residual = 6.20082e-05, No Iterations 144
linear solve p 257615
time step continuity errors : sum local = 9.2327e-06, global = 8.49956e-20, cumulative = 2.53372e-17
ExecutionTime = 7.07 s  ClockTime = 8 s

Time = 0.005

Courant Number mean: 0.11087 max: 1.15797
DILUPBiCGStab:  Solving for Ux, Initial residual = 0.138632, Final residual = 9.97256e-05, No Iterations 5
DILUPBiCGStab:  Solving for Uy, Initial residual = 0.412, Final residual = 0.000450589, No Iterations 5
DILUPBiCGStab:  Solving for Uz, Initial residual = 0.81466, Final residual = 0.000937266, No Iterations 5
linear solve U 196856
[OGL LOG] init_host_sparsity_pattern : 56 ms
[OGL LOG] matrix not stored update host matrix
[OGL LOG] update_host_mtx : 27 ms
[OGL LOG] matrix is not yet sorted, sorting host matrix
[OGL LOG] sort_host_mtx_sparsity_pattern : 40 ms
[OGL LOG] sort_host_mtx : 21 ms
[OGL LOG] init_preconditioner : 0 ms
[OGL LOG] solve : 223 ms
nonecudaGKOBiCGStab:  Solving for p, Initial residual = 0.975802, Final residual = 9.07135e-05, No Iterations 328
linear solve p 383003
time step continuity errors : sum local = 0.0110203, global = -1.61601e-17, cumulative = 9.1771e-18
[OGL LOG] init_host_sparsity_pattern : 57 ms
[OGL LOG] matrix not stored update host matrix
[OGL LOG] update_host_mtx : 27 ms
[OGL LOG] matrix is not yet sorted, sorting host matrix
[OGL LOG] sort_host_mtx_sparsity_pattern : 40 ms
[OGL LOG] sort_host_mtx : 22 ms
[OGL LOG] init_preconditioner : 0 ms
[OGL LOG] solve : 221 ms
nonecudaGKOBiCGStab:  Solving for p, Initial residual = 0.808334, Final residual = 9.57313e-05, No Iterations 331
linear solve p 381989
time step continuity errors : sum local = 0.00642492, global = -4.00532e-18, cumulative = 5.17178e-18
ExecutionTime = 8.16 s  ClockTime = 9 s

Time = 0.006

Courant Number mean: 0.0924541 max: 1.05771
DILUPBiCGStab:  Solving for Ux, Initial residual = 0.118273, Final residual = 0.000112717, No Iterations 5
DILUPBiCGStab:  Solving for Uy, Initial residual = 0.365881, Final residual = 0.0004873, No Iterations 5
DILUPBiCGStab:  Solving for Uz, Initial residual = 0.865989, Final residual = 0.00101092, No Iterations 5
linear solve U 197467
[OGL LOG] init_host_sparsity_pattern : 56 ms
[OGL LOG] matrix not stored update host matrix
[OGL LOG] update_host_mtx : 27 ms
[OGL LOG] matrix is not yet sorted, sorting host matrix
[OGL LOG] sort_host_mtx_sparsity_pattern : 40 ms
[OGL LOG] sort_host_mtx : 22 ms
[OGL LOG] init_preconditioner : 0 ms
[OGL LOG] solve : 223 ms
nonecudaGKOBiCGStab:  Solving for p, Initial residual = 0.976213, Final residual = 9.98065e-05, No Iterations 332
linear solve p 383342
time step continuity errors : sum local = 0.00107428, global = 6.42554e-19, cumulative = 5.81433e-18
[OGL LOG] init_host_sparsity_pattern : 59 ms
[OGL LOG] matrix not stored update host matrix
[OGL LOG] update_host_mtx : 31 ms
[OGL LOG] matrix is not yet sorted, sorting host matrix
[OGL LOG] sort_host_mtx_sparsity_pattern : 44 ms
[OGL LOG] sort_host_mtx : 22 ms
[OGL LOG] init_preconditioner : 0 ms
[OGL LOG] solve : 222 ms
nonecudaGKOBiCGStab:  Solving for p, Initial residual = 0.827726, Final residual = 9.06339e-05, No Iterations 331
linear solve p 394456
time step continuity errors : sum local = 1.77206e-05, global = 1.19029e-19, cumulative = 5.93336e-18
ExecutionTime = 9.25 s  ClockTime = 10 s

Time = 0.007

Courant Number mean: 0.113325 max: 1.09487
DILUPBiCGStab:  Solving for Ux, Initial residual = 0.152782, Final residual = 0.000128626, No Iterations 5
DILUPBiCGStab:  Solving for Uy, Initial residual = 0.403151, Final residual = 0.000374987, No Iterations 5
DILUPBiCGStab:  Solving for Uz, Initial residual = 0.853742, Final residual = 0.000636543, No Iterations 5
linear solve U 196410
[OGL LOG] init_host_sparsity_pattern : 56 ms
[OGL LOG] matrix not stored update host matrix
[OGL LOG] update_host_mtx : 27 ms
[OGL LOG] matrix is not yet sorted, sorting host matrix
[OGL LOG] sort_host_mtx_sparsity_pattern : 40 ms
[OGL LOG] sort_host_mtx : 22 ms
[OGL LOG] init_preconditioner : 0 ms
[OGL LOG] solve : 214 ms
nonecudaGKOBiCGStab:  Solving for p, Initial residual = 0.973282, Final residual = 9.95056e-05, No Iterations 319
linear solve p 374316
time step continuity errors : sum local = 0.000753587, global = 7.93829e-20, cumulative = 6.01274e-18
[OGL LOG] init_host_sparsity_pattern : 56 ms
[OGL LOG] matrix not stored update host matrix
[OGL LOG] update_host_mtx : 27 ms
[OGL LOG] matrix is not yet sorted, sorting host matrix
[OGL LOG] sort_host_mtx_sparsity_pattern : 40 ms
[OGL LOG] sort_host_mtx : 22 ms
[OGL LOG] init_preconditioner : 0 ms
[OGL LOG] solve : 209 ms
nonecudaGKOBiCGStab:  Solving for p, Initial residual = 0.819824, Final residual = 6.71878e-05, No Iterations 313
linear solve p 369773
time step continuity errors : sum local = 0.101375, global = 2.70711e-18, cumulative = 8.71985e-18
ExecutionTime = 10.31 s  ClockTime = 11 s

Time = 0.008

Courant Number mean: 0.141613 max: 4.62185
DILUPBiCGStab:  Solving for Ux, Initial residual = 0.0940432, Final residual = 0.00011756, No Iterations 5
DILUPBiCGStab:  Solving for Uy, Initial residual = 0.322641, Final residual = 0.000926479, No Iterations 5
DILUPBiCGStab:  Solving for Uz, Initial residual = 0.670927, Final residual = 0.00112153, No Iterations 5
linear solve U 204420
[OGL LOG] init_host_sparsity_pattern : 56 ms
[OGL LOG] matrix not stored update host matrix
[OGL LOG] update_host_mtx : 27 ms
[OGL LOG] matrix is not yet sorted, sorting host matrix
[OGL LOG] sort_host_mtx_sparsity_pattern : 41 ms
[OGL LOG] sort_host_mtx : 21 ms
[OGL LOG] init_preconditioner : 0 ms
[OGL LOG] solve : 209 ms
nonecudaGKOBiCGStab:  Solving for p, Initial residual = 0.926068, Final residual = 9.92166e-05, No Iterations 312
linear solve p 371040
time step continuity errors : sum local = 0.0147027, global = 1.40133e-17, cumulative = 2.27332e-17
[OGL LOG] init_host_sparsity_pattern : 56 ms
[OGL LOG] matrix not stored update host matrix
[OGL LOG] update_host_mtx : 27 ms
[OGL LOG] matrix is not yet sorted, sorting host matrix
[OGL LOG] sort_host_mtx_sparsity_pattern : 40 ms
[OGL LOG] sort_host_mtx : 22 ms
[OGL LOG] init_preconditioner : 0 ms
[OGL LOG] solve : 90 ms
nonecudaGKOBiCGStab:  Solving for p, Initial residual = 0.801544, Final residual = 9.85868e-05, No Iterations 132
linear solve p 250687
time step continuity errors : sum local = 5.83739e-05, global = 1.06673e-19, cumulative = 2.28398e-17
ExecutionTime = 11.26 s  ClockTime = 12 s

Time = 0.009

Courant Number mean: 0.329803 max: 3.62481
DILUPBiCGStab:  Solving for Ux, Initial residual = 0.418632, Final residual = 0.000344146, No Iterations 5
DILUPBiCGStab:  Solving for Uy, Initial residual = 0.660293, Final residual = 0.000648242, No Iterations 5
DILUPBiCGStab:  Solving for Uz, Initial residual = 0.683223, Final residual = 0.00075189, No Iterations 5
linear solve U 196592
[OGL LOG] init_host_sparsity_pattern : 56 ms
[OGL LOG] matrix not stored update host matrix
[OGL LOG] update_host_mtx : 27 ms
[OGL LOG] matrix is not yet sorted, sorting host matrix
[OGL LOG] sort_host_mtx_sparsity_pattern : 40 ms
[OGL LOG] sort_host_mtx : 22 ms
[OGL LOG] init_preconditioner : 0 ms
[OGL LOG] solve : 217 ms
nonecudaGKOBiCGStab:  Solving for p, Initial residual = 0.965418, Final residual = 7.56363e-05, No Iterations 324
linear solve p 377798
time step continuity errors : sum local = 0.121799, global = 2.32818e-16, cumulative = 2.55657e-16
[OGL LOG] init_host_sparsity_pattern : 56 ms
[OGL LOG] matrix not stored update host matrix
[OGL LOG] update_host_mtx : 27 ms
[OGL LOG] matrix is not yet sorted, sorting host matrix
[OGL LOG] sort_host_mtx_sparsity_pattern : 40 ms
[OGL LOG] sort_host_mtx : 22 ms
[OGL LOG] init_preconditioner : 0 ms
[OGL LOG] solve : 101 ms
nonecudaGKOBiCGStab:  Solving for p, Initial residual = 0.753671, Final residual = 9.72255e-05, No Iterations 149
linear solve p 261932
time step continuity errors : sum local = 9.29821e-05, global = -5.43008e-19, cumulative = 2.55114e-16
ExecutionTime = 12.21 s  ClockTime = 13 s

Time = 0.01

Courant Number mean: 0.16035 max: 3.28475
DILUPBiCGStab:  Solving for Ux, Initial residual = 0.230188, Final residual = 0.00024117, No Iterations 5
DILUPBiCGStab:  Solving for Uy, Initial residual = 0.486321, Final residual = 0.000781649, No Iterations 5
DILUPBiCGStab:  Solving for Uz, Initial residual = 0.845009, Final residual = 0.00111047, No Iterations 5
linear solve U 196199
[OGL LOG] init_host_sparsity_pattern : 56 ms
[OGL LOG] matrix not stored update host matrix
[OGL LOG] update_host_mtx : 27 ms
[OGL LOG] matrix is not yet sorted, sorting host matrix
[OGL LOG] sort_host_mtx_sparsity_pattern : 40 ms
[OGL LOG] sort_host_mtx : 22 ms
[OGL LOG] init_preconditioner : 0 ms
[OGL LOG] solve : 221 ms
nonecudaGKOBiCGStab:  Solving for p, Initial residual = 0.974253, Final residual = 8.88575e-05, No Iterations 330
linear solve p 380962
time step continuity errors : sum local = 0.0870851, global = -6.29976e-17, cumulative = 1.92117e-16
[OGL LOG] init_host_sparsity_pattern : 56 ms
[OGL LOG] matrix not stored update host matrix
[OGL LOG] update_host_mtx : 27 ms
[OGL LOG] matrix is not yet sorted, sorting host matrix
[OGL LOG] sort_host_mtx_sparsity_pattern : 40 ms
[OGL LOG] sort_host_mtx : 22 ms
[OGL LOG] init_preconditioner : 0 ms
[OGL LOG] solve : 222 ms
nonecudaGKOBiCGStab:  Solving for p, Initial residual = 0.791612, Final residual = 8.34992e-05, No Iterations 333
linear solve p 382878
time step continuity errors : sum local = 0.135458, global = -1.98169e-16, cumulative = -6.05215e-18
ExecutionTime = 13.29 s  ClockTime = 14 s

End

