/*---------------------------------------------------------------------------*\
  =========                 |
  \\      /  F ield         | OpenFOAM: The Open Source CFD Toolbox
   \\    /   O peration     | Website:  https://openfoam.org
    \\  /    A nd           | Version:  8
     \\/     M anipulation  |
\*---------------------------------------------------------------------------*/
Build  : 8-ef60d22ea792
Exec   : icoFoam
Date   : Jul 29 2021
Time   : 04:27:17
Host   : "nla-gpu2.ianm.kit.edu"
PID    : 1876238
I/O    : uncollated
Case   : /home/greole/code/OBR/lidDrivenCavity3D/Variation_mesh/95/Variation_matrix_solver/BiCGStab_BJ_HIP/base
nProcs : 1
sigFpe : Enabling floating point exception trapping (FOAM_SIGFPE).
fileModificationChecking : Monitoring run-time modified files using timeStampMaster (fileModificationSkew 10)
allowSystemOperations : Allowing user-supplied system call operations

// * * * * * * * * * * * * * * * * * * * * * * * * * * * * * * * * * * * * * //
Create time

Create mesh for time = 0

Reading transportProperties

Reading field p

Reading field U

Reading/calculating face flux field phi


Starting time loop

Time = 0.001

Courant Number mean: 0 max: 0
DILUPBiCGStab:  Solving for Ux, Initial residual = 1, Final residual = 0.00597808, No Iterations 5
DILUPBiCGStab:  Solving for Uy:  solution singularity
DILUPBiCGStab:  Solving for Uz:  solution singularity
linear solve U 356574
[OGL LOG] init_host_sparsity_pattern : 392 ms
[OGL LOG] matrix not stored update host matrix
[OGL LOG] update_host_mtx : 190 ms
[OGL LOG] matrix is not yet sorted, compute sorting idxs
[OGL LOG] compute_sort : 8299 ms
[OGL LOG] matrix is not yet sorted, sorting host matrix
[OGL LOG] sort_host_mtx_sparsity_pattern : 170 ms
[OGL LOG] sort_host_mtx : 103 ms
[OGL LOG] init_preconditioner : 625 ms
[OGL LOG] solve : 637 ms
BJhipGKOBiCGStab:  Solving for p, Initial residual = 1, Final residual = 9.75822e-05, No Iterations 455
linear solve p 10906127
time step continuity errors : sum local = 0.119624, global = 1.17526e-17, cumulative = 1.17526e-17
[OGL LOG] init_host_sparsity_pattern : 364 ms
[OGL LOG] matrix not stored update host matrix
[OGL LOG] update_host_mtx : 177 ms
[OGL LOG] matrix is not yet sorted, sorting host matrix
[OGL LOG] sort_host_mtx_sparsity_pattern : 158 ms
[OGL LOG] sort_host_mtx : 93 ms
[OGL LOG] init_preconditioner : 0 ms
[OGL LOG] solve : 218 ms
BJhipGKOBiCGStab:  Solving for p, Initial residual = 0.990903, Final residual = 9.22229e-05, No Iterations 166
linear solve p 1046130
time step continuity errors : sum local = 0.000663937, global = 8.04458e-20, cumulative = 1.18331e-17
ExecutionTime = 17 s  ClockTime = 16 s

Time = 0.002

Courant Number mean: 0.0562881 max: 0.784024
DILUPBiCGStab:  Solving for Ux, Initial residual = 0.185103, Final residual = 0.00308006, No Iterations 5
DILUPBiCGStab:  Solving for Uy, Initial residual = 0.739439, Final residual = 0.00433394, No Iterations 5
DILUPBiCGStab:  Solving for Uz, Initial residual = 0.88105, Final residual = 0.00552743, No Iterations 5
linear solve U 697793
[OGL LOG] init_host_sparsity_pattern : 363 ms
[OGL LOG] matrix not stored update host matrix
[OGL LOG] update_host_mtx : 177 ms
[OGL LOG] matrix is not yet sorted, sorting host matrix
[OGL LOG] sort_host_mtx_sparsity_pattern : 154 ms
[OGL LOG] sort_host_mtx : 99 ms
[OGL LOG] init_preconditioner : 0 ms
[OGL LOG] solve : 250 ms
BJhipGKOBiCGStab:  Solving for p, Initial residual = 0.961168, Final residual = 9.8676e-05, No Iterations 191
linear solve p 1081223
time step continuity errors : sum local = 5.30786e-05, global = -1.00849e-19, cumulative = 1.17322e-17
[OGL LOG] init_host_sparsity_pattern : 362 ms
[OGL LOG] matrix not stored update host matrix
[OGL LOG] update_host_mtx : 177 ms
[OGL LOG] matrix is not yet sorted, sorting host matrix
[OGL LOG] sort_host_mtx_sparsity_pattern : 155 ms
[OGL LOG] sort_host_mtx : 98 ms
[OGL LOG] init_preconditioner : 0 ms
[OGL LOG] solve : 238 ms
BJhipGKOBiCGStab:  Solving for p, Initial residual = 0.783066, Final residual = 9.85678e-05, No Iterations 181
linear solve p 1065977
time step continuity errors : sum local = 4.3497e-05, global = 2.70551e-20, cumulative = 1.17593e-17
ExecutionTime = 20.54 s  ClockTime = 20 s

Time = 0.003

Courant Number mean: 0.10829 max: 1.14789
DILUPBiCGStab:  Solving for Ux, Initial residual = 0.138088, Final residual = 0.00194801, No Iterations 5
DILUPBiCGStab:  Solving for Uy, Initial residual = 0.714533, Final residual = 0.00594545, No Iterations 5
DILUPBiCGStab:  Solving for Uz, Initial residual = 0.917333, Final residual = 0.00588597, No Iterations 5
linear solve U 697208
[OGL LOG] init_host_sparsity_pattern : 363 ms
[OGL LOG] matrix not stored update host matrix
[OGL LOG] update_host_mtx : 177 ms
[OGL LOG] matrix is not yet sorted, sorting host matrix
[OGL LOG] sort_host_mtx_sparsity_pattern : 175 ms
[OGL LOG] sort_host_mtx : 95 ms
[OGL LOG] init_preconditioner : 0 ms
[OGL LOG] solve : 542 ms
BJhipGKOBiCGStab:  Solving for p, Initial residual = 0.980048, Final residual = 9.63385e-05, No Iterations 414
linear solve p 1386839
time step continuity errors : sum local = 6.37401e-06, global = 1.09069e-20, cumulative = 1.17702e-17
[OGL LOG] init_host_sparsity_pattern : 362 ms
[OGL LOG] matrix not stored update host matrix
[OGL LOG] update_host_mtx : 183 ms
[OGL LOG] matrix is not yet sorted, sorting host matrix
[OGL LOG] sort_host_mtx_sparsity_pattern : 160 ms
[OGL LOG] sort_host_mtx : 102 ms
[OGL LOG] init_preconditioner : 0 ms
[OGL LOG] solve : 579 ms
BJhipGKOBiCGStab:  Solving for p, Initial residual = 0.783211, Final residual = 9.85057e-05, No Iterations 444
linear solve p 1421236
time step continuity errors : sum local = 0.0427474, global = 4.32389e-18, cumulative = 1.60941e-17
ExecutionTime = 25.1 s  ClockTime = 24 s

Time = 0.004

Courant Number mean: 0.122701 max: 1.16566
DILUPBiCGStab:  Solving for Ux, Initial residual = 0.0899975, Final residual = 0.00116911, No Iterations 5
DILUPBiCGStab:  Solving for Uy, Initial residual = 0.472687, Final residual = 0.00475196, No Iterations 5
DILUPBiCGStab:  Solving for Uz, Initial residual = 0.548375, Final residual = 0.00346592, No Iterations 5
linear solve U 694976
[OGL LOG] init_host_sparsity_pattern : 363 ms
[OGL LOG] matrix not stored update host matrix
[OGL LOG] update_host_mtx : 188 ms
[OGL LOG] matrix is not yet sorted, sorting host matrix
[OGL LOG] sort_host_mtx_sparsity_pattern : 176 ms
[OGL LOG] sort_host_mtx : 99 ms
[OGL LOG] init_preconditioner : 0 ms
[OGL LOG] solve : 530 ms
BJhipGKOBiCGStab:  Solving for p, Initial residual = 0.847261, Final residual = 1.43133e-05, No Iterations 407
linear solve p 1392484
time step continuity errors : sum local = 2.28392e-06, global = 3.46143e-20, cumulative = 1.61287e-17
[OGL LOG] init_host_sparsity_pattern : 365 ms
[OGL LOG] matrix not stored update host matrix
[OGL LOG] update_host_mtx : 181 ms
[OGL LOG] matrix is not yet sorted, sorting host matrix
[OGL LOG] sort_host_mtx_sparsity_pattern : 155 ms
[OGL LOG] sort_host_mtx : 99 ms
[OGL LOG] init_preconditioner : 0 ms
[OGL LOG] solve : 546 ms
BJhipGKOBiCGStab:  Solving for p, Initial residual = 0.761887, Final residual = 9.90414e-05, No Iterations 418
linear solve p 1382678
time step continuity errors : sum local = 1.08004e-05, global = -1.58014e-20, cumulative = 1.61129e-17
ExecutionTime = 29.6 s  ClockTime = 28 s

Time = 0.005

Courant Number mean: 0.117657 max: 2.03446
DILUPBiCGStab:  Solving for Ux, Initial residual = 0.0747027, Final residual = 0.00132401, No Iterations 5
DILUPBiCGStab:  Solving for Uy, Initial residual = 0.637374, Final residual = 0.00404652, No Iterations 5
DILUPBiCGStab:  Solving for Uz, Initial residual = 0.894937, Final residual = 0.003702, No Iterations 5
linear solve U 691824
[OGL LOG] init_host_sparsity_pattern : 364 ms
[OGL LOG] matrix not stored update host matrix
[OGL LOG] update_host_mtx : 178 ms
[OGL LOG] matrix is not yet sorted, sorting host matrix
[OGL LOG] sort_host_mtx_sparsity_pattern : 151 ms
[OGL LOG] sort_host_mtx : 97 ms
[OGL LOG] init_preconditioner : 0 ms
[OGL LOG] solve : 466 ms
BJhipGKOBiCGStab:  Solving for p, Initial residual = 0.958145, Final residual = 9.92191e-05, No Iterations 355
linear solve p 1292046
time step continuity errors : sum local = 7.25749e-06, global = 2.87089e-20, cumulative = 1.61416e-17
[OGL LOG] init_host_sparsity_pattern : 362 ms
[OGL LOG] matrix not stored update host matrix
[OGL LOG] update_host_mtx : 185 ms
[OGL LOG] matrix is not yet sorted, sorting host matrix
[OGL LOG] sort_host_mtx_sparsity_pattern : 155 ms
[OGL LOG] sort_host_mtx : 96 ms
[OGL LOG] init_preconditioner : 0 ms
[OGL LOG] solve : 243 ms
BJhipGKOBiCGStab:  Solving for p, Initial residual = 0.791159, Final residual = 9.98938e-05, No Iterations 185
linear solve p 1078287
time step continuity errors : sum local = 7.63866e-06, global = 3.38886e-20, cumulative = 1.61755e-17
ExecutionTime = 33.48 s  ClockTime = 31 s

Time = 0.006

Courant Number mean: 0.119582 max: 1.48691
DILUPBiCGStab:  Solving for Ux, Initial residual = 0.0634787, Final residual = 0.00103978, No Iterations 5
DILUPBiCGStab:  Solving for Uy, Initial residual = 0.534597, Final residual = 0.00382374, No Iterations 5
DILUPBiCGStab:  Solving for Uz, Initial residual = 0.913083, Final residual = 0.00400968, No Iterations 5
linear solve U 692105
[OGL LOG] init_host_sparsity_pattern : 364 ms
[OGL LOG] matrix not stored update host matrix
[OGL LOG] update_host_mtx : 179 ms
[OGL LOG] matrix is not yet sorted, sorting host matrix
[OGL LOG] sort_host_mtx_sparsity_pattern : 174 ms
[OGL LOG] sort_host_mtx : 99 ms
[OGL LOG] init_preconditioner : 0 ms
[OGL LOG] solve : 604 ms
BJhipGKOBiCGStab:  Solving for p, Initial residual = 0.977382, Final residual = 6.10782e-05, No Iterations 461
linear solve p 1456225
time step continuity errors : sum local = 0.0155348, global = 1.52301e-18, cumulative = 1.76985e-17
[OGL LOG] init_host_sparsity_pattern : 361 ms
[OGL LOG] matrix not stored update host matrix
[OGL LOG] update_host_mtx : 177 ms
[OGL LOG] matrix is not yet sorted, sorting host matrix
[OGL LOG] sort_host_mtx_sparsity_pattern : 154 ms
[OGL LOG] sort_host_mtx : 103 ms
[OGL LOG] init_preconditioner : 0 ms
[OGL LOG] solve : 473 ms
BJhipGKOBiCGStab:  Solving for p, Initial residual = 0.807868, Final residual = 9.96944e-05, No Iterations 362
linear solve p 1305397
time step continuity errors : sum local = 7.60206e-06, global = 1.56893e-20, cumulative = 1.77142e-17
ExecutionTime = 37.96 s  ClockTime = 35 s

Time = 0.007

Courant Number mean: 0.12667 max: 1.57023
DILUPBiCGStab:  Solving for Ux, Initial residual = 0.0723741, Final residual = 0.00136151, No Iterations 5
DILUPBiCGStab:  Solving for Uy, Initial residual = 0.528531, Final residual = 0.00558977, No Iterations 5
DILUPBiCGStab:  Solving for Uz, Initial residual = 0.909771, Final residual = 0.00680059, No Iterations 5
linear solve U 695460
[OGL LOG] init_host_sparsity_pattern : 364 ms
[OGL LOG] matrix not stored update host matrix
[OGL LOG] update_host_mtx : 177 ms
[OGL LOG] matrix is not yet sorted, sorting host matrix
[OGL LOG] sort_host_mtx_sparsity_pattern : 183 ms
[OGL LOG] sort_host_mtx : 92 ms
[OGL LOG] init_preconditioner : 0 ms
[OGL LOG] solve : 568 ms
BJhipGKOBiCGStab:  Solving for p, Initial residual = 0.978631, Final residual = 4.62895e-05, No Iterations 432
linear solve p 1420535
time step continuity errors : sum local = 0.0115099, global = 1.52415e-19, cumulative = 1.78666e-17
[OGL LOG] init_host_sparsity_pattern : 362 ms
[OGL LOG] matrix not stored update host matrix
[OGL LOG] update_host_mtx : 177 ms
[OGL LOG] matrix is not yet sorted, sorting host matrix
[OGL LOG] sort_host_mtx_sparsity_pattern : 155 ms
[OGL LOG] sort_host_mtx : 102 ms
[OGL LOG] init_preconditioner : 0 ms
[OGL LOG] solve : 570 ms
BJhipGKOBiCGStab:  Solving for p, Initial residual = 0.834057, Final residual = 8.18158e-05, No Iterations 436
linear solve p 1402833
time step continuity errors : sum local = 0.0149216, global = -5.56938e-18, cumulative = 1.22972e-17
ExecutionTime = 42.54 s  ClockTime = 39 s

Time = 0.008

Courant Number mean: 0.140107 max: 1.25271
DILUPBiCGStab:  Solving for Ux, Initial residual = 0.076238, Final residual = 0.00157256, No Iterations 5
DILUPBiCGStab:  Solving for Uy, Initial residual = 0.409799, Final residual = 0.00375376, No Iterations 5
DILUPBiCGStab:  Solving for Uz, Initial residual = 0.707138, Final residual = 0.00396645, No Iterations 5
linear solve U 698818
[OGL LOG] init_host_sparsity_pattern : 363 ms
[OGL LOG] matrix not stored update host matrix
[OGL LOG] update_host_mtx : 176 ms
[OGL LOG] matrix is not yet sorted, sorting host matrix
[OGL LOG] sort_host_mtx_sparsity_pattern : 165 ms
[OGL LOG] sort_host_mtx : 94 ms
[OGL LOG] init_preconditioner : 0 ms
[OGL LOG] solve : 574 ms
BJhipGKOBiCGStab:  Solving for p, Initial residual = 0.917106, Final residual = 9.17185e-05, No Iterations 443
linear solve p 1409130
time step continuity errors : sum local = 0.00230696, global = 8.71195e-20, cumulative = 1.23843e-17
[OGL LOG] init_host_sparsity_pattern : 361 ms
[OGL LOG] matrix not stored update host matrix
[OGL LOG] update_host_mtx : 182 ms
[OGL LOG] matrix is not yet sorted, sorting host matrix
[OGL LOG] sort_host_mtx_sparsity_pattern : 155 ms
[OGL LOG] sort_host_mtx : 100 ms
[OGL LOG] init_preconditioner : 0 ms
[OGL LOG] solve : 582 ms
BJhipGKOBiCGStab:  Solving for p, Initial residual = 0.735397, Final residual = 7.38917e-05, No Iterations 445
linear solve p 1416292
time step continuity errors : sum local = 0.00221134, global = -3.68643e-19, cumulative = 1.20157e-17
ExecutionTime = 47.14 s  ClockTime = 43 s

Time = 0.009

Courant Number mean: 0.1361 max: 0.972057
DILUPBiCGStab:  Solving for Ux, Initial residual = 0.0520968, Final residual = 0.00083338, No Iterations 5
DILUPBiCGStab:  Solving for Uy, Initial residual = 0.442492, Final residual = 0.0046874, No Iterations 5
DILUPBiCGStab:  Solving for Uz, Initial residual = 0.913796, Final residual = 0.0032795, No Iterations 5
linear solve U 697505
[OGL LOG] init_host_sparsity_pattern : 363 ms
[OGL LOG] matrix not stored update host matrix
[OGL LOG] update_host_mtx : 176 ms
[OGL LOG] matrix is not yet sorted, sorting host matrix
[OGL LOG] sort_host_mtx_sparsity_pattern : 155 ms
[OGL LOG] sort_host_mtx : 98 ms
[OGL LOG] init_preconditioner : 0 ms
[OGL LOG] solve : 522 ms
BJhipGKOBiCGStab:  Solving for p, Initial residual = 0.977798, Final residual = 2.25829e-05, No Iterations 401
linear solve p 1350333
time step continuity errors : sum local = 0.0156713, global = -3.43094e-18, cumulative = 8.58473e-18
[OGL LOG] init_host_sparsity_pattern : 361 ms
[OGL LOG] matrix not stored update host matrix
[OGL LOG] update_host_mtx : 177 ms
[OGL LOG] matrix is not yet sorted, sorting host matrix
[OGL LOG] sort_host_mtx_sparsity_pattern : 159 ms
[OGL LOG] sort_host_mtx : 93 ms
[OGL LOG] init_preconditioner : 0 ms
[OGL LOG] solve : 613 ms
BJhipGKOBiCGStab:  Solving for p, Initial residual = 0.903592, Final residual = 9.06288e-05, No Iterations 469
linear solve p 1439658
time step continuity errors : sum local = 4.60522e-06, global = -3.71431e-20, cumulative = 8.54759e-18
ExecutionTime = 51.68 s  ClockTime = 47 s

Time = 0.01

Courant Number mean: 0.138078 max: 0.934682
DILUPBiCGStab:  Solving for Ux, Initial residual = 0.0463406, Final residual = 0.000884527, No Iterations 5
DILUPBiCGStab:  Solving for Uy, Initial residual = 0.475003, Final residual = 0.00567202, No Iterations 5
DILUPBiCGStab:  Solving for Uz, Initial residual = 0.893268, Final residual = 0.0059253, No Iterations 5
linear solve U 698234
[OGL LOG] init_host_sparsity_pattern : 363 ms
[OGL LOG] matrix not stored update host matrix
[OGL LOG] update_host_mtx : 177 ms
[OGL LOG] matrix is not yet sorted, sorting host matrix
[OGL LOG] sort_host_mtx_sparsity_pattern : 170 ms
[OGL LOG] sort_host_mtx : 97 ms
[OGL LOG] init_preconditioner : 0 ms
[OGL LOG] solve : 606 ms
BJhipGKOBiCGStab:  Solving for p, Initial residual = 0.96379, Final residual = 9.48458e-05, No Iterations 461
linear solve p 1448141
time step continuity errors : sum local = 0.000718786, global = 5.47853e-19, cumulative = 9.09544e-18
[OGL LOG] init_host_sparsity_pattern : 361 ms
[OGL LOG] matrix not stored update host matrix
[OGL LOG] update_host_mtx : 177 ms
[OGL LOG] matrix is not yet sorted, sorting host matrix
[OGL LOG] sort_host_mtx_sparsity_pattern : 155 ms
[OGL LOG] sort_host_mtx : 101 ms
[OGL LOG] init_preconditioner : 0 ms
[OGL LOG] solve : 585 ms
BJhipGKOBiCGStab:  Solving for p, Initial residual = 0.794285, Final residual = 9.84094e-05, No Iterations 448
linear solve p 1415319
time step continuity errors : sum local = 0.000231503, global = -2.76982e-20, cumulative = 9.06774e-18
ExecutionTime = 56.33 s  ClockTime = 51 s

End

