/*---------------------------------------------------------------------------*\
  =========                 |
  \\      /  F ield         | OpenFOAM: The Open Source CFD Toolbox
   \\    /   O peration     | Website:  https://openfoam.org
    \\  /    A nd           | Version:  8
     \\/     M anipulation  |
\*---------------------------------------------------------------------------*/
Build  : 8-ef60d22ea792
Exec   : icoFoam
Date   : Jul 29 2021
Time   : 04:12:20
Host   : "uc2n489.localdomain"
PID    : 3426324
I/O    : uncollated
Case   : /pfs/data5/home/kit/scc/nq7776/code/OBR/lidDrivenCavity3D/Variation_mesh/55/Variation_matrix_solver/CG_BJ_CUDA/base
nProcs : 1
sigFpe : Enabling floating point exception trapping (FOAM_SIGFPE).
fileModificationChecking : Monitoring run-time modified files using timeStampMaster (fileModificationSkew 10)
allowSystemOperations : Allowing user-supplied system call operations

// * * * * * * * * * * * * * * * * * * * * * * * * * * * * * * * * * * * * * //
Create time

Create mesh for time = 0

Reading transportProperties

Reading field p

Reading field U

Reading/calculating face flux field phi


Starting time loop

Time = 0.001

Courant Number mean: 0 max: 0
DILUPBiCGStab:  Solving for Ux, Initial residual = 1, Final residual = 0.000272743, No Iterations 5
DILUPBiCGStab:  Solving for Uy:  solution singularity
DILUPBiCGStab:  Solving for Uz:  solution singularity
linear solve U 76656
[OGL LOG] init_host_sparsity_pattern : 46 ms
[OGL LOG] matrix not stored update host matrix
[OGL LOG] update_host_mtx : 24 ms
[OGL LOG] matrix is not yet sorted, compute sorting idxs
[OGL LOG] compute_sort : 1362 ms
[OGL LOG] matrix is not yet sorted, sorting host matrix
[OGL LOG] sort_host_mtx_sparsity_pattern : 32 ms
[OGL LOG] sort_host_mtx : 16 ms
[OGL LOG] init_preconditioner : 17 ms
 CG create  precond 
[OGL LOG] solve : 133 ms
BJcudaGKOCG:  Solving for p, Initial residual = 1, Final residual = 9.83956e-05, No Iterations 365
linear solve p 2369848
time step continuity errors : sum local = 5.73499e-08, global = 6.00029e-21, cumulative = 6.00029e-21
[OGL LOG] init_host_sparsity_pattern : 45 ms
[OGL LOG] matrix not stored update host matrix
[OGL LOG] update_host_mtx : 24 ms
[OGL LOG] matrix is not yet sorted, sorting host matrix
[OGL LOG] sort_host_mtx_sparsity_pattern : 33 ms
[OGL LOG] sort_host_mtx : 16 ms
[OGL LOG] init_preconditioner : 0 ms
 CG create  precond 
[OGL LOG] solve : 124 ms
BJcudaGKOCG:  Solving for p, Initial residual = 0.678585, Final residual = 9.62372e-05, No Iterations 355
linear solve p 255326
time step continuity errors : sum local = 7.78227e-08, global = 4.6485e-22, cumulative = 6.46514e-21
ExecutionTime = 3.43 s  ClockTime = 3 s

Time = 0.002

Courant Number mean: 0.0305076 max: 0.37634
DILUPBiCGStab:  Solving for Ux, Initial residual = 0.162208, Final residual = 6.90602e-05, No Iterations 5
DILUPBiCGStab:  Solving for Uy, Initial residual = 0.32733, Final residual = 0.000109948, No Iterations 5
DILUPBiCGStab:  Solving for Uz, Initial residual = 0.977029, Final residual = 0.00043488, No Iterations 5
linear solve U 144038
[OGL LOG] init_host_sparsity_pattern : 43 ms
[OGL LOG] matrix not stored update host matrix
[OGL LOG] update_host_mtx : 21 ms
[OGL LOG] matrix is not yet sorted, sorting host matrix
[OGL LOG] sort_host_mtx_sparsity_pattern : 30 ms
[OGL LOG] sort_host_mtx : 16 ms
[OGL LOG] init_preconditioner : 0 ms
 CG create  precond 
[OGL LOG] solve : 121 ms
BJcudaGKOCG:  Solving for p, Initial residual = 0.580192, Final residual = 9.99827e-05, No Iterations 342
linear solve p 245215
time step continuity errors : sum local = 8.10859e-08, global = 1.08577e-20, cumulative = 1.73228e-20
[OGL LOG] init_host_sparsity_pattern : 43 ms
[OGL LOG] matrix not stored update host matrix
[OGL LOG] update_host_mtx : 21 ms
[OGL LOG] matrix is not yet sorted, sorting host matrix
[OGL LOG] sort_host_mtx_sparsity_pattern : 33 ms
[OGL LOG] sort_host_mtx : 16 ms
[OGL LOG] init_preconditioner : 0 ms
 CG create  precond 
[OGL LOG] solve : 118 ms
BJcudaGKOCG:  Solving for p, Initial residual = 0.497826, Final residual = 9.67095e-05, No Iterations 338
linear solve p 243666
time step continuity errors : sum local = 8.0844e-08, global = 6.11511e-21, cumulative = 2.34379e-20
ExecutionTime = 4.16 s  ClockTime = 4 s

Time = 0.003

Courant Number mean: 0.0458491 max: 0.461223
DILUPBiCGStab:  Solving for Ux, Initial residual = 0.0523896, Final residual = 2.20666e-05, No Iterations 5
DILUPBiCGStab:  Solving for Uy, Initial residual = 0.0999343, Final residual = 3.09432e-05, No Iterations 5
DILUPBiCGStab:  Solving for Uz, Initial residual = 0.185035, Final residual = 6.43582e-05, No Iterations 5
linear solve U 144283
[OGL LOG] init_host_sparsity_pattern : 43 ms
[OGL LOG] matrix not stored update host matrix
[OGL LOG] update_host_mtx : 21 ms
[OGL LOG] matrix is not yet sorted, sorting host matrix
[OGL LOG] sort_host_mtx_sparsity_pattern : 30 ms
[OGL LOG] sort_host_mtx : 16 ms
[OGL LOG] init_preconditioner : 0 ms
 CG create  precond 
[OGL LOG] solve : 119 ms
BJcudaGKOCG:  Solving for p, Initial residual = 0.391038, Final residual = 8.88887e-05, No Iterations 332
linear solve p 241583
time step continuity errors : sum local = 5.06138e-08, global = 3.26105e-21, cumulative = 2.6699e-20
[OGL LOG] init_host_sparsity_pattern : 43 ms
[OGL LOG] matrix not stored update host matrix
[OGL LOG] update_host_mtx : 21 ms
[OGL LOG] matrix is not yet sorted, sorting host matrix
[OGL LOG] sort_host_mtx_sparsity_pattern : 30 ms
[OGL LOG] sort_host_mtx : 16 ms
[OGL LOG] init_preconditioner : 0 ms
 CG create  precond 
[OGL LOG] solve : 114 ms
BJcudaGKOCG:  Solving for p, Initial residual = 0.33687, Final residual = 9.76592e-05, No Iterations 327
linear solve p 236891
time step continuity errors : sum local = 5.42999e-08, global = -9.10956e-21, cumulative = 1.75894e-20
ExecutionTime = 4.87 s  ClockTime = 5 s

Time = 0.004

Courant Number mean: 0.0544851 max: 0.479441
DILUPBiCGStab:  Solving for Ux, Initial residual = 0.0312274, Final residual = 6.43516e-06, No Iterations 5
DILUPBiCGStab:  Solving for Uy, Initial residual = 0.0645937, Final residual = 1.16453e-05, No Iterations 5
DILUPBiCGStab:  Solving for Uz, Initial residual = 0.136209, Final residual = 4.34031e-05, No Iterations 5
linear solve U 144441
[OGL LOG] init_host_sparsity_pattern : 43 ms
[OGL LOG] matrix not stored update host matrix
[OGL LOG] update_host_mtx : 21 ms
[OGL LOG] matrix is not yet sorted, sorting host matrix
[OGL LOG] sort_host_mtx_sparsity_pattern : 30 ms
[OGL LOG] sort_host_mtx : 16 ms
[OGL LOG] init_preconditioner : 0 ms
 CG create  precond 
[OGL LOG] solve : 114 ms
BJcudaGKOCG:  Solving for p, Initial residual = 0.19396, Final residual = 9.49221e-05, No Iterations 321
linear solve p 237923
time step continuity errors : sum local = 5.04738e-08, global = -3.02261e-20, cumulative = -1.26367e-20
[OGL LOG] init_host_sparsity_pattern : 45 ms
[OGL LOG] matrix not stored update host matrix
[OGL LOG] update_host_mtx : 22 ms
[OGL LOG] matrix is not yet sorted, sorting host matrix
[OGL LOG] sort_host_mtx_sparsity_pattern : 32 ms
[OGL LOG] sort_host_mtx : 16 ms
[OGL LOG] init_preconditioner : 0 ms
 CG create  precond 
[OGL LOG] solve : 112 ms
BJcudaGKOCG:  Solving for p, Initial residual = 0.155936, Final residual = 9.49122e-05, No Iterations 319
linear solve p 240009
time step continuity errors : sum local = 5.10641e-08, global = 9.93221e-22, cumulative = -1.16435e-20
ExecutionTime = 5.59 s  ClockTime = 6 s

Time = 0.005

Courant Number mean: 0.0609396 max: 0.489043
DILUPBiCGStab:  Solving for Ux, Initial residual = 0.0220046, Final residual = 5.48026e-06, No Iterations 5
DILUPBiCGStab:  Solving for Uy, Initial residual = 0.0440319, Final residual = 7.38268e-06, No Iterations 5
DILUPBiCGStab:  Solving for Uz, Initial residual = 0.0731882, Final residual = 1.84572e-05, No Iterations 5
linear solve U 143933
[OGL LOG] init_host_sparsity_pattern : 43 ms
[OGL LOG] matrix not stored update host matrix
[OGL LOG] update_host_mtx : 21 ms
[OGL LOG] matrix is not yet sorted, sorting host matrix
[OGL LOG] sort_host_mtx_sparsity_pattern : 30 ms
[OGL LOG] sort_host_mtx : 16 ms
[OGL LOG] init_preconditioner : 0 ms
 CG create  precond 
[OGL LOG] solve : 108 ms
BJcudaGKOCG:  Solving for p, Initial residual = 0.107461, Final residual = 9.63537e-05, No Iterations 309
linear solve p 231154
time step continuity errors : sum local = 4.80497e-08, global = 4.3276e-21, cumulative = -7.31591e-21
[OGL LOG] init_host_sparsity_pattern : 43 ms
[OGL LOG] matrix not stored update host matrix
[OGL LOG] update_host_mtx : 21 ms
[OGL LOG] matrix is not yet sorted, sorting host matrix
[OGL LOG] sort_host_mtx_sparsity_pattern : 31 ms
[OGL LOG] sort_host_mtx : 16 ms
[OGL LOG] init_preconditioner : 0 ms
 CG create  precond 
[OGL LOG] solve : 108 ms
BJcudaGKOCG:  Solving for p, Initial residual = 0.0880371, Final residual = 9.36542e-05, No Iterations 308
linear solve p 231825
time step continuity errors : sum local = 4.66271e-08, global = -1.76025e-21, cumulative = -9.07616e-21
ExecutionTime = 6.29 s  ClockTime = 6 s

Time = 0.006

Courant Number mean: 0.065941 max: 0.494872
DILUPBiCGStab:  Solving for Ux, Initial residual = 0.016694, Final residual = 3.35526e-06, No Iterations 5
DILUPBiCGStab:  Solving for Uy, Initial residual = 0.0337589, Final residual = 2.87761e-06, No Iterations 5
DILUPBiCGStab:  Solving for Uz, Initial residual = 0.0595111, Final residual = 1.13791e-05, No Iterations 5
linear solve U 143981
[OGL LOG] init_host_sparsity_pattern : 43 ms
[OGL LOG] matrix not stored update host matrix
[OGL LOG] update_host_mtx : 21 ms
[OGL LOG] matrix is not yet sorted, sorting host matrix
[OGL LOG] sort_host_mtx_sparsity_pattern : 30 ms
[OGL LOG] sort_host_mtx : 16 ms
[OGL LOG] init_preconditioner : 0 ms
 CG create  precond 
[OGL LOG] solve : 55 ms
BJcudaGKOCG:  Solving for p, Initial residual = 0.064005, Final residual = 9.83112e-05, No Iterations 153
linear solve p 177538
time step continuity errors : sum local = 5.89394e-08, global = 5.25481e-21, cumulative = -3.82135e-21
[OGL LOG] init_host_sparsity_pattern : 43 ms
[OGL LOG] matrix not stored update host matrix
[OGL LOG] update_host_mtx : 21 ms
[OGL LOG] matrix is not yet sorted, sorting host matrix
[OGL LOG] sort_host_mtx_sparsity_pattern : 30 ms
[OGL LOG] sort_host_mtx : 16 ms
[OGL LOG] init_preconditioner : 0 ms
 CG create  precond 
[OGL LOG] solve : 52 ms
BJcudaGKOCG:  Solving for p, Initial residual = 0.0524281, Final residual = 9.4354e-05, No Iterations 146
linear solve p 174818
time step continuity errors : sum local = 4.99544e-08, global = 3.39855e-21, cumulative = -4.22801e-22
ExecutionTime = 6.88 s  ClockTime = 7 s

Time = 0.007

Courant Number mean: 0.0700482 max: 0.498906
DILUPBiCGStab:  Solving for Ux, Initial residual = 0.0133051, Final residual = 1.90449e-06, No Iterations 5
DILUPBiCGStab:  Solving for Uy, Initial residual = 0.0270332, Final residual = 2.35183e-06, No Iterations 5
DILUPBiCGStab:  Solving for Uz, Initial residual = 0.0488148, Final residual = 6.98602e-06, No Iterations 5
linear solve U 143767
[OGL LOG] init_host_sparsity_pattern : 43 ms
[OGL LOG] matrix not stored update host matrix
[OGL LOG] update_host_mtx : 21 ms
[OGL LOG] matrix is not yet sorted, sorting host matrix
[OGL LOG] sort_host_mtx_sparsity_pattern : 30 ms
[OGL LOG] sort_host_mtx : 16 ms
[OGL LOG] init_preconditioner : 0 ms
 CG create  precond 
[OGL LOG] solve : 51 ms
BJcudaGKOCG:  Solving for p, Initial residual = 0.0404371, Final residual = 9.88349e-05, No Iterations 143
linear solve p 173933
time step continuity errors : sum local = 5.12397e-08, global = 7.23128e-21, cumulative = 6.80848e-21
[OGL LOG] init_host_sparsity_pattern : 43 ms
[OGL LOG] matrix not stored update host matrix
[OGL LOG] update_host_mtx : 21 ms
[OGL LOG] matrix is not yet sorted, sorting host matrix
[OGL LOG] sort_host_mtx_sparsity_pattern : 30 ms
[OGL LOG] sort_host_mtx : 16 ms
[OGL LOG] init_preconditioner : 0 ms
 CG create  precond 
[OGL LOG] solve : 50 ms
BJcudaGKOCG:  Solving for p, Initial residual = 0.0342362, Final residual = 9.75195e-05, No Iterations 141
linear solve p 173281
time step continuity errors : sum local = 4.93846e-08, global = -3.34138e-21, cumulative = 3.4671e-21
ExecutionTime = 7.46 s  ClockTime = 8 s

Time = 0.008

Courant Number mean: 0.0734868 max: 0.501898
DILUPBiCGStab:  Solving for Ux, Initial residual = 0.0109582, Final residual = 1.38066e-06, No Iterations 5
DILUPBiCGStab:  Solving for Uy, Initial residual = 0.0223246, Final residual = 1.49661e-06, No Iterations 5
DILUPBiCGStab:  Solving for Uz, Initial residual = 0.0409148, Final residual = 4.59266e-06, No Iterations 5
linear solve U 143978
[OGL LOG] init_host_sparsity_pattern : 45 ms
[OGL LOG] matrix not stored update host matrix
[OGL LOG] update_host_mtx : 23 ms
[OGL LOG] matrix is not yet sorted, sorting host matrix
[OGL LOG] sort_host_mtx_sparsity_pattern : 34 ms
[OGL LOG] sort_host_mtx : 16 ms
[OGL LOG] init_preconditioner : 0 ms
 CG create  precond 
[OGL LOG] solve : 51 ms
BJcudaGKOCG:  Solving for p, Initial residual = 0.0278453, Final residual = 9.69979e-05, No Iterations 142
linear solve p 183251
time step continuity errors : sum local = 5.58272e-08, global = -3.56411e-22, cumulative = 3.11069e-21
[OGL LOG] init_host_sparsity_pattern : 43 ms
[OGL LOG] matrix not stored update host matrix
[OGL LOG] update_host_mtx : 21 ms
[OGL LOG] matrix is not yet sorted, sorting host matrix
[OGL LOG] sort_host_mtx_sparsity_pattern : 30 ms
[OGL LOG] sort_host_mtx : 16 ms
[OGL LOG] init_preconditioner : 0 ms
 CG create  precond 
[OGL LOG] solve : 50 ms
BJcudaGKOCG:  Solving for p, Initial residual = 0.0240114, Final residual = 9.14667e-05, No Iterations 139
linear solve p 172583
time step continuity errors : sum local = 4.83745e-08, global = 1.74003e-20, cumulative = 2.05109e-20
ExecutionTime = 8.05 s  ClockTime = 8 s

Time = 0.009

Courant Number mean: 0.0764171 max: 0.50422
DILUPBiCGStab:  Solving for Ux, Initial residual = 0.00921861, Final residual = 5.86759e-07, No Iterations 5
DILUPBiCGStab:  Solving for Uy, Initial residual = 0.0189266, Final residual = 1.16564e-06, No Iterations 5
DILUPBiCGStab:  Solving for Uz, Initial residual = 0.0353126, Final residual = 3.4686e-06, No Iterations 5
linear solve U 143846
[OGL LOG] init_host_sparsity_pattern : 43 ms
[OGL LOG] matrix not stored update host matrix
[OGL LOG] update_host_mtx : 21 ms
[OGL LOG] matrix is not yet sorted, sorting host matrix
[OGL LOG] sort_host_mtx_sparsity_pattern : 30 ms
[OGL LOG] sort_host_mtx : 16 ms
[OGL LOG] init_preconditioner : 0 ms
 CG create  precond 
[OGL LOG] solve : 49 ms
BJcudaGKOCG:  Solving for p, Initial residual = 0.0215409, Final residual = 9.93309e-05, No Iterations 137
linear solve p 171798
time step continuity errors : sum local = 5.15479e-08, global = 1.14197e-21, cumulative = 2.16529e-20
[OGL LOG] init_host_sparsity_pattern : 43 ms
[OGL LOG] matrix not stored update host matrix
[OGL LOG] update_host_mtx : 21 ms
[OGL LOG] matrix is not yet sorted, sorting host matrix
[OGL LOG] sort_host_mtx_sparsity_pattern : 30 ms
[OGL LOG] sort_host_mtx : 16 ms
[OGL LOG] init_preconditioner : 0 ms
 CG create  precond 
[OGL LOG] solve : 49 ms
BJcudaGKOCG:  Solving for p, Initial residual = 0.0189797, Final residual = 9.62726e-05, No Iterations 136
linear solve p 171772
time step continuity errors : sum local = 4.95155e-08, global = -5.1188e-21, cumulative = 1.65341e-20
ExecutionTime = 8.63 s  ClockTime = 9 s

Time = 0.01

Courant Number mean: 0.0789767 max: 0.506078
DILUPBiCGStab:  Solving for Ux, Initial residual = 0.00789627, Final residual = 4.50285e-07, No Iterations 5
DILUPBiCGStab:  Solving for Uy, Initial residual = 0.016261, Final residual = 9.77335e-07, No Iterations 5
DILUPBiCGStab:  Solving for Uz, Initial residual = 0.030697, Final residual = 2.5341e-06, No Iterations 5
linear solve U 149778
[OGL LOG] init_host_sparsity_pattern : 43 ms
[OGL LOG] matrix not stored update host matrix
[OGL LOG] update_host_mtx : 21 ms
[OGL LOG] matrix is not yet sorted, sorting host matrix
[OGL LOG] sort_host_mtx_sparsity_pattern : 31 ms
[OGL LOG] sort_host_mtx : 16 ms
[OGL LOG] init_preconditioner : 0 ms
 CG create  precond 
[OGL LOG] solve : 50 ms
BJcudaGKOCG:  Solving for p, Initial residual = 0.0166778, Final residual = 9.91195e-05, No Iterations 136
linear solve p 174216
time step continuity errors : sum local = 5.58922e-08, global = 1.20846e-20, cumulative = 2.86188e-20
[OGL LOG] init_host_sparsity_pattern : 43 ms
[OGL LOG] matrix not stored update host matrix
[OGL LOG] update_host_mtx : 21 ms
[OGL LOG] matrix is not yet sorted, sorting host matrix
[OGL LOG] sort_host_mtx_sparsity_pattern : 30 ms
[OGL LOG] sort_host_mtx : 16 ms
[OGL LOG] init_preconditioner : 0 ms
 CG create  precond 
[OGL LOG] solve : 50 ms
BJcudaGKOCG:  Solving for p, Initial residual = 0.0149884, Final residual = 9.35089e-05, No Iterations 134
linear solve p 172685
time step continuity errors : sum local = 4.97343e-08, global = 3.04163e-21, cumulative = 3.16604e-20
ExecutionTime = 9.22 s  ClockTime = 9 s

End

