/*---------------------------------------------------------------------------*\
  =========                 |
  \\      /  F ield         | OpenFOAM: The Open Source CFD Toolbox
   \\    /   O peration     | Website:  https://openfoam.org
    \\  /    A nd           | Version:  8
     \\/     M anipulation  |
\*---------------------------------------------------------------------------*/
Build  : 8-ef60d22ea792
Exec   : icoFoam
Date   : Jul 29 2021
Time   : 00:43:00
Host   : "uc2n414.localdomain"
PID    : 2841287
I/O    : uncollated
Case   : /pfs/data5/home/kit/scc/nq7776/code/OBR/lidDrivenCavity3D/Variation_mesh/25/Variation_matrix_solver/CG_NoPrecond_OMP/base
nProcs : 1
sigFpe : Enabling floating point exception trapping (FOAM_SIGFPE).
fileModificationChecking : Monitoring run-time modified files using timeStampMaster (fileModificationSkew 10)
allowSystemOperations : Allowing user-supplied system call operations

// * * * * * * * * * * * * * * * * * * * * * * * * * * * * * * * * * * * * * //
Create time

Create mesh for time = 0

Reading transportProperties

Reading field p

Reading field U

Reading/calculating face flux field phi


Starting time loop

Time = 0.001

Courant Number mean: 0 max: 0
DILUPBiCGStab:  Solving for Ux, Initial residual = 1, Final residual = 1.01737e-08, No Iterations 5
DILUPBiCGStab:  Solving for Uy:  solution singularity
DILUPBiCGStab:  Solving for Uz:  solution singularity
linear solve U 6076
[OGL LOG] init_host_sparsity_pattern : 4 ms
[OGL LOG] matrix not stored update host matrix
[OGL LOG] update_host_mtx : 2 ms
[OGL LOG] matrix is not yet sorted, compute sorting idxs
[OGL LOG] compute_sort : 114 ms
[OGL LOG] matrix is not yet sorted, sorting host matrix
[OGL LOG] sort_host_mtx_sparsity_pattern : 3 ms
[OGL LOG] sort_host_mtx : 1 ms
[OGL LOG] init_preconditioner : 0 ms
[OGL LOG] solve : 90 ms
noneompGKOCG:  Solving for p, Initial residual = 1, Final residual = 9.39318e-05, No Iterations 191
linear solve p 221788
time step continuity errors : sum local = 4.82732e-08, global = -2.67898e-21, cumulative = -2.67898e-21
[OGL LOG] init_host_sparsity_pattern : 4 ms
[OGL LOG] matrix not stored update host matrix
[OGL LOG] update_host_mtx : 2 ms
[OGL LOG] matrix is not yet sorted, sorting host matrix
[OGL LOG] sort_host_mtx_sparsity_pattern : 3 ms
[OGL LOG] sort_host_mtx : 1 ms
[OGL LOG] init_preconditioner : 0 ms
[OGL LOG] solve : 83 ms
noneompGKOCG:  Solving for p, Initial residual = 0.481388, Final residual = 7.90903e-05, No Iterations 187
linear solve p 98215
time step continuity errors : sum local = 6.56034e-08, global = 4.50996e-21, cumulative = 1.83098e-21
ExecutionTime = 0.42 s  ClockTime = 0 s

Time = 0.002

Courant Number mean: 0.0119809 max: 0.106546
DILUPBiCGStab:  Solving for Ux, Initial residual = 0.210779, Final residual = 1.44916e-09, No Iterations 5
DILUPBiCGStab:  Solving for Uy, Initial residual = 0.284219, Final residual = 1.36665e-09, No Iterations 5
DILUPBiCGStab:  Solving for Uz, Initial residual = 0.890238, Final residual = 5.34958e-09, No Iterations 5
linear solve U 10327
[OGL LOG] init_host_sparsity_pattern : 4 ms
[OGL LOG] matrix not stored update host matrix
[OGL LOG] update_host_mtx : 2 ms
[OGL LOG] matrix is not yet sorted, sorting host matrix
[OGL LOG] sort_host_mtx_sparsity_pattern : 3 ms
[OGL LOG] sort_host_mtx : 1 ms
[OGL LOG] init_preconditioner : 0 ms
[OGL LOG] solve : 80 ms
noneompGKOCG:  Solving for p, Initial residual = 0.286223, Final residual = 9.47671e-05, No Iterations 183
linear solve p 93790
time step continuity errors : sum local = 7.35118e-08, global = 2.509e-20, cumulative = 2.6921e-20
[OGL LOG] init_host_sparsity_pattern : 4 ms
[OGL LOG] matrix not stored update host matrix
[OGL LOG] update_host_mtx : 2 ms
[OGL LOG] matrix is not yet sorted, sorting host matrix
[OGL LOG] sort_host_mtx_sparsity_pattern : 3 ms
[OGL LOG] sort_host_mtx : 1 ms
[OGL LOG] init_preconditioner : 0 ms
[OGL LOG] solve : 78 ms
noneompGKOCG:  Solving for p, Initial residual = 0.189891, Final residual = 9.08702e-05, No Iterations 179
linear solve p 90722
time step continuity errors : sum local = 7.48009e-08, global = 1.81376e-20, cumulative = 4.50586e-20
ExecutionTime = 0.62 s  ClockTime = 0 s

Time = 0.003

Courant Number mean: 0.0188589 max: 0.15358
DILUPBiCGStab:  Solving for Ux, Initial residual = 0.0901261, Final residual = 5.47159e-10, No Iterations 5
DILUPBiCGStab:  Solving for Uy, Initial residual = 0.124403, Final residual = 4.86067e-10, No Iterations 5
DILUPBiCGStab:  Solving for Uz, Initial residual = 0.250019, Final residual = 1.41136e-09, No Iterations 5
linear solve U 10146
[OGL LOG] init_host_sparsity_pattern : 4 ms
[OGL LOG] matrix not stored update host matrix
[OGL LOG] update_host_mtx : 2 ms
[OGL LOG] matrix is not yet sorted, sorting host matrix
[OGL LOG] sort_host_mtx_sparsity_pattern : 3 ms
[OGL LOG] sort_host_mtx : 1 ms
[OGL LOG] init_preconditioner : 0 ms
[OGL LOG] solve : 81 ms
noneompGKOCG:  Solving for p, Initial residual = 0.103003, Final residual = 8.98486e-05, No Iterations 175
linear solve p 93753
time step continuity errors : sum local = 6.95343e-08, global = -4.03674e-21, cumulative = 4.10218e-20
[OGL LOG] init_host_sparsity_pattern : 4 ms
[OGL LOG] matrix not stored update host matrix
[OGL LOG] update_host_mtx : 2 ms
[OGL LOG] matrix is not yet sorted, sorting host matrix
[OGL LOG] sort_host_mtx_sparsity_pattern : 3 ms
[OGL LOG] sort_host_mtx : 1 ms
[OGL LOG] init_preconditioner : 0 ms
[OGL LOG] solve : 76 ms
noneompGKOCG:  Solving for p, Initial residual = 0.0705398, Final residual = 8.89664e-05, No Iterations 170
linear solve p 89119
time step continuity errors : sum local = 7.0847e-08, global = -6.48179e-21, cumulative = 3.45401e-20
ExecutionTime = 0.82 s  ClockTime = 0 s

Time = 0.004

Courant Number mean: 0.0233284 max: 0.175141
DILUPBiCGStab:  Solving for Ux, Initial residual = 0.052081, Final residual = 2.37843e-10, No Iterations 5
DILUPBiCGStab:  Solving for Uy, Initial residual = 0.0742358, Final residual = 1.97818e-10, No Iterations 5
DILUPBiCGStab:  Solving for Uz, Initial residual = 0.12797, Final residual = 4.91294e-10, No Iterations 5
linear solve U 10082
[OGL LOG] init_host_sparsity_pattern : 4 ms
[OGL LOG] matrix not stored update host matrix
[OGL LOG] update_host_mtx : 2 ms
[OGL LOG] matrix is not yet sorted, sorting host matrix
[OGL LOG] sort_host_mtx_sparsity_pattern : 2 ms
[OGL LOG] sort_host_mtx : 1 ms
[OGL LOG] init_preconditioner : 0 ms
[OGL LOG] solve : 74 ms
noneompGKOCG:  Solving for p, Initial residual = 0.0554572, Final residual = 9.0572e-05, No Iterations 170
linear solve p 86886
time step continuity errors : sum local = 7.19982e-08, global = -6.35254e-21, cumulative = 2.81875e-20
[OGL LOG] init_host_sparsity_pattern : 4 ms
[OGL LOG] matrix not stored update host matrix
[OGL LOG] update_host_mtx : 2 ms
[OGL LOG] matrix is not yet sorted, sorting host matrix
[OGL LOG] sort_host_mtx_sparsity_pattern : 3 ms
[OGL LOG] sort_host_mtx : 1 ms
[OGL LOG] init_preconditioner : 0 ms
[OGL LOG] solve : 73 ms
noneompGKOCG:  Solving for p, Initial residual = 0.0373451, Final residual = 9.04538e-05, No Iterations 166
linear solve p 85531
time step continuity errors : sum local = 7.33834e-08, global = 2.71565e-20, cumulative = 5.5344e-20
ExecutionTime = 1.02 s  ClockTime = 1 s

Time = 0.005

Courant Number mean: 0.0265076 max: 0.186526
DILUPBiCGStab:  Solving for Ux, Initial residual = 0.0351611, Final residual = 1.72273e-10, No Iterations 5
DILUPBiCGStab:  Solving for Uy, Initial residual = 0.0507153, Final residual = 1.02662e-10, No Iterations 5
DILUPBiCGStab:  Solving for Uz, Initial residual = 0.0901074, Final residual = 2.76573e-10, No Iterations 5
linear solve U 10158
[OGL LOG] init_host_sparsity_pattern : 4 ms
[OGL LOG] matrix not stored update host matrix
[OGL LOG] update_host_mtx : 2 ms
[OGL LOG] matrix is not yet sorted, sorting host matrix
[OGL LOG] sort_host_mtx_sparsity_pattern : 3 ms
[OGL LOG] sort_host_mtx : 1 ms
[OGL LOG] init_preconditioner : 0 ms
[OGL LOG] solve : 74 ms
noneompGKOCG:  Solving for p, Initial residual = 0.0349275, Final residual = 9.2305e-05, No Iterations 167
linear solve p 86965
time step continuity errors : sum local = 7.53178e-08, global = 2.64942e-20, cumulative = 8.18382e-20
[OGL LOG] init_host_sparsity_pattern : 4 ms
[OGL LOG] matrix not stored update host matrix
[OGL LOG] update_host_mtx : 2 ms
[OGL LOG] matrix is not yet sorted, sorting host matrix
[OGL LOG] sort_host_mtx_sparsity_pattern : 3 ms
[OGL LOG] sort_host_mtx : 1 ms
[OGL LOG] init_preconditioner : 0 ms
[OGL LOG] solve : 72 ms
noneompGKOCG:  Solving for p, Initial residual = 0.0231582, Final residual = 8.98801e-05, No Iterations 164
linear solve p 84323
time step continuity errors : sum local = 7.42459e-08, global = 1.34784e-20, cumulative = 9.53166e-20
ExecutionTime = 1.2 s  ClockTime = 1 s

Time = 0.006

Courant Number mean: 0.0289086 max: 0.193356
DILUPBiCGStab:  Solving for Ux, Initial residual = 0.0259585, Final residual = 7.7054e-11, No Iterations 5
DILUPBiCGStab:  Solving for Uy, Initial residual = 0.0379171, Final residual = 6.96117e-11, No Iterations 5
DILUPBiCGStab:  Solving for Uz, Initial residual = 0.069936, Final residual = 1.8121e-10, No Iterations 5
linear solve U 10192
[OGL LOG] init_host_sparsity_pattern : 4 ms
[OGL LOG] matrix not stored update host matrix
[OGL LOG] update_host_mtx : 2 ms
[OGL LOG] matrix is not yet sorted, sorting host matrix
[OGL LOG] sort_host_mtx_sparsity_pattern : 3 ms
[OGL LOG] sort_host_mtx : 1 ms
[OGL LOG] init_preconditioner : 0 ms
[OGL LOG] solve : 73 ms
noneompGKOCG:  Solving for p, Initial residual = 0.0243608, Final residual = 8.75085e-05, No Iterations 166
linear solve p 85427
time step continuity errors : sum local = 7.26698e-08, global = -1.67201e-20, cumulative = 7.85966e-20
[OGL LOG] init_host_sparsity_pattern : 4 ms
[OGL LOG] matrix not stored update host matrix
[OGL LOG] update_host_mtx : 2 ms
[OGL LOG] matrix is not yet sorted, sorting host matrix
[OGL LOG] sort_host_mtx_sparsity_pattern : 3 ms
[OGL LOG] sort_host_mtx : 1 ms
[OGL LOG] init_preconditioner : 0 ms
[OGL LOG] solve : 71 ms
noneompGKOCG:  Solving for p, Initial residual = 0.016302, Final residual = 8.54924e-05, No Iterations 162
linear solve p 83540
time step continuity errors : sum local = 7.15611e-08, global = 1.56026e-20, cumulative = 9.41992e-20
ExecutionTime = 1.38 s  ClockTime = 1 s

Time = 0.007

Courant Number mean: 0.0308445 max: 0.197909
DILUPBiCGStab:  Solving for Ux, Initial residual = 0.0203705, Final residual = 3.51616e-11, No Iterations 5
DILUPBiCGStab:  Solving for Uy, Initial residual = 0.0299598, Final residual = 5.19148e-11, No Iterations 5
DILUPBiCGStab:  Solving for Uz, Initial residual = 0.0568555, Final residual = 1.29428e-10, No Iterations 5
linear solve U 10138
[OGL LOG] init_host_sparsity_pattern : 4 ms
[OGL LOG] matrix not stored update host matrix
[OGL LOG] update_host_mtx : 2 ms
[OGL LOG] matrix is not yet sorted, sorting host matrix
[OGL LOG] sort_host_mtx_sparsity_pattern : 3 ms
[OGL LOG] sort_host_mtx : 1 ms
[OGL LOG] init_preconditioner : 0 ms
[OGL LOG] solve : 35 ms
noneompGKOCG:  Solving for p, Initial residual = 0.0185598, Final residual = 9.89735e-05, No Iterations 80
linear solve p 47882
time step continuity errors : sum local = 1.05347e-07, global = -2.48298e-20, cumulative = 6.93694e-20
[OGL LOG] init_host_sparsity_pattern : 4 ms
[OGL LOG] matrix not stored update host matrix
[OGL LOG] update_host_mtx : 2 ms
[OGL LOG] matrix is not yet sorted, sorting host matrix
[OGL LOG] sort_host_mtx_sparsity_pattern : 3 ms
[OGL LOG] sort_host_mtx : 1 ms
[OGL LOG] init_preconditioner : 0 ms
[OGL LOG] solve : 31 ms
noneompGKOCG:  Solving for p, Initial residual = 0.0125625, Final residual = 8.81776e-05, No Iterations 71
linear solve p 43811
time step continuity errors : sum local = 8.39367e-08, global = -5.42944e-22, cumulative = 6.88264e-20
ExecutionTime = 1.5 s  ClockTime = 1 s

Time = 0.008

Courant Number mean: 0.0324896 max: 0.201188
DILUPBiCGStab:  Solving for Ux, Initial residual = 0.0165316, Final residual = 1.96211e-11, No Iterations 5
DILUPBiCGStab:  Solving for Uy, Initial residual = 0.0245585, Final residual = 3.95554e-11, No Iterations 5
DILUPBiCGStab:  Solving for Uz, Initial residual = 0.0475398, Final residual = 9.59316e-11, No Iterations 5
linear solve U 10139
[OGL LOG] init_host_sparsity_pattern : 4 ms
[OGL LOG] matrix not stored update host matrix
[OGL LOG] update_host_mtx : 2 ms
[OGL LOG] matrix is not yet sorted, sorting host matrix
[OGL LOG] sort_host_mtx_sparsity_pattern : 3 ms
[OGL LOG] sort_host_mtx : 1 ms
[OGL LOG] init_preconditioner : 0 ms
[OGL LOG] solve : 32 ms
noneompGKOCG:  Solving for p, Initial residual = 0.0149084, Final residual = 9.7264e-05, No Iterations 74
linear solve p 45210
time step continuity errors : sum local = 1.05667e-07, global = 1.85341e-20, cumulative = 8.73605e-20
[OGL LOG] init_host_sparsity_pattern : 4 ms
[OGL LOG] matrix not stored update host matrix
[OGL LOG] update_host_mtx : 2 ms
[OGL LOG] matrix is not yet sorted, sorting host matrix
[OGL LOG] sort_host_mtx_sparsity_pattern : 3 ms
[OGL LOG] sort_host_mtx : 1 ms
[OGL LOG] init_preconditioner : 0 ms
[OGL LOG] solve : 30 ms
noneompGKOCG:  Solving for p, Initial residual = 0.0101556, Final residual = 9.59258e-05, No Iterations 69
linear solve p 42932
time step continuity errors : sum local = 9.61742e-08, global = 4.60785e-20, cumulative = 1.33439e-19
ExecutionTime = 1.6 s  ClockTime = 1 s

Time = 0.009

Courant Number mean: 0.0338931 max: 0.203683
DILUPBiCGStab:  Solving for Ux, Initial residual = 0.0137917, Final residual = 1.28036e-11, No Iterations 5
DILUPBiCGStab:  Solving for Uy, Initial residual = 0.0206407, Final residual = 3.02825e-11, No Iterations 5
DILUPBiCGStab:  Solving for Uz, Initial residual = 0.0405067, Final residual = 7.42219e-11, No Iterations 5
linear solve U 10118
[OGL LOG] init_host_sparsity_pattern : 4 ms
[OGL LOG] matrix not stored update host matrix
[OGL LOG] update_host_mtx : 2 ms
[OGL LOG] matrix is not yet sorted, sorting host matrix
[OGL LOG] sort_host_mtx_sparsity_pattern : 3 ms
[OGL LOG] sort_host_mtx : 1 ms
[OGL LOG] init_preconditioner : 0 ms
[OGL LOG] solve : 32 ms
noneompGKOCG:  Solving for p, Initial residual = 0.0123381, Final residual = 9.82889e-05, No Iterations 73
linear solve p 44782
time step continuity errors : sum local = 1.09769e-07, global = 6.73341e-20, cumulative = 2.00773e-19
[OGL LOG] init_host_sparsity_pattern : 4 ms
[OGL LOG] matrix not stored update host matrix
[OGL LOG] update_host_mtx : 2 ms
[OGL LOG] matrix is not yet sorted, sorting host matrix
[OGL LOG] sort_host_mtx_sparsity_pattern : 3 ms
[OGL LOG] sort_host_mtx : 1 ms
[OGL LOG] init_preconditioner : 0 ms
[OGL LOG] solve : 30 ms
noneompGKOCG:  Solving for p, Initial residual = 0.00845675, Final residual = 9.27277e-05, No Iterations 68
linear solve p 42563
time step continuity errors : sum local = 9.80386e-08, global = -4.99627e-21, cumulative = 1.95777e-19
ExecutionTime = 1.7 s  ClockTime = 1 s

Time = 0.01

Courant Number mean: 0.0351035 max: 0.205656
DILUPBiCGStab:  Solving for Ux, Initial residual = 0.0117256, Final residual = 9.29107e-12, No Iterations 5
DILUPBiCGStab:  Solving for Uy, Initial residual = 0.0176684, Final residual = 2.34319e-11, No Iterations 5
DILUPBiCGStab:  Solving for Uz, Initial residual = 0.035048, Final residual = 5.80612e-11, No Iterations 5
linear solve U 10110
[OGL LOG] init_host_sparsity_pattern : 4 ms
[OGL LOG] matrix not stored update host matrix
[OGL LOG] update_host_mtx : 2 ms
[OGL LOG] matrix is not yet sorted, sorting host matrix
[OGL LOG] sort_host_mtx_sparsity_pattern : 3 ms
[OGL LOG] sort_host_mtx : 1 ms
[OGL LOG] init_preconditioner : 0 ms
[OGL LOG] solve : 32 ms
noneompGKOCG:  Solving for p, Initial residual = 0.0104148, Final residual = 9.93684e-05, No Iterations 73
linear solve p 44744
time step continuity errors : sum local = 1.13201e-07, global = 9.22203e-21, cumulative = 2.04999e-19
[OGL LOG] init_host_sparsity_pattern : 4 ms
[OGL LOG] matrix not stored update host matrix
[OGL LOG] update_host_mtx : 2 ms
[OGL LOG] matrix is not yet sorted, sorting host matrix
[OGL LOG] sort_host_mtx_sparsity_pattern : 3 ms
[OGL LOG] sort_host_mtx : 1 ms
[OGL LOG] init_preconditioner : 0 ms
[OGL LOG] solve : 29 ms
noneompGKOCG:  Solving for p, Initial residual = 0.00717337, Final residual = 9.80503e-05, No Iterations 67
linear solve p 42054
time step continuity errors : sum local = 1.06304e-07, global = 2.71178e-20, cumulative = 2.32117e-19
ExecutionTime = 1.81 s  ClockTime = 1 s

End

