/*---------------------------------------------------------------------------*\
  =========                 |
  \\      /  F ield         | OpenFOAM: The Open Source CFD Toolbox
   \\    /   O peration     | Website:  https://openfoam.org
    \\  /    A nd           | Version:  8
     \\/     M anipulation  |
\*---------------------------------------------------------------------------*/
Build  : 8-14d69e1ee166
Exec   : icoFoam
Date   : Jul 29 2021
Time   : 03:51:24
Host   : "guyot.icl.utk.edu"
PID    : 90064
I/O    : uncollated
Case   : /home/greole/code/OBR/lidDrivenCavity3D/Variation_mesh/45/Variation_matrix_solver/CG_BJ_CUDA/base
nProcs : 1
sigFpe : Enabling floating point exception trapping (FOAM_SIGFPE).
fileModificationChecking : Monitoring run-time modified files using timeStampMaster (fileModificationSkew 10)
allowSystemOperations : Allowing user-supplied system call operations

// * * * * * * * * * * * * * * * * * * * * * * * * * * * * * * * * * * * * * //
Create time

Create mesh for time = 0

Reading transportProperties

Reading field p

Reading field U

Reading/calculating face flux field phi


Starting time loop

Time = 0.001

Courant Number mean: 0 max: 0
DILUPBiCGStab:  Solving for Ux, Initial residual = 1, Final residual = 4.36896e-05, No Iterations 5
DILUPBiCGStab:  Solving for Uy:  solution singularity
DILUPBiCGStab:  Solving for Uz:  solution singularity
linear solve U 35046
[OGL LOG] init_host_sparsity_pattern : 40 ms
[OGL LOG] matrix not stored update host matrix
[OGL LOG] update_host_mtx : 20 ms
[OGL LOG] matrix is not yet sorted, compute sorting idxs
[OGL LOG] compute_sort : 826 ms
[OGL LOG] matrix is not yet sorted, sorting host matrix
[OGL LOG] sort_host_mtx_sparsity_pattern : 16 ms
[OGL LOG] sort_host_mtx : 10 ms
[OGL LOG] init_preconditioner : 14 ms
 CG create  precond 
[OGL LOG] solve : 67 ms
BJcudaGKOCG:  Solving for p, Initial residual = 1, Final residual = 9.96242e-05, No Iterations 296
linear solve p 2635242
time step continuity errors : sum local = 5.70598e-08, global = 4.95737e-21, cumulative = 4.95737e-21
[OGL LOG] init_host_sparsity_pattern : 36 ms
[OGL LOG] matrix not stored update host matrix
[OGL LOG] update_host_mtx : 18 ms
[OGL LOG] matrix is not yet sorted, sorting host matrix
[OGL LOG] sort_host_mtx_sparsity_pattern : 15 ms
[OGL LOG] sort_host_mtx : 8 ms
[OGL LOG] init_preconditioner : 0 ms
 CG create  precond 
[OGL LOG] solve : 64 ms
BJcudaGKOCG:  Solving for p, Initial residual = 0.634892, Final residual = 9.45946e-05, No Iterations 289
linear solve p 150544
time step continuity errors : sum local = 7.82254e-08, global = 3.90603e-21, cumulative = 8.8634e-21
ExecutionTime = 3.26 s  ClockTime = 4 s

Time = 0.002

Courant Number mean: 0.024462 max: 0.283008
DILUPBiCGStab:  Solving for Ux, Initial residual = 0.172563, Final residual = 9.21344e-06, No Iterations 5
DILUPBiCGStab:  Solving for Uy, Initial residual = 0.303007, Final residual = 1.34752e-05, No Iterations 5
DILUPBiCGStab:  Solving for Uz, Initial residual = 0.966786, Final residual = 5.39082e-05, No Iterations 5
linear solve U 63013
[OGL LOG] init_host_sparsity_pattern : 36 ms
[OGL LOG] matrix not stored update host matrix
[OGL LOG] update_host_mtx : 18 ms
[OGL LOG] matrix is not yet sorted, sorting host matrix
[OGL LOG] sort_host_mtx_sparsity_pattern : 14 ms
[OGL LOG] sort_host_mtx : 8 ms
[OGL LOG] init_preconditioner : 0 ms
 CG create  precond 
[OGL LOG] solve : 61 ms
BJcudaGKOCG:  Solving for p, Initial residual = 0.502445, Final residual = 9.53563e-05, No Iterations 274
linear solve p 146032
time step continuity errors : sum local = 7.6178e-08, global = -3.43523e-21, cumulative = 5.42817e-21
[OGL LOG] init_host_sparsity_pattern : 36 ms
[OGL LOG] matrix not stored update host matrix
[OGL LOG] update_host_mtx : 18 ms
[OGL LOG] matrix is not yet sorted, sorting host matrix
[OGL LOG] sort_host_mtx_sparsity_pattern : 14 ms
[OGL LOG] sort_host_mtx : 8 ms
[OGL LOG] init_preconditioner : 0 ms
 CG create  precond 
[OGL LOG] solve : 61 ms
BJcudaGKOCG:  Solving for p, Initial residual = 0.411852, Final residual = 8.70256e-05, No Iterations 273
linear solve p 145815
time step continuity errors : sum local = 7.21023e-08, global = 3.17087e-20, cumulative = 3.71369e-20
ExecutionTime = 3.67 s  ClockTime = 4 s

Time = 0.003

Courant Number mean: 0.0369603 max: 0.358123
DILUPBiCGStab:  Solving for Ux, Initial residual = 0.0596413, Final residual = 3.42624e-06, No Iterations 5
DILUPBiCGStab:  Solving for Uy, Initial residual = 0.101747, Final residual = 2.3897e-06, No Iterations 5
DILUPBiCGStab:  Solving for Uz, Initial residual = 0.132688, Final residual = 6.3527e-06, No Iterations 5
linear solve U 63096
[OGL LOG] init_host_sparsity_pattern : 36 ms
[OGL LOG] matrix not stored update host matrix
[OGL LOG] update_host_mtx : 18 ms
[OGL LOG] matrix is not yet sorted, sorting host matrix
[OGL LOG] sort_host_mtx_sparsity_pattern : 14 ms
[OGL LOG] sort_host_mtx : 8 ms
[OGL LOG] init_preconditioner : 0 ms
 CG create  precond 
[OGL LOG] solve : 58 ms
BJcudaGKOCG:  Solving for p, Initial residual = 0.230402, Final residual = 9.89286e-05, No Iterations 258
linear solve p 142768
time step continuity errors : sum local = 6.00092e-08, global = 2.56865e-21, cumulative = 3.97055e-20
[OGL LOG] init_host_sparsity_pattern : 36 ms
[OGL LOG] matrix not stored update host matrix
[OGL LOG] update_host_mtx : 18 ms
[OGL LOG] matrix is not yet sorted, sorting host matrix
[OGL LOG] sort_host_mtx_sparsity_pattern : 14 ms
[OGL LOG] sort_host_mtx : 8 ms
[OGL LOG] init_preconditioner : 0 ms
 CG create  precond 
[OGL LOG] solve : 57 ms
BJcudaGKOCG:  Solving for p, Initial residual = 0.185941, Final residual = 9.68443e-05, No Iterations 257
linear solve p 141476
time step continuity errors : sum local = 5.80512e-08, global = -4.63499e-22, cumulative = 3.9242e-20
ExecutionTime = 4.06 s  ClockTime = 5 s

Time = 0.004

Courant Number mean: 0.0442727 max: 0.378746
DILUPBiCGStab:  Solving for Ux, Initial residual = 0.0352227, Final residual = 8.30036e-07, No Iterations 5
DILUPBiCGStab:  Solving for Uy, Initial residual = 0.0646879, Final residual = 1.3947e-06, No Iterations 5
DILUPBiCGStab:  Solving for Uz, Initial residual = 0.110094, Final residual = 4.02028e-06, No Iterations 5
linear solve U 63242
[OGL LOG] init_host_sparsity_pattern : 36 ms
[OGL LOG] matrix not stored update host matrix
[OGL LOG] update_host_mtx : 18 ms
[OGL LOG] matrix is not yet sorted, sorting host matrix
[OGL LOG] sort_host_mtx_sparsity_pattern : 14 ms
[OGL LOG] sort_host_mtx : 8 ms
[OGL LOG] init_preconditioner : 0 ms
 CG create  precond 
[OGL LOG] solve : 57 ms
BJcudaGKOCG:  Solving for p, Initial residual = 0.110917, Final residual = 9.49816e-05, No Iterations 254
linear solve p 141525
time step continuity errors : sum local = 5.53089e-08, global = -4.43867e-22, cumulative = 3.87982e-20
[OGL LOG] init_host_sparsity_pattern : 36 ms
[OGL LOG] matrix not stored update host matrix
[OGL LOG] update_host_mtx : 18 ms
[OGL LOG] matrix is not yet sorted, sorting host matrix
[OGL LOG] sort_host_mtx_sparsity_pattern : 14 ms
[OGL LOG] sort_host_mtx : 8 ms
[OGL LOG] init_preconditioner : 0 ms
 CG create  precond 
[OGL LOG] solve : 56 ms
BJcudaGKOCG:  Solving for p, Initial residual = 0.08749, Final residual = 9.56419e-05, No Iterations 252
linear solve p 140794
time step continuity errors : sum local = 5.63839e-08, global = 6.04198e-21, cumulative = 4.48401e-20
ExecutionTime = 4.44 s  ClockTime = 5 s

Time = 0.005

Courant Number mean: 0.0495667 max: 0.388679
DILUPBiCGStab:  Solving for Ux, Initial residual = 0.0246451, Final residual = 2.72495e-07, No Iterations 5
DILUPBiCGStab:  Solving for Uy, Initial residual = 0.0448006, Final residual = 7.79581e-07, No Iterations 5
DILUPBiCGStab:  Solving for Uz, Initial residual = 0.0752036, Final residual = 1.61179e-06, No Iterations 5
linear solve U 63230
[OGL LOG] init_host_sparsity_pattern : 36 ms
[OGL LOG] matrix not stored update host matrix
[OGL LOG] update_host_mtx : 18 ms
[OGL LOG] matrix is not yet sorted, sorting host matrix
[OGL LOG] sort_host_mtx_sparsity_pattern : 14 ms
[OGL LOG] sort_host_mtx : 8 ms
[OGL LOG] init_preconditioner : 0 ms
 CG create  precond 
[OGL LOG] solve : 55 ms
BJcudaGKOCG:  Solving for p, Initial residual = 0.0544058, Final residual = 9.3044e-05, No Iterations 247
linear solve p 141127
time step continuity errors : sum local = 5.31983e-08, global = 2.18266e-21, cumulative = 4.70228e-20
[OGL LOG] init_host_sparsity_pattern : 36 ms
[OGL LOG] matrix not stored update host matrix
[OGL LOG] update_host_mtx : 18 ms
[OGL LOG] matrix is not yet sorted, sorting host matrix
[OGL LOG] sort_host_mtx_sparsity_pattern : 14 ms
[OGL LOG] sort_host_mtx : 8 ms
[OGL LOG] init_preconditioner : 0 ms
 CG create  precond 
[OGL LOG] solve : 55 ms
BJcudaGKOCG:  Solving for p, Initial residual = 0.0447811, Final residual = 8.82067e-05, No Iterations 246
linear solve p 139443
time step continuity errors : sum local = 5.0539e-08, global = 1.37089e-20, cumulative = 6.07317e-20
ExecutionTime = 4.84 s  ClockTime = 5 s

Time = 0.006

Courant Number mean: 0.0537211 max: 0.394649
DILUPBiCGStab:  Solving for Ux, Initial residual = 0.0187073, Final residual = 1.48281e-07, No Iterations 5
DILUPBiCGStab:  Solving for Uy, Initial residual = 0.0343185, Final residual = 3.0318e-07, No Iterations 5
DILUPBiCGStab:  Solving for Uz, Initial residual = 0.0587882, Final residual = 9.52971e-07, No Iterations 5
linear solve U 63177
[OGL LOG] init_host_sparsity_pattern : 36 ms
[OGL LOG] matrix not stored update host matrix
[OGL LOG] update_host_mtx : 18 ms
[OGL LOG] matrix is not yet sorted, sorting host matrix
[OGL LOG] sort_host_mtx_sparsity_pattern : 14 ms
[OGL LOG] sort_host_mtx : 8 ms
[OGL LOG] init_preconditioner : 0 ms
 CG create  precond 
[OGL LOG] solve : 29 ms
BJcudaGKOCG:  Solving for p, Initial residual = 0.0353089, Final residual = 9.69684e-05, No Iterations 125
linear solve p 113466
time step continuity errors : sum local = 6.86256e-08, global = -4.2162e-20, cumulative = 1.85697e-20
[OGL LOG] init_host_sparsity_pattern : 36 ms
[OGL LOG] matrix not stored update host matrix
[OGL LOG] update_host_mtx : 18 ms
[OGL LOG] matrix is not yet sorted, sorting host matrix
[OGL LOG] sort_host_mtx_sparsity_pattern : 14 ms
[OGL LOG] sort_host_mtx : 8 ms
[OGL LOG] init_preconditioner : 0 ms
 CG create  precond 
[OGL LOG] solve : 27 ms
BJcudaGKOCG:  Solving for p, Initial residual = 0.0293064, Final residual = 9.98782e-05, No Iterations 115
linear solve p 111138
time step continuity errors : sum local = 6.15328e-08, global = 2.48654e-20, cumulative = 4.34351e-20
ExecutionTime = 5.16 s  ClockTime = 6 s

Time = 0.007

Courant Number mean: 0.0570782 max: 0.398759
DILUPBiCGStab:  Solving for Ux, Initial residual = 0.0148973, Final residual = 9.71752e-08, No Iterations 5
DILUPBiCGStab:  Solving for Uy, Initial residual = 0.0274899, Final residual = 2.15733e-07, No Iterations 5
DILUPBiCGStab:  Solving for Uz, Initial residual = 0.0485296, Final residual = 5.83446e-07, No Iterations 5
linear solve U 63458
[OGL LOG] init_host_sparsity_pattern : 36 ms
[OGL LOG] matrix not stored update host matrix
[OGL LOG] update_host_mtx : 18 ms
[OGL LOG] matrix is not yet sorted, sorting host matrix
[OGL LOG] sort_host_mtx_sparsity_pattern : 14 ms
[OGL LOG] sort_host_mtx : 8 ms
[OGL LOG] init_preconditioner : 0 ms
 CG create  precond 
[OGL LOG] solve : 26 ms
BJcudaGKOCG:  Solving for p, Initial residual = 0.0259815, Final residual = 9.07146e-05, No Iterations 115
linear solve p 112314
time step continuity errors : sum local = 5.86319e-08, global = 8.06213e-21, cumulative = 5.14972e-20
[OGL LOG] init_host_sparsity_pattern : 36 ms
[OGL LOG] matrix not stored update host matrix
[OGL LOG] update_host_mtx : 18 ms
[OGL LOG] matrix is not yet sorted, sorting host matrix
[OGL LOG] sort_host_mtx_sparsity_pattern : 14 ms
[OGL LOG] sort_host_mtx : 8 ms
[OGL LOG] init_preconditioner : 0 ms
 CG create  precond 
[OGL LOG] solve : 26 ms
BJcudaGKOCG:  Solving for p, Initial residual = 0.0221997, Final residual = 9.25641e-05, No Iterations 113
linear solve p 111233
time step continuity errors : sum local = 5.66561e-08, global = -2.30045e-20, cumulative = 2.84928e-20
ExecutionTime = 5.49 s  ClockTime = 6 s

Time = 0.008

Courant Number mean: 0.0599096 max: 0.401788
DILUPBiCGStab:  Solving for Ux, Initial residual = 0.0122586, Final residual = 7.93206e-08, No Iterations 5
DILUPBiCGStab:  Solving for Uy, Initial residual = 0.0227548, Final residual = 1.11217e-07, No Iterations 5
DILUPBiCGStab:  Solving for Uz, Initial residual = 0.0408274, Final residual = 3.99936e-07, No Iterations 5
linear solve U 63226
[OGL LOG] init_host_sparsity_pattern : 36 ms
[OGL LOG] matrix not stored update host matrix
[OGL LOG] update_host_mtx : 18 ms
[OGL LOG] matrix is not yet sorted, sorting host matrix
[OGL LOG] sort_host_mtx_sparsity_pattern : 14 ms
[OGL LOG] sort_host_mtx : 8 ms
[OGL LOG] init_preconditioner : 0 ms
 CG create  precond 
[OGL LOG] solve : 26 ms
BJcudaGKOCG:  Solving for p, Initial residual = 0.0196495, Final residual = 9.48676e-05, No Iterations 114
linear solve p 111563
time step continuity errors : sum local = 6.45459e-08, global = 1.46167e-20, cumulative = 4.31095e-20
[OGL LOG] init_host_sparsity_pattern : 36 ms
[OGL LOG] matrix not stored update host matrix
[OGL LOG] update_host_mtx : 18 ms
[OGL LOG] matrix is not yet sorted, sorting host matrix
[OGL LOG] sort_host_mtx_sparsity_pattern : 14 ms
[OGL LOG] sort_host_mtx : 8 ms
[OGL LOG] init_preconditioner : 0 ms
 CG create  precond 
[OGL LOG] solve : 25 ms
BJcudaGKOCG:  Solving for p, Initial residual = 0.0170347, Final residual = 9.7255e-05, No Iterations 110
linear solve p 109991
time step continuity errors : sum local = 6.11516e-08, global = 8.29137e-21, cumulative = 5.14009e-20
ExecutionTime = 5.82 s  ClockTime = 6 s

Time = 0.009

Courant Number mean: 0.0623368 max: 0.404135
DILUPBiCGStab:  Solving for Ux, Initial residual = 0.0103063, Final residual = 6.62789e-08, No Iterations 5
DILUPBiCGStab:  Solving for Uy, Initial residual = 0.0192494, Final residual = 9.05749e-08, No Iterations 5
DILUPBiCGStab:  Solving for Uz, Initial residual = 0.0351702, Final residual = 2.99536e-07, No Iterations 5
linear solve U 63651
[OGL LOG] init_host_sparsity_pattern : 36 ms
[OGL LOG] matrix not stored update host matrix
[OGL LOG] update_host_mtx : 18 ms
[OGL LOG] matrix is not yet sorted, sorting host matrix
[OGL LOG] sort_host_mtx_sparsity_pattern : 14 ms
[OGL LOG] sort_host_mtx : 8 ms
[OGL LOG] init_preconditioner : 0 ms
 CG create  precond 
[OGL LOG] solve : 26 ms
BJcudaGKOCG:  Solving for p, Initial residual = 0.0164151, Final residual = 9.16988e-05, No Iterations 111
linear solve p 110871
time step continuity errors : sum local = 6.04727e-08, global = 1.2419e-20, cumulative = 6.38198e-20
[OGL LOG] init_host_sparsity_pattern : 36 ms
[OGL LOG] matrix not stored update host matrix
[OGL LOG] update_host_mtx : 18 ms
[OGL LOG] matrix is not yet sorted, sorting host matrix
[OGL LOG] sort_host_mtx_sparsity_pattern : 14 ms
[OGL LOG] sort_host_mtx : 8 ms
[OGL LOG] init_preconditioner : 0 ms
 CG create  precond 
[OGL LOG] solve : 25 ms
BJcudaGKOCG:  Solving for p, Initial residual = 0.0143709, Final residual = 9.91216e-05, No Iterations 108
linear solve p 109360
time step continuity errors : sum local = 6.23135e-08, global = -7.3777e-21, cumulative = 5.64421e-20
ExecutionTime = 6.14 s  ClockTime = 7 s

Time = 0.01

Courant Number mean: 0.0644326 max: 0.406011
DILUPBiCGStab:  Solving for Ux, Initial residual = 0.00881672, Final residual = 6.08667e-08, No Iterations 5
DILUPBiCGStab:  Solving for Uy, Initial residual = 0.0165578, Final residual = 6.41001e-08, No Iterations 5
DILUPBiCGStab:  Solving for Uz, Initial residual = 0.030677, Final residual = 2.26339e-07, No Iterations 5
linear solve U 69268
[OGL LOG] init_host_sparsity_pattern : 36 ms
[OGL LOG] matrix not stored update host matrix
[OGL LOG] update_host_mtx : 18 ms
[OGL LOG] matrix is not yet sorted, sorting host matrix
[OGL LOG] sort_host_mtx_sparsity_pattern : 14 ms
[OGL LOG] sort_host_mtx : 8 ms
[OGL LOG] init_preconditioner : 0 ms
 CG create  precond 
[OGL LOG] solve : 25 ms
BJcudaGKOCG:  Solving for p, Initial residual = 0.0138262, Final residual = 9.11618e-05, No Iterations 110
linear solve p 110326
time step continuity errors : sum local = 6.16391e-08, global = 1.15032e-20, cumulative = 6.79453e-20
[OGL LOG] init_host_sparsity_pattern : 36 ms
[OGL LOG] matrix not stored update host matrix
[OGL LOG] update_host_mtx : 18 ms
[OGL LOG] matrix is not yet sorted, sorting host matrix
[OGL LOG] sort_host_mtx_sparsity_pattern : 14 ms
[OGL LOG] sort_host_mtx : 9 ms
[OGL LOG] init_preconditioner : 0 ms
 CG create  precond 
[OGL LOG] solve : 24 ms
BJcudaGKOCG:  Solving for p, Initial residual = 0.0121379, Final residual = 9.96343e-05, No Iterations 104
linear solve p 108423
time step continuity errors : sum local = 6.35831e-08, global = 3.64661e-21, cumulative = 7.15919e-20
ExecutionTime = 6.47 s  ClockTime = 7 s

End

