/*---------------------------------------------------------------------------*\
  =========                 |
  \\      /  F ield         | OpenFOAM: The Open Source CFD Toolbox
   \\    /   O peration     | Website:  https://openfoam.org
    \\  /    A nd           | Version:  8
     \\/     M anipulation  |
\*---------------------------------------------------------------------------*/
Build  : 8-40a5a48f630f
Exec   : icoFoam
Date   : Jul 28 2021
Time   : 11:43:51
Host   : "uc2n446.localdomain"
PID    : 378246
I/O    : uncollated
Case   : /pfs/data5/home/kit/scc/nq7776/code/OBR/lidDrivenCavity3D/Variation_mesh/90/Variation_matrix_solver/BiCGStab_BJ_OMP/base
nProcs : 1
sigFpe : Enabling floating point exception trapping (FOAM_SIGFPE).
fileModificationChecking : Monitoring run-time modified files using timeStampMaster (fileModificationSkew 10)
allowSystemOperations : Allowing user-supplied system call operations

// * * * * * * * * * * * * * * * * * * * * * * * * * * * * * * * * * * * * * //
Create time

Create mesh for time = 0

Reading transportProperties

Reading field p

Reading field U

Reading/calculating face flux field phi


Starting time loop

Time = 0.001

Courant Number mean: 0 max: 0
nonePBiCGStab:  Solving for Ux, Initial residual = 1, Final residual = 0.0756268, No Iterations 5
nonePBiCGStab:  Solving for Uy, Initial residual = 0, Final residual = 0, No Iterations 0
nonePBiCGStab:  Solving for Uz, Initial residual = 0, Final residual = 0, No Iterations 0
linear solve U 187
[OGL LOG] init_host_sparsity_pattern : 207 ms
[OGL LOG] matrix not stored update host matrix
[OGL LOG] update_host_mtx : 110 ms
[OGL LOG] matrix is not yet sorted, compute sorting idxs
[OGL LOG] compute_sort : 6526 ms
[OGL LOG] matrix is not yet sorted, sorting host matrix
[OGL LOG] sort_host_mtx_sparsity_pattern : 150 ms
[OGL LOG] sort_host_mtx : 89 ms
[OGL LOG] init_preconditioner : 47 ms
[OGL LOG] solve : 16264 ms
BJompGKOBiCGStab:  Solving for p, Initial residual = 1, Final residual = 8.64788e-05, No Iterations 485
linear solve p 23559
time step continuity errors : sum local = 6.75104e-08, global = -7.35084e-21, cumulative = -7.35084e-21
[OGL LOG] init_host_sparsity_pattern : 208 ms
[OGL LOG] matrix not stored update host matrix
[OGL LOG] update_host_mtx : 107 ms
[OGL LOG] matrix is not yet sorted, sorting host matrix
[OGL LOG] sort_host_mtx_sparsity_pattern : 154 ms
[OGL LOG] sort_host_mtx : 89 ms
[OGL LOG] init_preconditioner : 0 ms
[OGL LOG] solve : 15128 ms
BJompGKOBiCGStab:  Solving for p, Initial residual = 0.701132, Final residual = 9.69855e-05, No Iterations 448
linear solve p 15810
time step continuity errors : sum local = 1.4212e-07, global = 6.037e-22, cumulative = -6.74714e-21
ExecutionTime = 168.05 s  ClockTime = 43 s

regIOobject::readIfModified() : 
    Re-reading object controlDict from file "/pfs/data5/home/kit/scc/nq7776/code/OBR/lidDrivenCavity3D/Variation_mesh/90/Variation_matrix_solver/BiCGStab_BJ_OMP/base/system/controlDict"
Time = 0.002

Courant Number mean: 0.0401009 max: 0.699777
nonePBiCGStab:  Solving for Ux, Initial residual = 0.140413, Final residual = 0.0352795, No Iterations 5
nonePBiCGStab:  Solving for Uy, Initial residual = 0.428673, Final residual = 0.104698, No Iterations 5
nonePBiCGStab:  Solving for Uz, Initial residual = 0.978406, Final residual = 0.28112, No Iterations 5
linear solve U 380
[OGL LOG] init_host_sparsity_pattern : 198 ms
[OGL LOG] matrix not stored update host matrix
[OGL LOG] update_host_mtx : 107 ms
[OGL LOG] matrix is not yet sorted, sorting host matrix
[OGL LOG] sort_host_mtx_sparsity_pattern : 150 ms
[OGL LOG] sort_host_mtx : 89 ms
[OGL LOG] init_preconditioner : 0 ms
[OGL LOG] solve : 14932 ms
BJompGKOBiCGStab:  Solving for p, Initial residual = 0.764409, Final residual = 9.82208e-05, No Iterations 451
linear solve p 15587
time step continuity errors : sum local = 2.47286e-07, global = 9.15326e-21, cumulative = 2.40612e-21
[OGL LOG] init_host_sparsity_pattern : 207 ms
[OGL LOG] matrix not stored update host matrix
[OGL LOG] update_host_mtx : 107 ms
[OGL LOG] matrix is not yet sorted, sorting host matrix
[OGL LOG] sort_host_mtx_sparsity_pattern : 154 ms
[OGL LOG] sort_host_mtx : 90 ms
[OGL LOG] init_preconditioner : 0 ms
[OGL LOG] solve : 14027 ms
BJompGKOBiCGStab:  Solving for p, Initial residual = 0.686736, Final residual = 7.05961e-05, No Iterations 417
linear solve p 14710
time step continuity errors : sum local = 2.38526e-06, global = -8.03212e-22, cumulative = 1.6029e-21
ExecutionTime = 314.72 s  ClockTime = 74 s

Time = 0.003

Courant Number mean: 0.0633509 max: 0.801231
nonePBiCGStab:  Solving for Ux, Initial residual = 0.0594101, Final residual = 0.0123584, No Iterations 5
nonePBiCGStab:  Solving for Uy, Initial residual = 0.184624, Final residual = 0.0488644, No Iterations 5
nonePBiCGStab:  Solving for Uz, Initial residual = 0.688128, Final residual = 0.222554, No Iterations 5
linear solve U 386
[OGL LOG] init_host_sparsity_pattern : 202 ms
[OGL LOG] matrix not stored update host matrix
[OGL LOG] update_host_mtx : 110 ms
[OGL LOG] matrix is not yet sorted, sorting host matrix
[OGL LOG] sort_host_mtx_sparsity_pattern : 155 ms
[OGL LOG] sort_host_mtx : 90 ms
[OGL LOG] init_preconditioner : 0 ms
[OGL LOG] solve : 14434 ms
BJompGKOBiCGStab:  Solving for p, Initial residual = 0.755543, Final residual = 9.48941e-05, No Iterations 427
linear solve p 15113
time step continuity errors : sum local = 7.2654e-08, global = -4.84831e-21, cumulative = -3.2454e-21
[OGL LOG] init_host_sparsity_pattern : 197 ms
[OGL LOG] matrix not stored update host matrix
[OGL LOG] update_host_mtx : 107 ms
[OGL LOG] matrix is not yet sorted, sorting host matrix
[OGL LOG] sort_host_mtx_sparsity_pattern : 155 ms
[OGL LOG] sort_host_mtx : 89 ms
[OGL LOG] init_preconditioner : 0 ms
[OGL LOG] solve : 13870 ms
BJompGKOBiCGStab:  Solving for p, Initial residual = 0.684726, Final residual = 6.02309e-05, No Iterations 414
linear solve p 14539
time step continuity errors : sum local = 4.36249e-08, global = -2.01424e-21, cumulative = -5.25964e-21
ExecutionTime = 458.22 s  ClockTime = 105 s

regIOobject::readIfModified() : 
    Re-reading object controlDict from file "/pfs/data5/home/kit/scc/nq7776/code/OBR/lidDrivenCavity3D/Variation_mesh/90/Variation_matrix_solver/BiCGStab_BJ_OMP/base/system/controlDict"
Time = 0.004

Courant Number mean: 0.0762345 max: 0.816861
nonePBiCGStab:  Solving for Ux, Initial residual = 0.036813, Final residual = 0.00804315, No Iterations 5
nonePBiCGStab:  Solving for Uy, Initial residual = 0.128072, Final residual = 0.0357822, No Iterations 5
nonePBiCGStab:  Solving for Uz, Initial residual = 0.456831, Final residual = 0.116575, No Iterations 5
linear solve U 382
[OGL LOG] init_host_sparsity_pattern : 200 ms
[OGL LOG] matrix not stored update host matrix
[OGL LOG] update_host_mtx : 108 ms
[OGL LOG] matrix is not yet sorted, sorting host matrix
[OGL LOG] sort_host_mtx_sparsity_pattern : 151 ms
[OGL LOG] sort_host_mtx : 89 ms
[OGL LOG] init_preconditioner : 0 ms
[OGL LOG] solve : 12924 ms
BJompGKOBiCGStab:  Solving for p, Initial residual = 0.650929, Final residual = 9.86366e-05, No Iterations 384
linear solve p 13586
time step continuity errors : sum local = 7.68339e-08, global = -1.58737e-21, cumulative = -6.847e-21
[OGL LOG] init_host_sparsity_pattern : 197 ms
[OGL LOG] matrix not stored update host matrix
[OGL LOG] update_host_mtx : 109 ms
[OGL LOG] matrix is not yet sorted, sorting host matrix
[OGL LOG] sort_host_mtx_sparsity_pattern : 155 ms
[OGL LOG] sort_host_mtx : 89 ms
[OGL LOG] init_preconditioner : 0 ms
[OGL LOG] solve : 13291 ms
BJompGKOBiCGStab:  Solving for p, Initial residual = 0.559016, Final residual = 8.30524e-05, No Iterations 394
linear solve p 13961
time step continuity errors : sum local = 6.27313e-08, global = 1.8145e-20, cumulative = 1.1298e-20
ExecutionTime = 591.26 s  ClockTime = 133 s

Time = 0.005

Courant Number mean: 0.0866308 max: 0.829188
nonePBiCGStab:  Solving for Ux, Initial residual = 0.0273819, Final residual = 0.00599387, No Iterations 5
nonePBiCGStab:  Solving for Uy, Initial residual = 0.082989, Final residual = 0.0259217, No Iterations 5
nonePBiCGStab:  Solving for Uz, Initial residual = 0.274374, Final residual = 0.0734817, No Iterations 5
linear solve U 381
[OGL LOG] init_host_sparsity_pattern : 201 ms
[OGL LOG] matrix not stored update host matrix
[OGL LOG] update_host_mtx : 108 ms
[OGL LOG] matrix is not yet sorted, sorting host matrix
[OGL LOG] sort_host_mtx_sparsity_pattern : 150 ms
[OGL LOG] sort_host_mtx : 90 ms
[OGL LOG] init_preconditioner : 0 ms
[OGL LOG] solve : 10966 ms
BJompGKOBiCGStab:  Solving for p, Initial residual = 0.680908, Final residual = 8.66188e-05, No Iterations 326
linear solve p 11626
time step continuity errors : sum local = 1.26839e-06, global = 1.17075e-20, cumulative = 2.30055e-20
[OGL LOG] init_host_sparsity_pattern : 197 ms
[OGL LOG] matrix not stored update host matrix
[OGL LOG] update_host_mtx : 108 ms
[OGL LOG] matrix is not yet sorted, sorting host matrix
[OGL LOG] sort_host_mtx_sparsity_pattern : 155 ms
[OGL LOG] sort_host_mtx : 89 ms
[OGL LOG] init_preconditioner : 0 ms
[OGL LOG] solve : 6394 ms
BJompGKOBiCGStab:  Solving for p, Initial residual = 0.601191, Final residual = 8.68993e-05, No Iterations 189
linear solve p 7063
time step continuity errors : sum local = 8.13273e-08, global = -4.31105e-21, cumulative = 1.86944e-20
ExecutionTime = 680.1 s  ClockTime = 153 s

Time = 0.006

Courant Number mean: 0.0947063 max: 0.835943
nonePBiCGStab:  Solving for Ux, Initial residual = 0.0213652, Final residual = 0.00497763, No Iterations 5
nonePBiCGStab:  Solving for Uy, Initial residual = 0.0658773, Final residual = 0.0193092, No Iterations 5
nonePBiCGStab:  Solving for Uz, Initial residual = 0.222165, Final residual = 0.0693781, No Iterations 5
linear solve U 381
[OGL LOG] init_host_sparsity_pattern : 200 ms
[OGL LOG] matrix not stored update host matrix
[OGL LOG] update_host_mtx : 108 ms
[OGL LOG] matrix is not yet sorted, sorting host matrix
[OGL LOG] sort_host_mtx_sparsity_pattern : 151 ms
[OGL LOG] sort_host_mtx : 89 ms
[OGL LOG] init_preconditioner : 0 ms
[OGL LOG] solve : 15348 ms
BJompGKOBiCGStab:  Solving for p, Initial residual = 0.60036, Final residual = 6.02459e-05, No Iterations 454
linear solve p 16008
time step continuity errors : sum local = 7.5219e-08, global = -1.54976e-20, cumulative = 3.19685e-21
[OGL LOG] init_host_sparsity_pattern : 197 ms
[OGL LOG] matrix not stored update host matrix
[OGL LOG] update_host_mtx : 107 ms
[OGL LOG] matrix is not yet sorted, sorting host matrix
[OGL LOG] sort_host_mtx_sparsity_pattern : 155 ms
[OGL LOG] sort_host_mtx : 89 ms
[OGL LOG] init_preconditioner : 0 ms
[OGL LOG] solve : 14567 ms
BJompGKOBiCGStab:  Solving for p, Initial residual = 0.513512, Final residual = 5.67241e-05, No Iterations 434
linear solve p 15236
time step continuity errors : sum local = 7.22082e-08, global = -1.5593e-20, cumulative = -1.23962e-20
ExecutionTime = 831.57 s  ClockTime = 185 s

Time = 0.007

Courant Number mean: 0.101545 max: 0.841257
nonePBiCGStab:  Solving for Ux, Initial residual = 0.0177402, Final residual = 0.00393028, No Iterations 5
nonePBiCGStab:  Solving for Uy, Initial residual = 0.0509682, Final residual = 0.0156816, No Iterations 5
nonePBiCGStab:  Solving for Uz, Initial residual = 0.179878, Final residual = 0.0518025, No Iterations 5
linear solve U 381
[OGL LOG] init_host_sparsity_pattern : 200 ms
[OGL LOG] matrix not stored update host matrix
[OGL LOG] update_host_mtx : 107 ms
[OGL LOG] matrix is not yet sorted, sorting host matrix
[OGL LOG] sort_host_mtx_sparsity_pattern : 150 ms
[OGL LOG] sort_host_mtx : 89 ms
[OGL LOG] init_preconditioner : 0 ms
[OGL LOG] solve : 11818 ms
BJompGKOBiCGStab:  Solving for p, Initial residual = 0.636898, Final residual = 9.99883e-05, No Iterations 350
linear solve p 12476
time step continuity errors : sum local = 5.89505e-08, global = 9.13597e-22, cumulative = -1.14826e-20
[OGL LOG] init_host_sparsity_pattern : 197 ms
[OGL LOG] matrix not stored update host matrix
[OGL LOG] update_host_mtx : 107 ms
[OGL LOG] matrix is not yet sorted, sorting host matrix
[OGL LOG] sort_host_mtx_sparsity_pattern : 155 ms
[OGL LOG] sort_host_mtx : 89 ms
[OGL LOG] init_preconditioner : 0 ms
[OGL LOG] solve : 13486 ms
BJompGKOBiCGStab:  Solving for p, Initial residual = 0.551564, Final residual = 7.54675e-05, No Iterations 401
linear solve p 14154
time step continuity errors : sum local = 7.58517e-08, global = 1.21042e-20, cumulative = 6.21634e-22
ExecutionTime = 960.04 s  ClockTime = 212 s

Time = 0.008

Courant Number mean: 0.107355 max: 0.844992
nonePBiCGStab:  Solving for Ux, Initial residual = 0.0149839, Final residual = 0.00346919, No Iterations 5
nonePBiCGStab:  Solving for Uy, Initial residual = 0.0434446, Final residual = 0.0114823, No Iterations 5
nonePBiCGStab:  Solving for Uz, Initial residual = 0.152836, Final residual = 0.0445126, No Iterations 5
linear solve U 381
[OGL LOG] init_host_sparsity_pattern : 200 ms
[OGL LOG] matrix not stored update host matrix
[OGL LOG] update_host_mtx : 107 ms
[OGL LOG] matrix is not yet sorted, sorting host matrix
[OGL LOG] sort_host_mtx_sparsity_pattern : 151 ms
[OGL LOG] sort_host_mtx : 89 ms
[OGL LOG] init_preconditioner : 0 ms
[OGL LOG] solve : 12787 ms
BJompGKOBiCGStab:  Solving for p, Initial residual = 0.578163, Final residual = 8.27436e-05, No Iterations 378
linear solve p 13446
time step continuity errors : sum local = 2.65599e-07, global = 8.73594e-21, cumulative = 9.35758e-21
[OGL LOG] init_host_sparsity_pattern : 194 ms
[OGL LOG] matrix not stored update host matrix
[OGL LOG] update_host_mtx : 107 ms
[OGL LOG] matrix is not yet sorted, sorting host matrix
[OGL LOG] sort_host_mtx_sparsity_pattern : 150 ms
[OGL LOG] sort_host_mtx : 89 ms
[OGL LOG] init_preconditioner : 0 ms
[OGL LOG] solve : 5706 ms
BJompGKOBiCGStab:  Solving for p, Initial residual = 0.49338, Final residual = 9.36166e-05, No Iterations 169
linear solve p 6355
time step continuity errors : sum local = 1.1413e-07, global = 4.99732e-21, cumulative = 1.43549e-20
ExecutionTime = 1054.52 s  ClockTime = 233 s

Time = 0.009

Courant Number mean: 0.112492 max: 0.848145
nonePBiCGStab:  Solving for Ux, Initial residual = 0.0130598, Final residual = 0.00274533, No Iterations 5
nonePBiCGStab:  Solving for Uy, Initial residual = 0.0369818, Final residual = 0.0103592, No Iterations 5
nonePBiCGStab:  Solving for Uz, Initial residual = 0.144401, Final residual = 0.0477332, No Iterations 5
linear solve U 380
[OGL LOG] init_host_sparsity_pattern : 200 ms
[OGL LOG] matrix not stored update host matrix
[OGL LOG] update_host_mtx : 108 ms
[OGL LOG] matrix is not yet sorted, sorting host matrix
[OGL LOG] sort_host_mtx_sparsity_pattern : 151 ms
[OGL LOG] sort_host_mtx : 89 ms
[OGL LOG] init_preconditioner : 0 ms
[OGL LOG] solve : 14082 ms
BJompGKOBiCGStab:  Solving for p, Initial residual = 0.606634, Final residual = 2.31527e-05, No Iterations 419
linear solve p 14739
time step continuity errors : sum local = 9.12153e-07, global = 1.21716e-20, cumulative = 2.65265e-20
[OGL LOG] init_host_sparsity_pattern : 197 ms
[OGL LOG] matrix not stored update host matrix
[OGL LOG] update_host_mtx : 108 ms
[OGL LOG] matrix is not yet sorted, sorting host matrix
[OGL LOG] sort_host_mtx_sparsity_pattern : 156 ms
[OGL LOG] sort_host_mtx : 89 ms
[OGL LOG] init_preconditioner : 0 ms
[OGL LOG] solve : 12769 ms
BJompGKOBiCGStab:  Solving for p, Initial residual = 0.520615, Final residual = 8.12664e-05, No Iterations 379
linear solve p 13437
time step continuity errors : sum local = 5.05727e-08, global = 2.08267e-20, cumulative = 4.73532e-20
ExecutionTime = 1190.66 s  ClockTime = 262 s

Time = 0.01

Courant Number mean: 0.116991 max: 0.850419
nonePBiCGStab:  Solving for Ux, Initial residual = 0.0124903, Final residual = 0.00262898, No Iterations 5
nonePBiCGStab:  Solving for Uy, Initial residual = 0.0329338, Final residual = 0.00876359, No Iterations 5
nonePBiCGStab:  Solving for Uz, Initial residual = 0.128143, Final residual = 0.0392519, No Iterations 5
linear solve U 381
[OGL LOG] init_host_sparsity_pattern : 201 ms
[OGL LOG] matrix not stored update host matrix
[OGL LOG] update_host_mtx : 107 ms
[OGL LOG] matrix is not yet sorted, sorting host matrix
[OGL LOG] sort_host_mtx_sparsity_pattern : 150 ms
[OGL LOG] sort_host_mtx : 89 ms
[OGL LOG] init_preconditioner : 0 ms
[OGL LOG] solve : 13368 ms
BJompGKOBiCGStab:  Solving for p, Initial residual = 0.562871, Final residual = 8.08334e-05, No Iterations 395
linear solve p 14025
time step continuity errors : sum local = 3.40638e-07, global = 3.05161e-21, cumulative = 5.04048e-20
[OGL LOG] init_host_sparsity_pattern : 193 ms
[OGL LOG] matrix not stored update host matrix
[OGL LOG] update_host_mtx : 108 ms
[OGL LOG] matrix is not yet sorted, sorting host matrix
[OGL LOG] sort_host_mtx_sparsity_pattern : 150 ms
[OGL LOG] sort_host_mtx : 89 ms
[OGL LOG] init_preconditioner : 0 ms
[OGL LOG] solve : 13585 ms
BJompGKOBiCGStab:  Solving for p, Initial residual = 0.48156, Final residual = 2.2514e-05, No Iterations 402
linear solve p 14233
time step continuity errors : sum local = 1.77266e-07, global = 8.28083e-21, cumulative = 5.86857e-20
ExecutionTime = 1327.33 s  ClockTime = 291 s

End

