/*---------------------------------------------------------------------------*\
  =========                 |
  \\      /  F ield         | OpenFOAM: The Open Source CFD Toolbox
   \\    /   O peration     | Website:  https://openfoam.org
    \\  /    A nd           | Version:  8
     \\/     M anipulation  |
\*---------------------------------------------------------------------------*/
Build  : 8-ef60d22ea792
Exec   : icoFoam
Date   : Jul 28 2021
Time   : 17:04:34
Host   : "nla-gpu2.ianm.kit.edu"
PID    : 1552027
I/O    : uncollated
Case   : /home/greole/code/OBR/lidDrivenCavity3D/Variation_mesh/90/Variation_matrix_solver/CG_NoPrecond_Serial/base
nProcs : 1
sigFpe : Enabling floating point exception trapping (FOAM_SIGFPE).
fileModificationChecking : Monitoring run-time modified files using timeStampMaster (fileModificationSkew 10)
allowSystemOperations : Allowing user-supplied system call operations

// * * * * * * * * * * * * * * * * * * * * * * * * * * * * * * * * * * * * * //
Create time

Create mesh for time = 0

Reading transportProperties

Reading field p

Reading field U

Reading/calculating face flux field phi


Starting time loop

Time = 0.001

Courant Number mean: 0 max: 0
DILUPBiCGStab:  Solving for Ux, Initial residual = 1, Final residual = 0.00485432, No Iterations 5
DILUPBiCGStab:  Solving for Uy:  solution singularity
DILUPBiCGStab:  Solving for Uz:  solution singularity
linear solve U 301902
nonePCG:  Solving for p, Initial residual = 1, Final residual = 9.85679e-05, No Iterations 711
linear solve p 6050978
time step continuity errors : sum local = 5.72884e-08, global = 9.73751e-21, cumulative = 9.73751e-21
nonePCG:  Solving for p, Initial residual = 0.763276, Final residual = 9.46732e-05, No Iterations 703
linear solve p 6001515
time step continuity errors : sum local = 7.03911e-08, global = 9.46889e-21, cumulative = 1.92064e-20
ExecutionTime = 15.88 s  ClockTime = 16 s

Time = 0.002

Courant Number mean: 0.0507368 max: 0.709498
DILUPBiCGStab:  Solving for Ux, Initial residual = 0.142057, Final residual = 0.00197772, No Iterations 5
DILUPBiCGStab:  Solving for Uy, Initial residual = 0.4084, Final residual = 0.00514583, No Iterations 5
DILUPBiCGStab:  Solving for Uz, Initial residual = 0.989072, Final residual = 0.0136213, No Iterations 5
linear solve U 582490
nonePCG:  Solving for p, Initial residual = 0.7657, Final residual = 9.62474e-05, No Iterations 699
linear solve p 5955436
time step continuity errors : sum local = 9.23126e-08, global = 2.36796e-21, cumulative = 2.15744e-20
nonePCG:  Solving for p, Initial residual = 0.702781, Final residual = 9.83806e-05, No Iterations 697
linear solve p 5939272
time step continuity errors : sum local = 9.62991e-08, global = 3.1461e-21, cumulative = 2.47204e-20
ExecutionTime = 28.66 s  ClockTime = 29 s

Time = 0.003

Courant Number mean: 0.0767031 max: 0.830946
DILUPBiCGStab:  Solving for Ux, Initial residual = 0.0602985, Final residual = 0.000670331, No Iterations 5
DILUPBiCGStab:  Solving for Uy, Initial residual = 0.181407, Final residual = 0.00183522, No Iterations 5
DILUPBiCGStab:  Solving for Uz, Initial residual = 0.759578, Final residual = 0.00948897, No Iterations 5
linear solve U 586974
nonePCG:  Solving for p, Initial residual = 0.780729, Final residual = 9.27901e-05, No Iterations 417
linear solve p 3546800
time step continuity errors : sum local = 8.0765e-08, global = 4.44324e-21, cumulative = 2.91637e-20
nonePCG:  Solving for p, Initial residual = 0.744089, Final residual = 9.44901e-05, No Iterations 414
linear solve p 3530490
time step continuity errors : sum local = 7.66382e-08, global = -7.20973e-21, cumulative = 2.1954e-20
ExecutionTime = 36.63 s  ClockTime = 37 s

Time = 0.004

Courant Number mean: 0.0889413 max: 0.827781
DILUPBiCGStab:  Solving for Ux, Initial residual = 0.0330542, Final residual = 0.000439117, No Iterations 5
DILUPBiCGStab:  Solving for Uy, Initial residual = 0.130021, Final residual = 0.00153316, No Iterations 5
DILUPBiCGStab:  Solving for Uz, Initial residual = 0.52174, Final residual = 0.00551887, No Iterations 5
linear solve U 580849
nonePCG:  Solving for p, Initial residual = 0.65244, Final residual = 9.56901e-05, No Iterations 413
linear solve p 3553945
time step continuity errors : sum local = 7.13517e-08, global = 3.00878e-21, cumulative = 2.49627e-20
nonePCG:  Solving for p, Initial residual = 0.587031, Final residual = 9.95205e-05, No Iterations 380
linear solve p 3244134
time step continuity errors : sum local = 7.32139e-08, global = 5.9813e-21, cumulative = 3.0944e-20
ExecutionTime = 44.33 s  ClockTime = 45 s

Time = 0.005

Courant Number mean: 0.0998624 max: 0.839552
DILUPBiCGStab:  Solving for Ux, Initial residual = 0.0250795, Final residual = 0.000294946, No Iterations 5
DILUPBiCGStab:  Solving for Uy, Initial residual = 0.0681954, Final residual = 0.000857018, No Iterations 5
DILUPBiCGStab:  Solving for Uz, Initial residual = 0.371497, Final residual = 0.0037312, No Iterations 5
linear solve U 580418
nonePCG:  Solving for p, Initial residual = 0.628399, Final residual = 9.8092e-05, No Iterations 379
linear solve p 3258935
time step continuity errors : sum local = 6.41284e-08, global = 5.55184e-21, cumulative = 3.64959e-20
nonePCG:  Solving for p, Initial residual = 0.57645, Final residual = 9.79865e-05, No Iterations 342
linear solve p 2940482
time step continuity errors : sum local = 5.78439e-08, global = -1.22252e-21, cumulative = 3.52734e-20
ExecutionTime = 51.44 s  ClockTime = 52 s

Time = 0.006

Courant Number mean: 0.107709 max: 0.845129
DILUPBiCGStab:  Solving for Ux, Initial residual = 0.0160723, Final residual = 0.000182571, No Iterations 5
DILUPBiCGStab:  Solving for Uy, Initial residual = 0.055882, Final residual = 0.000624266, No Iterations 5
DILUPBiCGStab:  Solving for Uz, Initial residual = 0.263888, Final residual = 0.00274743, No Iterations 5
linear solve U 580919
nonePCG:  Solving for p, Initial residual = 0.49447, Final residual = 9.95614e-05, No Iterations 364
linear solve p 3105266
time step continuity errors : sum local = 5.67338e-08, global = 1.31855e-21, cumulative = 3.65919e-20
nonePCG:  Solving for p, Initial residual = 0.438709, Final residual = 9.77887e-05, No Iterations 357
linear solve p 3069734
time step continuity errors : sum local = 5.20982e-08, global = -1.12753e-20, cumulative = 2.53166e-20
ExecutionTime = 58.51 s  ClockTime = 59 s

Time = 0.007

Courant Number mean: 0.114495 max: 0.84854
DILUPBiCGStab:  Solving for Ux, Initial residual = 0.0136091, Final residual = 0.000136626, No Iterations 5
DILUPBiCGStab:  Solving for Uy, Initial residual = 0.0360613, Final residual = 0.000312378, No Iterations 5
DILUPBiCGStab:  Solving for Uz, Initial residual = 0.172899, Final residual = 0.00203043, No Iterations 5
linear solve U 582684
nonePCG:  Solving for p, Initial residual = 0.455243, Final residual = 9.68717e-05, No Iterations 683
linear solve p 5808983
time step continuity errors : sum local = 4.26681e-08, global = 1.29852e-20, cumulative = 3.83018e-20
nonePCG:  Solving for p, Initial residual = 0.402165, Final residual = 9.66636e-05, No Iterations 682
linear solve p 5848174
time step continuity errors : sum local = 4.24508e-08, global = -1.26158e-20, cumulative = 2.5686e-20
ExecutionTime = 71.04 s  ClockTime = 72 s

Time = 0.008

Courant Number mean: 0.120057 max: 0.852063
DILUPBiCGStab:  Solving for Ux, Initial residual = 0.00997134, Final residual = 8.95777e-05, No Iterations 5
DILUPBiCGStab:  Solving for Uy, Initial residual = 0.0308018, Final residual = 0.000267769, No Iterations 5
DILUPBiCGStab:  Solving for Uz, Initial residual = 0.131656, Final residual = 0.00148669, No Iterations 5
linear solve U 582206
nonePCG:  Solving for p, Initial residual = 0.351167, Final residual = 9.87631e-05, No Iterations 325
linear solve p 2771851
time step continuity errors : sum local = 4.63892e-08, global = -2.08226e-21, cumulative = 2.36037e-20
nonePCG:  Solving for p, Initial residual = 0.306395, Final residual = 9.87465e-05, No Iterations 322
linear solve p 2769666
time step continuity errors : sum local = 4.37525e-08, global = -1.60088e-20, cumulative = 7.59492e-21
ExecutionTime = 77.49 s  ClockTime = 78 s

Time = 0.009

Courant Number mean: 0.124912 max: 0.853937
DILUPBiCGStab:  Solving for Ux, Initial residual = 0.00859392, Final residual = 6.82828e-05, No Iterations 5
DILUPBiCGStab:  Solving for Uy, Initial residual = 0.0226757, Final residual = 0.000134505, No Iterations 5
DILUPBiCGStab:  Solving for Uz, Initial residual = 0.0877651, Final residual = 0.00116663, No Iterations 5
linear solve U 581104
nonePCG:  Solving for p, Initial residual = 0.307063, Final residual = 9.88406e-05, No Iterations 664
linear solve p 5645315
time step continuity errors : sum local = 3.82192e-08, global = 8.8291e-22, cumulative = 8.47783e-21
nonePCG:  Solving for p, Initial residual = 0.265761, Final residual = 9.95221e-05, No Iterations 661
linear solve p 5672034
time step continuity errors : sum local = 3.85076e-08, global = -1.10786e-20, cumulative = -2.60072e-21
ExecutionTime = 89.69 s  ClockTime = 91 s

Time = 0.01

Courant Number mean: 0.129095 max: 0.856125
DILUPBiCGStab:  Solving for Ux, Initial residual = 0.00687222, Final residual = 4.81819e-05, No Iterations 5
DILUPBiCGStab:  Solving for Uy, Initial residual = 0.0198355, Final residual = 0.00012015, No Iterations 5
DILUPBiCGStab:  Solving for Uz, Initial residual = 0.0718144, Final residual = 0.000854148, No Iterations 5
linear solve U 581962
nonePCG:  Solving for p, Initial residual = 0.240565, Final residual = 9.56695e-05, No Iterations 321
linear solve p 2738610
time step continuity errors : sum local = 3.89312e-08, global = 1.69011e-21, cumulative = -9.10609e-22
nonePCG:  Solving for p, Initial residual = 0.207572, Final residual = 9.89664e-05, No Iterations 318
linear solve p 2746034
time step continuity errors : sum local = 3.81986e-08, global = -2.56656e-21, cumulative = -3.47717e-21
ExecutionTime = 96.07 s  ClockTime = 97 s

End

