/*---------------------------------------------------------------------------*\
  =========                 |
  \\      /  F ield         | OpenFOAM: The Open Source CFD Toolbox
   \\    /   O peration     | Website:  https://openfoam.org
    \\  /    A nd           | Version:  8
     \\/     M anipulation  |
\*---------------------------------------------------------------------------*/
Build  : 8-ef60d22ea792
Exec   : icoFoam
Date   : Jul 29 2021
Time   : 07:59:23
Host   : "nla-gpu2.ianm.kit.edu"
PID    : 1969230
I/O    : uncollated
Case   : /home/greole/code/OBR/lidDrivenCavity3D/Variation_mesh/50/Variation_matrix_solver/CG_NoPrecond_HIP/base
nProcs : 1
sigFpe : Enabling floating point exception trapping (FOAM_SIGFPE).
fileModificationChecking : Monitoring run-time modified files using timeStampMaster (fileModificationSkew 10)
allowSystemOperations : Allowing user-supplied system call operations

// * * * * * * * * * * * * * * * * * * * * * * * * * * * * * * * * * * * * * //
Create time

Create mesh for time = 0

Reading transportProperties

Reading field p

Reading field U

Reading/calculating face flux field phi


Starting time loop

Time = 0.001

Courant Number mean: 0 max: 0
DILUPBiCGStab:  Solving for Ux, Initial residual = 1, Final residual = 0.000120903, No Iterations 5
DILUPBiCGStab:  Solving for Uy:  solution singularity
DILUPBiCGStab:  Solving for Uz:  solution singularity
linear solve U 49668
[OGL LOG] init_host_sparsity_pattern : 59 ms
[OGL LOG] matrix not stored update host matrix
[OGL LOG] update_host_mtx : 30 ms
[OGL LOG] matrix is not yet sorted, compute sorting idxs
[OGL LOG] compute_sort : 1127 ms
[OGL LOG] matrix is not yet sorted, sorting host matrix
[OGL LOG] sort_host_mtx_sparsity_pattern : 25 ms
[OGL LOG] sort_host_mtx : 16 ms
[OGL LOG] init_preconditioner : 0 ms
[OGL LOG] solve : 114 ms
nonehipGKOCG:  Solving for p, Initial residual = 1, Final residual = 9.3208e-05, No Iterations 389
linear solve p 1809821
time step continuity errors : sum local = 5.39374e-08, global = -4.71112e-21, cumulative = -4.71112e-21
[OGL LOG] init_host_sparsity_pattern : 57 ms
[OGL LOG] matrix not stored update host matrix
[OGL LOG] update_host_mtx : 28 ms
[OGL LOG] matrix is not yet sorted, sorting host matrix
[OGL LOG] sort_host_mtx_sparsity_pattern : 22 ms
[OGL LOG] sort_host_mtx : 13 ms
[OGL LOG] init_preconditioner : 0 ms
[OGL LOG] solve : 85 ms
nonehipGKOCG:  Solving for p, Initial residual = 0.658359, Final residual = 8.88421e-05, No Iterations 384
linear solve p 214026
time step continuity errors : sum local = 7.26799e-08, global = -2.22164e-21, cumulative = -6.93276e-21
ExecutionTime = 2.84 s  ClockTime = 3 s

Time = 0.002

Courant Number mean: 0.027493 max: 0.32948
DILUPBiCGStab:  Solving for Ux, Initial residual = 0.167076, Final residual = 2.7982e-05, No Iterations 5
DILUPBiCGStab:  Solving for Uy, Initial residual = 0.31525, Final residual = 4.21819e-05, No Iterations 5
DILUPBiCGStab:  Solving for Uz, Initial residual = 0.972832, Final residual = 0.000171025, No Iterations 5
linear solve U 94970
[OGL LOG] init_host_sparsity_pattern : 55 ms
[OGL LOG] matrix not stored update host matrix
[OGL LOG] update_host_mtx : 27 ms
[OGL LOG] matrix is not yet sorted, sorting host matrix
[OGL LOG] sort_host_mtx_sparsity_pattern : 22 ms
[OGL LOG] sort_host_mtx : 13 ms
[OGL LOG] init_preconditioner : 0 ms
[OGL LOG] solve : 84 ms
nonehipGKOCG:  Solving for p, Initial residual = 0.543044, Final residual = 9.60054e-05, No Iterations 381
linear solve p 210729
time step continuity errors : sum local = 7.71186e-08, global = -8.90667e-22, cumulative = -7.82342e-21
[OGL LOG] init_host_sparsity_pattern : 56 ms
[OGL LOG] matrix not stored update host matrix
[OGL LOG] update_host_mtx : 28 ms
[OGL LOG] matrix is not yet sorted, sorting host matrix
[OGL LOG] sort_host_mtx_sparsity_pattern : 22 ms
[OGL LOG] sort_host_mtx : 13 ms
[OGL LOG] init_preconditioner : 0 ms
[OGL LOG] solve : 83 ms
nonehipGKOCG:  Solving for p, Initial residual = 0.456892, Final residual = 9.98602e-05, No Iterations 379
linear solve p 212056
time step continuity errors : sum local = 8.29152e-08, global = -2.67818e-21, cumulative = -1.05016e-20
ExecutionTime = 3.55 s  ClockTime = 4 s

Time = 0.003

Courant Number mean: 0.0414301 max: 0.409638
DILUPBiCGStab:  Solving for Ux, Initial residual = 0.0555309, Final residual = 8.56967e-06, No Iterations 5
DILUPBiCGStab:  Solving for Uy, Initial residual = 0.0997776, Final residual = 9.93971e-06, No Iterations 5
DILUPBiCGStab:  Solving for Uz, Initial residual = 0.13524, Final residual = 1.56047e-05, No Iterations 5
linear solve U 93684
[OGL LOG] init_host_sparsity_pattern : 56 ms
[OGL LOG] matrix not stored update host matrix
[OGL LOG] update_host_mtx : 28 ms
[OGL LOG] matrix is not yet sorted, sorting host matrix
[OGL LOG] sort_host_mtx_sparsity_pattern : 22 ms
[OGL LOG] sort_host_mtx : 13 ms
[OGL LOG] init_preconditioner : 0 ms
[OGL LOG] solve : 80 ms
nonehipGKOCG:  Solving for p, Initial residual = 0.30921, Final residual = 9.69057e-05, No Iterations 363
linear solve p 208441
time step continuity errors : sum local = 5.61705e-08, global = 3.51713e-21, cumulative = -6.98447e-21
[OGL LOG] init_host_sparsity_pattern : 57 ms
[OGL LOG] matrix not stored update host matrix
[OGL LOG] update_host_mtx : 30 ms
[OGL LOG] matrix is not yet sorted, sorting host matrix
[OGL LOG] sort_host_mtx_sparsity_pattern : 22 ms
[OGL LOG] sort_host_mtx : 13 ms
[OGL LOG] init_preconditioner : 0 ms
[OGL LOG] solve : 79 ms
nonehipGKOCG:  Solving for p, Initial residual = 0.258214, Final residual = 9.36323e-05, No Iterations 361
linear solve p 210454
time step continuity errors : sum local = 5.32583e-08, global = 2.76622e-21, cumulative = -4.21826e-21
ExecutionTime = 4.27 s  ClockTime = 4 s

Time = 0.004

Courant Number mean: 0.049393 max: 0.429157
DILUPBiCGStab:  Solving for Ux, Initial residual = 0.0329814, Final residual = 2.25573e-06, No Iterations 5
DILUPBiCGStab:  Solving for Uy, Initial residual = 0.0643017, Final residual = 4.37478e-06, No Iterations 5
DILUPBiCGStab:  Solving for Uz, Initial residual = 0.118588, Final residual = 1.49059e-05, No Iterations 5
linear solve U 94274
[OGL LOG] init_host_sparsity_pattern : 56 ms
[OGL LOG] matrix not stored update host matrix
[OGL LOG] update_host_mtx : 28 ms
[OGL LOG] matrix is not yet sorted, sorting host matrix
[OGL LOG] sort_host_mtx_sparsity_pattern : 22 ms
[OGL LOG] sort_host_mtx : 13 ms
[OGL LOG] init_preconditioner : 0 ms
[OGL LOG] solve : 78 ms
nonehipGKOCG:  Solving for p, Initial residual = 0.147006, Final residual = 9.83747e-05, No Iterations 353
linear solve p 206182
time step continuity errors : sum local = 5.43905e-08, global = -5.10604e-21, cumulative = -9.32429e-21
[OGL LOG] init_host_sparsity_pattern : 57 ms
[OGL LOG] matrix not stored update host matrix
[OGL LOG] update_host_mtx : 30 ms
[OGL LOG] matrix is not yet sorted, sorting host matrix
[OGL LOG] sort_host_mtx_sparsity_pattern : 25 ms
[OGL LOG] sort_host_mtx : 13 ms
[OGL LOG] init_preconditioner : 0 ms
[OGL LOG] solve : 77 ms
nonehipGKOCG:  Solving for p, Initial residual = 0.117097, Final residual = 9.93526e-05, No Iterations 349
linear solve p 213731
time step continuity errors : sum local = 5.55877e-08, global = 5.84196e-23, cumulative = -9.26587e-21
ExecutionTime = 4.97 s  ClockTime = 5 s

Time = 0.005

Courant Number mean: 0.0552654 max: 0.438882
DILUPBiCGStab:  Solving for Ux, Initial residual = 0.0231871, Final residual = 1.13219e-06, No Iterations 5
DILUPBiCGStab:  Solving for Uy, Initial residual = 0.0443369, Final residual = 2.62517e-06, No Iterations 5
DILUPBiCGStab:  Solving for Uz, Initial residual = 0.0748098, Final residual = 6.41037e-06, No Iterations 5
linear solve U 94803
[OGL LOG] init_host_sparsity_pattern : 56 ms
[OGL LOG] matrix not stored update host matrix
[OGL LOG] update_host_mtx : 29 ms
[OGL LOG] matrix is not yet sorted, sorting host matrix
[OGL LOG] sort_host_mtx_sparsity_pattern : 22 ms
[OGL LOG] sort_host_mtx : 13 ms
[OGL LOG] init_preconditioner : 0 ms
[OGL LOG] solve : 76 ms
nonehipGKOCG:  Solving for p, Initial residual = 0.0741141, Final residual = 9.80539e-05, No Iterations 344
linear solve p 205741
time step continuity errors : sum local = 5.21116e-08, global = -6.82093e-21, cumulative = -1.60868e-20
[OGL LOG] init_host_sparsity_pattern : 57 ms
[OGL LOG] matrix not stored update host matrix
[OGL LOG] update_host_mtx : 29 ms
[OGL LOG] matrix is not yet sorted, sorting host matrix
[OGL LOG] sort_host_mtx_sparsity_pattern : 22 ms
[OGL LOG] sort_host_mtx : 13 ms
[OGL LOG] init_preconditioner : 0 ms
[OGL LOG] solve : 75 ms
nonehipGKOCG:  Solving for p, Initial residual = 0.0610028, Final residual = 9.37542e-05, No Iterations 343
linear solve p 206040
time step continuity errors : sum local = 4.9835e-08, global = -6.43872e-21, cumulative = -2.25255e-20
ExecutionTime = 5.67 s  ClockTime = 5 s

Time = 0.006

Courant Number mean: 0.0598382 max: 0.444769
DILUPBiCGStab:  Solving for Ux, Initial residual = 0.0176068, Final residual = 7.51472e-07, No Iterations 5
DILUPBiCGStab:  Solving for Uy, Initial residual = 0.0339597, Final residual = 1.23619e-06, No Iterations 5
DILUPBiCGStab:  Solving for Uz, Initial residual = 0.0589232, Final residual = 3.73076e-06, No Iterations 5
linear solve U 93091
[OGL LOG] init_host_sparsity_pattern : 55 ms
[OGL LOG] matrix not stored update host matrix
[OGL LOG] update_host_mtx : 29 ms
[OGL LOG] matrix is not yet sorted, sorting host matrix
[OGL LOG] sort_host_mtx_sparsity_pattern : 22 ms
[OGL LOG] sort_host_mtx : 13 ms
[OGL LOG] init_preconditioner : 0 ms
[OGL LOG] solve : 75 ms
nonehipGKOCG:  Solving for p, Initial residual = 0.0464147, Final residual = 9.21489e-05, No Iterations 342
linear solve p 203909
time step continuity errors : sum local = 4.85769e-08, global = 1.76742e-20, cumulative = -4.85127e-21
[OGL LOG] init_host_sparsity_pattern : 57 ms
[OGL LOG] matrix not stored update host matrix
[OGL LOG] update_host_mtx : 29 ms
[OGL LOG] matrix is not yet sorted, sorting host matrix
[OGL LOG] sort_host_mtx_sparsity_pattern : 22 ms
[OGL LOG] sort_host_mtx : 13 ms
[OGL LOG] init_preconditioner : 0 ms
[OGL LOG] solve : 38 ms
nonehipGKOCG:  Solving for p, Initial residual = 0.0383588, Final residual = 9.79734e-05, No Iterations 170
linear solve p 167770
time step continuity errors : sum local = 6.27751e-08, global = -2.67289e-20, cumulative = -3.15802e-20
ExecutionTime = 6.29 s  ClockTime = 6 s

Time = 0.007

Courant Number mean: 0.063583 max: 0.448842
DILUPBiCGStab:  Solving for Ux, Initial residual = 0.0140347, Final residual = 6.46968e-07, No Iterations 5
DILUPBiCGStab:  Solving for Uy, Initial residual = 0.0272412, Final residual = 7.65094e-07, No Iterations 5
DILUPBiCGStab:  Solving for Uz, Initial residual = 0.0490849, Final residual = 2.36215e-06, No Iterations 5
linear solve U 92991
[OGL LOG] init_host_sparsity_pattern : 59 ms
[OGL LOG] matrix not stored update host matrix
[OGL LOG] update_host_mtx : 30 ms
[OGL LOG] matrix is not yet sorted, sorting host matrix
[OGL LOG] sort_host_mtx_sparsity_pattern : 23 ms
[OGL LOG] sort_host_mtx : 13 ms
[OGL LOG] init_preconditioner : 0 ms
[OGL LOG] solve : 75 ms
nonehipGKOCG:  Solving for p, Initial residual = 0.0312128, Final residual = 9.9032e-05, No Iterations 340
linear solve p 210835
time step continuity errors : sum local = 5.21807e-08, global = -1.18598e-20, cumulative = -4.344e-20
[OGL LOG] init_host_sparsity_pattern : 57 ms
[OGL LOG] matrix not stored update host matrix
[OGL LOG] update_host_mtx : 28 ms
[OGL LOG] matrix is not yet sorted, sorting host matrix
[OGL LOG] sort_host_mtx_sparsity_pattern : 22 ms
[OGL LOG] sort_host_mtx : 13 ms
[OGL LOG] init_preconditioner : 0 ms
[OGL LOG] solve : 34 ms
nonehipGKOCG:  Solving for p, Initial residual = 0.0267109, Final residual = 9.99457e-05, No Iterations 156
linear solve p 162882
time step continuity errors : sum local = 5.76449e-08, global = -1.55104e-20, cumulative = -5.89504e-20
ExecutionTime = 6.91 s  ClockTime = 6 s

Time = 0.008

Courant Number mean: 0.066697 max: 0.45185
DILUPBiCGStab:  Solving for Ux, Initial residual = 0.0115712, Final residual = 5.69368e-07, No Iterations 5
DILUPBiCGStab:  Solving for Uy, Initial residual = 0.0225003, Final residual = 4.42911e-07, No Iterations 5
DILUPBiCGStab:  Solving for Uz, Initial residual = 0.0416156, Final residual = 1.64383e-06, No Iterations 5
linear solve U 93792
[OGL LOG] init_host_sparsity_pattern : 56 ms
[OGL LOG] matrix not stored update host matrix
[OGL LOG] update_host_mtx : 28 ms
[OGL LOG] matrix is not yet sorted, sorting host matrix
[OGL LOG] sort_host_mtx_sparsity_pattern : 22 ms
[OGL LOG] sort_host_mtx : 13 ms
[OGL LOG] init_preconditioner : 0 ms
[OGL LOG] solve : 74 ms
nonehipGKOCG:  Solving for p, Initial residual = 0.0224539, Final residual = 9.24433e-05, No Iterations 338
linear solve p 202961
time step continuity errors : sum local = 4.87274e-08, global = 1.4922e-20, cumulative = -4.40283e-20
[OGL LOG] init_host_sparsity_pattern : 57 ms
[OGL LOG] matrix not stored update host matrix
[OGL LOG] update_host_mtx : 27 ms
[OGL LOG] matrix is not yet sorted, sorting host matrix
[OGL LOG] sort_host_mtx_sparsity_pattern : 22 ms
[OGL LOG] sort_host_mtx : 13 ms
[OGL LOG] init_preconditioner : 0 ms
[OGL LOG] solve : 74 ms
nonehipGKOCG:  Solving for p, Initial residual = 0.0195509, Final residual = 9.80787e-05, No Iterations 336
linear solve p 202797
time step continuity errors : sum local = 5.18089e-08, global = 1.24046e-21, cumulative = -4.27879e-20
ExecutionTime = 7.6 s  ClockTime = 7 s

Time = 0.009

Courant Number mean: 0.0693805 max: 0.454186
DILUPBiCGStab:  Solving for Ux, Initial residual = 0.00972788, Final residual = 4.53897e-07, No Iterations 5
DILUPBiCGStab:  Solving for Uy, Initial residual = 0.019047, Final residual = 3.01319e-07, No Iterations 5
DILUPBiCGStab:  Solving for Uz, Initial residual = 0.0352893, Final residual = 1.0937e-06, No Iterations 5
linear solve U 92856
[OGL LOG] init_host_sparsity_pattern : 56 ms
[OGL LOG] matrix not stored update host matrix
[OGL LOG] update_host_mtx : 28 ms
[OGL LOG] matrix is not yet sorted, sorting host matrix
[OGL LOG] sort_host_mtx_sparsity_pattern : 22 ms
[OGL LOG] sort_host_mtx : 13 ms
[OGL LOG] init_preconditioner : 0 ms
[OGL LOG] solve : 33 ms
nonehipGKOCG:  Solving for p, Initial residual = 0.0181548, Final residual = 9.97615e-05, No Iterations 151
linear solve p 162893
time step continuity errors : sum local = 5.54796e-08, global = 1.87055e-20, cumulative = -2.40824e-20
[OGL LOG] init_host_sparsity_pattern : 57 ms
[OGL LOG] matrix not stored update host matrix
[OGL LOG] update_host_mtx : 29 ms
[OGL LOG] matrix is not yet sorted, sorting host matrix
[OGL LOG] sort_host_mtx_sparsity_pattern : 22 ms
[OGL LOG] sort_host_mtx : 13 ms
[OGL LOG] init_preconditioner : 0 ms
[OGL LOG] solve : 33 ms
nonehipGKOCG:  Solving for p, Initial residual = 0.0160512, Final residual = 9.9263e-05, No Iterations 148
linear solve p 163105
time step continuity errors : sum local = 5.29037e-08, global = 5.60587e-21, cumulative = -1.84765e-20
ExecutionTime = 8.13 s  ClockTime = 7 s

Time = 0.01

Courant Number mean: 0.0717117 max: 0.456054
DILUPBiCGStab:  Solving for Ux, Initial residual = 0.00832499, Final residual = 3.60257e-07, No Iterations 5
DILUPBiCGStab:  Solving for Uy, Initial residual = 0.016399, Final residual = 2.17077e-07, No Iterations 5
DILUPBiCGStab:  Solving for Uz, Initial residual = 0.0305223, Final residual = 8.31233e-07, No Iterations 5
linear solve U 94273
[OGL LOG] init_host_sparsity_pattern : 56 ms
[OGL LOG] matrix not stored update host matrix
[OGL LOG] update_host_mtx : 30 ms
[OGL LOG] matrix is not yet sorted, sorting host matrix
[OGL LOG] sort_host_mtx_sparsity_pattern : 22 ms
[OGL LOG] sort_host_mtx : 22 ms
[OGL LOG] init_preconditioner : 0 ms
[OGL LOG] solve : 31 ms
nonehipGKOCG:  Solving for p, Initial residual = 0.0150466, Final residual = 9.37502e-05, No Iterations 149
linear solve p 173202
time step continuity errors : sum local = 5.28077e-08, global = 1.55059e-20, cumulative = -2.97056e-21
[OGL LOG] init_host_sparsity_pattern : 57 ms
[OGL LOG] matrix not stored update host matrix
[OGL LOG] update_host_mtx : 29 ms
[OGL LOG] matrix is not yet sorted, sorting host matrix
[OGL LOG] sort_host_mtx_sparsity_pattern : 22 ms
[OGL LOG] sort_host_mtx : 13 ms
[OGL LOG] init_preconditioner : 0 ms
[OGL LOG] solve : 30 ms
nonehipGKOCG:  Solving for p, Initial residual = 0.013445, Final residual = 9.87167e-05, No Iterations 145
linear solve p 160717
time step continuity errors : sum local = 5.31911e-08, global = -9.68549e-21, cumulative = -1.26561e-20
ExecutionTime = 8.68 s  ClockTime = 8 s

End

