/*---------------------------------------------------------------------------*\
  =========                 |
  \\      /  F ield         | OpenFOAM: The Open Source CFD Toolbox
   \\    /   O peration     | Website:  https://openfoam.org
    \\  /    A nd           | Version:  8
     \\/     M anipulation  |
\*---------------------------------------------------------------------------*/
Build  : 8-ef60d22ea792
Exec   : icoFoam
Date   : Jul 29 2021
Time   : 07:47:07
Host   : "nla-gpu2.ianm.kit.edu"
PID    : 1963695
I/O    : uncollated
Case   : /home/greole/code/OBR/lidDrivenCavity3D/Variation_mesh/45/Variation_matrix_solver/BiCGStab_BJ_HIP/base
nProcs : 1
sigFpe : Enabling floating point exception trapping (FOAM_SIGFPE).
fileModificationChecking : Monitoring run-time modified files using timeStampMaster (fileModificationSkew 10)
allowSystemOperations : Allowing user-supplied system call operations

// * * * * * * * * * * * * * * * * * * * * * * * * * * * * * * * * * * * * * //
Create time

Create mesh for time = 0

Reading transportProperties

Reading field p

Reading field U

Reading/calculating face flux field phi


Starting time loop

Time = 0.001

Courant Number mean: 0 max: 0
DILUPBiCGStab:  Solving for Ux, Initial residual = 1, Final residual = 4.36896e-05, No Iterations 5
DILUPBiCGStab:  Solving for Uy:  solution singularity
DILUPBiCGStab:  Solving for Uz:  solution singularity
linear solve U 36614
[OGL LOG] init_host_sparsity_pattern : 42 ms
[OGL LOG] matrix not stored update host matrix
[OGL LOG] update_host_mtx : 22 ms
[OGL LOG] matrix is not yet sorted, compute sorting idxs
[OGL LOG] compute_sort : 830 ms
[OGL LOG] matrix is not yet sorted, sorting host matrix
[OGL LOG] sort_host_mtx_sparsity_pattern : 17 ms
[OGL LOG] sort_host_mtx : 10 ms
[OGL LOG] init_preconditioner : 111 ms
[OGL LOG] solve : 135 ms
BJhipGKOBiCGStab:  Solving for p, Initial residual = 1, Final residual = 5.26102e-06, No Iterations 227
linear solve p 1610700
time step continuity errors : sum local = 0.0161533, global = -1.04257e-18, cumulative = -1.04257e-18
[OGL LOG] init_host_sparsity_pattern : 38 ms
[OGL LOG] matrix not stored update host matrix
[OGL LOG] update_host_mtx : 19 ms
[OGL LOG] matrix is not yet sorted, sorting host matrix
[OGL LOG] sort_host_mtx_sparsity_pattern : 16 ms
[OGL LOG] sort_host_mtx : 10 ms
[OGL LOG] init_preconditioner : 0 ms
[OGL LOG] solve : 36 ms
BJhipGKOBiCGStab:  Solving for p, Initial residual = 0.973947, Final residual = 8.16108e-05, No Iterations 83
linear solve p 125546
time step continuity errors : sum local = 0.000329566, global = -5.32187e-22, cumulative = -1.0431e-18
ExecutionTime = 2.38 s  ClockTime = 2 s

Time = 0.002

Courant Number mean: 0.024648 max: 0.283475
DILUPBiCGStab:  Solving for Ux, Initial residual = 0.175298, Final residual = 9.23393e-06, No Iterations 5
DILUPBiCGStab:  Solving for Uy, Initial residual = 0.37385, Final residual = 1.73535e-05, No Iterations 5
DILUPBiCGStab:  Solving for Uz, Initial residual = 0.821366, Final residual = 2.54866e-05, No Iterations 5
linear solve U 65832
[OGL LOG] init_host_sparsity_pattern : 38 ms
[OGL LOG] matrix not stored update host matrix
[OGL LOG] update_host_mtx : 20 ms
[OGL LOG] matrix is not yet sorted, sorting host matrix
[OGL LOG] sort_host_mtx_sparsity_pattern : 14 ms
[OGL LOG] sort_host_mtx : 9 ms
[OGL LOG] init_preconditioner : 0 ms
[OGL LOG] solve : 81 ms
BJhipGKOBiCGStab:  Solving for p, Initial residual = 0.900057, Final residual = 9.34179e-05, No Iterations 190
linear solve p 169874
time step continuity errors : sum local = 0.000469491, global = -4.65868e-20, cumulative = -1.08969e-18
[OGL LOG] init_host_sparsity_pattern : 37 ms
[OGL LOG] matrix not stored update host matrix
[OGL LOG] update_host_mtx : 20 ms
[OGL LOG] matrix is not yet sorted, sorting host matrix
[OGL LOG] sort_host_mtx_sparsity_pattern : 14 ms
[OGL LOG] sort_host_mtx : 9 ms
[OGL LOG] init_preconditioner : 0 ms
[OGL LOG] solve : 88 ms
BJhipGKOBiCGStab:  Solving for p, Initial residual = 0.779754, Final residual = 9.26534e-05, No Iterations 209
linear solve p 176856
time step continuity errors : sum local = 5.15935e-07, global = 6.71278e-21, cumulative = -1.08297e-18
ExecutionTime = 2.98 s  ClockTime = 2 s

Time = 0.003

Courant Number mean: 0.0372659 max: 0.359609
DILUPBiCGStab:  Solving for Ux, Initial residual = 0.0600341, Final residual = 3.45723e-06, No Iterations 5
DILUPBiCGStab:  Solving for Uy, Initial residual = 0.127518, Final residual = 4.60811e-06, No Iterations 5
DILUPBiCGStab:  Solving for Uz, Initial residual = 0.825194, Final residual = 2.75657e-05, No Iterations 5
linear solve U 65377
[OGL LOG] init_host_sparsity_pattern : 38 ms
[OGL LOG] matrix not stored update host matrix
[OGL LOG] update_host_mtx : 21 ms
[OGL LOG] matrix is not yet sorted, sorting host matrix
[OGL LOG] sort_host_mtx_sparsity_pattern : 14 ms
[OGL LOG] sort_host_mtx : 9 ms
[OGL LOG] init_preconditioner : 0 ms
[OGL LOG] solve : 66 ms
BJhipGKOBiCGStab:  Solving for p, Initial residual = 0.801519, Final residual = 9.84191e-05, No Iterations 154
linear solve p 155055
time step continuity errors : sum local = 0.000525258, global = -4.76456e-21, cumulative = -1.08774e-18
[OGL LOG] init_host_sparsity_pattern : 38 ms
[OGL LOG] matrix not stored update host matrix
[OGL LOG] update_host_mtx : 19 ms
[OGL LOG] matrix is not yet sorted, sorting host matrix
[OGL LOG] sort_host_mtx_sparsity_pattern : 14 ms
[OGL LOG] sort_host_mtx : 9 ms
[OGL LOG] init_preconditioner : 0 ms
[OGL LOG] solve : 38 ms
BJhipGKOBiCGStab:  Solving for p, Initial residual = 0.686085, Final residual = 8.51824e-05, No Iterations 88
linear solve p 125248
time step continuity errors : sum local = 5.68476e-06, global = -1.67396e-20, cumulative = -1.10448e-18
ExecutionTime = 3.45 s  ClockTime = 3 s

Time = 0.004

Courant Number mean: 0.0443332 max: 0.379785
DILUPBiCGStab:  Solving for Ux, Initial residual = 0.035501, Final residual = 8.43008e-07, No Iterations 5
DILUPBiCGStab:  Solving for Uy, Initial residual = 0.0722777, Final residual = 1.99532e-06, No Iterations 5
DILUPBiCGStab:  Solving for Uz, Initial residual = 0.766039, Final residual = 2.96063e-05, No Iterations 5
linear solve U 65310
[OGL LOG] init_host_sparsity_pattern : 38 ms
[OGL LOG] matrix not stored update host matrix
[OGL LOG] update_host_mtx : 20 ms
[OGL LOG] matrix is not yet sorted, sorting host matrix
[OGL LOG] sort_host_mtx_sparsity_pattern : 14 ms
[OGL LOG] sort_host_mtx : 9 ms
[OGL LOG] init_preconditioner : 0 ms
[OGL LOG] solve : 83 ms
BJhipGKOBiCGStab:  Solving for p, Initial residual = 0.662699, Final residual = 9.72014e-05, No Iterations 195
linear solve p 171646
time step continuity errors : sum local = 2.23013e-05, global = -9.0659e-22, cumulative = -1.10538e-18
[OGL LOG] init_host_sparsity_pattern : 38 ms
[OGL LOG] matrix not stored update host matrix
[OGL LOG] update_host_mtx : 20 ms
[OGL LOG] matrix is not yet sorted, sorting host matrix
[OGL LOG] sort_host_mtx_sparsity_pattern : 14 ms
[OGL LOG] sort_host_mtx : 9 ms
[OGL LOG] init_preconditioner : 0 ms
[OGL LOG] solve : 78 ms
BJhipGKOBiCGStab:  Solving for p, Initial residual = 0.527863, Final residual = 8.98948e-05, No Iterations 182
linear solve p 166156
time step continuity errors : sum local = 0.000215205, global = -8.38287e-20, cumulative = -1.18921e-18
ExecutionTime = 4.03 s  ClockTime = 3 s

Time = 0.005

Courant Number mean: 0.0496775 max: 0.389488
DILUPBiCGStab:  Solving for Ux, Initial residual = 0.0248494, Final residual = 2.81737e-07, No Iterations 5
DILUPBiCGStab:  Solving for Uy, Initial residual = 0.0475031, Final residual = 1.10472e-06, No Iterations 5
DILUPBiCGStab:  Solving for Uz, Initial residual = 0.510797, Final residual = 1.22055e-05, No Iterations 5
linear solve U 66713
[OGL LOG] init_host_sparsity_pattern : 38 ms
[OGL LOG] matrix not stored update host matrix
[OGL LOG] update_host_mtx : 20 ms
[OGL LOG] matrix is not yet sorted, sorting host matrix
[OGL LOG] sort_host_mtx_sparsity_pattern : 14 ms
[OGL LOG] sort_host_mtx : 9 ms
[OGL LOG] init_preconditioner : 0 ms
[OGL LOG] solve : 39 ms
BJhipGKOBiCGStab:  Solving for p, Initial residual = 0.500294, Final residual = 9.92511e-05, No Iterations 91
linear solve p 127828
time step continuity errors : sum local = 1.80256e-06, global = 5.89718e-21, cumulative = -1.18332e-18
[OGL LOG] init_host_sparsity_pattern : 38 ms
[OGL LOG] matrix not stored update host matrix
[OGL LOG] update_host_mtx : 19 ms
[OGL LOG] matrix is not yet sorted, sorting host matrix
[OGL LOG] sort_host_mtx_sparsity_pattern : 16 ms
[OGL LOG] sort_host_mtx : 9 ms
[OGL LOG] init_preconditioner : 0 ms
[OGL LOG] solve : 38 ms
BJhipGKOBiCGStab:  Solving for p, Initial residual = 0.335187, Final residual = 9.48208e-05, No Iterations 88
linear solve p 128013
time step continuity errors : sum local = 2.25749e-06, global = -1.38864e-20, cumulative = -1.1972e-18
ExecutionTime = 4.47 s  ClockTime = 4 s

Time = 0.006

Courant Number mean: 0.05375 max: 0.39504
DILUPBiCGStab:  Solving for Ux, Initial residual = 0.0186606, Final residual = 1.56057e-07, No Iterations 5
DILUPBiCGStab:  Solving for Uy, Initial residual = 0.0354723, Final residual = 6.24954e-07, No Iterations 5
DILUPBiCGStab:  Solving for Uz, Initial residual = 0.346534, Final residual = 7.67982e-06, No Iterations 5
linear solve U 67072
[OGL LOG] init_host_sparsity_pattern : 38 ms
[OGL LOG] matrix not stored update host matrix
[OGL LOG] update_host_mtx : 20 ms
[OGL LOG] matrix is not yet sorted, sorting host matrix
[OGL LOG] sort_host_mtx_sparsity_pattern : 14 ms
[OGL LOG] sort_host_mtx : 9 ms
[OGL LOG] init_preconditioner : 0 ms
[OGL LOG] solve : 36 ms
BJhipGKOBiCGStab:  Solving for p, Initial residual = 0.262448, Final residual = 7.03084e-05, No Iterations 85
linear solve p 125302
time step continuity errors : sum local = 1.17422e-06, global = -1.55489e-20, cumulative = -1.21275e-18
[OGL LOG] init_host_sparsity_pattern : 37 ms
[OGL LOG] matrix not stored update host matrix
[OGL LOG] update_host_mtx : 18 ms
[OGL LOG] matrix is not yet sorted, sorting host matrix
[OGL LOG] sort_host_mtx_sparsity_pattern : 14 ms
[OGL LOG] sort_host_mtx : 9 ms
[OGL LOG] init_preconditioner : 0 ms
[OGL LOG] solve : 35 ms
BJhipGKOBiCGStab:  Solving for p, Initial residual = 0.186915, Final residual = 9.78254e-05, No Iterations 81
linear solve p 120813
time step continuity errors : sum local = 5.16607e-07, global = -1.17622e-20, cumulative = -1.22451e-18
ExecutionTime = 4.89 s  ClockTime = 4 s

Time = 0.007

Courant Number mean: 0.057088 max: 0.39879
DILUPBiCGStab:  Solving for Ux, Initial residual = 0.0148628, Final residual = 9.50643e-08, No Iterations 5
DILUPBiCGStab:  Solving for Uy, Initial residual = 0.0277537, Final residual = 2.71976e-07, No Iterations 5
DILUPBiCGStab:  Solving for Uz, Initial residual = 0.157067, Final residual = 3.28319e-06, No Iterations 5
linear solve U 65202
[OGL LOG] init_host_sparsity_pattern : 38 ms
[OGL LOG] matrix not stored update host matrix
[OGL LOG] update_host_mtx : 20 ms
[OGL LOG] matrix is not yet sorted, sorting host matrix
[OGL LOG] sort_host_mtx_sparsity_pattern : 14 ms
[OGL LOG] sort_host_mtx : 9 ms
[OGL LOG] init_preconditioner : 0 ms
[OGL LOG] solve : 68 ms
BJhipGKOBiCGStab:  Solving for p, Initial residual = 0.132055, Final residual = 9.93602e-05, No Iterations 159
linear solve p 156358
time step continuity errors : sum local = 8.98734e-08, global = 2.72344e-20, cumulative = -1.19728e-18
[OGL LOG] init_host_sparsity_pattern : 38 ms
[OGL LOG] matrix not stored update host matrix
[OGL LOG] update_host_mtx : 20 ms
[OGL LOG] matrix is not yet sorted, sorting host matrix
[OGL LOG] sort_host_mtx_sparsity_pattern : 14 ms
[OGL LOG] sort_host_mtx : 9 ms
[OGL LOG] init_preconditioner : 0 ms
[OGL LOG] solve : 32 ms
BJhipGKOBiCGStab:  Solving for p, Initial residual = 0.0939002, Final residual = 9.78059e-05, No Iterations 75
linear solve p 120479
time step continuity errors : sum local = 4.57088e-07, global = 2.99512e-20, cumulative = -1.16733e-18
ExecutionTime = 5.35 s  ClockTime = 4 s

Time = 0.008

Courant Number mean: 0.0599154 max: 0.401801
DILUPBiCGStab:  Solving for Ux, Initial residual = 0.0122182, Final residual = 8.13031e-08, No Iterations 5
DILUPBiCGStab:  Solving for Uy, Initial residual = 0.022951, Final residual = 1.41153e-07, No Iterations 5
DILUPBiCGStab:  Solving for Uz, Initial residual = 0.0798643, Final residual = 1.43051e-06, No Iterations 5
linear solve U 65250
[OGL LOG] init_host_sparsity_pattern : 38 ms
[OGL LOG] matrix not stored update host matrix
[OGL LOG] update_host_mtx : 20 ms
[OGL LOG] matrix is not yet sorted, sorting host matrix
[OGL LOG] sort_host_mtx_sparsity_pattern : 14 ms
[OGL LOG] sort_host_mtx : 9 ms
[OGL LOG] init_preconditioner : 0 ms
[OGL LOG] solve : 33 ms
BJhipGKOBiCGStab:  Solving for p, Initial residual = 0.0675856, Final residual = 8.44349e-05, No Iterations 76
linear solve p 121640
time step continuity errors : sum local = 2.15099e-06, global = 5.91579e-21, cumulative = -1.16141e-18
[OGL LOG] init_host_sparsity_pattern : 38 ms
[OGL LOG] matrix not stored update host matrix
[OGL LOG] update_host_mtx : 20 ms
[OGL LOG] matrix is not yet sorted, sorting host matrix
[OGL LOG] sort_host_mtx_sparsity_pattern : 14 ms
[OGL LOG] sort_host_mtx : 9 ms
[OGL LOG] init_preconditioner : 0 ms
[OGL LOG] solve : 33 ms
BJhipGKOBiCGStab:  Solving for p, Initial residual = 0.0498742, Final residual = 6.66977e-05, No Iterations 78
linear solve p 121887
time step continuity errors : sum local = 1.34509e-06, global = -1.66191e-20, cumulative = -1.17803e-18
ExecutionTime = 5.76 s  ClockTime = 5 s

Time = 0.009

Courant Number mean: 0.0623405 max: 0.404147
DILUPBiCGStab:  Solving for Ux, Initial residual = 0.0102653, Final residual = 6.36446e-08, No Iterations 5
DILUPBiCGStab:  Solving for Uy, Initial residual = 0.0193499, Final residual = 9.60194e-08, No Iterations 5
DILUPBiCGStab:  Solving for Uz, Initial residual = 0.0519626, Final residual = 7.74574e-07, No Iterations 5
linear solve U 65189
[OGL LOG] init_host_sparsity_pattern : 40 ms
[OGL LOG] matrix not stored update host matrix
[OGL LOG] update_host_mtx : 18 ms
[OGL LOG] matrix is not yet sorted, sorting host matrix
[OGL LOG] sort_host_mtx_sparsity_pattern : 16 ms
[OGL LOG] sort_host_mtx : 9 ms
[OGL LOG] init_preconditioner : 0 ms
[OGL LOG] solve : 30 ms
BJhipGKOBiCGStab:  Solving for p, Initial residual = 0.038733, Final residual = 8.99413e-05, No Iterations 71
linear solve p 122763
time step continuity errors : sum local = 1.95293e-05, global = -2.72482e-20, cumulative = -1.20528e-18
[OGL LOG] init_host_sparsity_pattern : 38 ms
[OGL LOG] matrix not stored update host matrix
[OGL LOG] update_host_mtx : 19 ms
[OGL LOG] matrix is not yet sorted, sorting host matrix
[OGL LOG] sort_host_mtx_sparsity_pattern : 14 ms
[OGL LOG] sort_host_mtx : 9 ms
[OGL LOG] init_preconditioner : 0 ms
[OGL LOG] solve : 31 ms
BJhipGKOBiCGStab:  Solving for p, Initial residual = 0.0483095, Final residual = 7.09484e-05, No Iterations 72
linear solve p 118239
time step continuity errors : sum local = 4.8877e-08, global = -2.60152e-22, cumulative = -1.20554e-18
ExecutionTime = 6.17 s  ClockTime = 5 s

Time = 0.01

Courant Number mean: 0.0644351 max: 0.406013
DILUPBiCGStab:  Solving for Ux, Initial residual = 0.00875155, Final residual = 5.65156e-08, No Iterations 5
DILUPBiCGStab:  Solving for Uy, Initial residual = 0.0166928, Final residual = 7.76464e-08, No Iterations 5
DILUPBiCGStab:  Solving for Uz, Initial residual = 0.0377593, Final residual = 9.64526e-07, No Iterations 5
linear solve U 65533
[OGL LOG] init_host_sparsity_pattern : 38 ms
[OGL LOG] matrix not stored update host matrix
[OGL LOG] update_host_mtx : 18 ms
[OGL LOG] matrix is not yet sorted, sorting host matrix
[OGL LOG] sort_host_mtx_sparsity_pattern : 14 ms
[OGL LOG] sort_host_mtx : 9 ms
[OGL LOG] init_preconditioner : 0 ms
[OGL LOG] solve : 32 ms
BJhipGKOBiCGStab:  Solving for p, Initial residual = 0.0262381, Final residual = 8.72013e-05, No Iterations 74
linear solve p 118410
time step continuity errors : sum local = 6.95492e-08, global = 2.30388e-20, cumulative = -1.1825e-18
[OGL LOG] init_host_sparsity_pattern : 38 ms
[OGL LOG] matrix not stored update host matrix
[OGL LOG] update_host_mtx : 20 ms
[OGL LOG] matrix is not yet sorted, sorting host matrix
[OGL LOG] sort_host_mtx_sparsity_pattern : 14 ms
[OGL LOG] sort_host_mtx : 9 ms
[OGL LOG] init_preconditioner : 0 ms
[OGL LOG] solve : 32 ms
BJhipGKOBiCGStab:  Solving for p, Initial residual = 0.0203342, Final residual = 8.29173e-05, No Iterations 76
linear solve p 120566
time step continuity errors : sum local = 6.08082e-08, global = -7.7722e-21, cumulative = -1.19027e-18
ExecutionTime = 6.57 s  ClockTime = 5 s

End

