/*---------------------------------------------------------------------------*\
  =========                 |
  \\      /  F ield         | OpenFOAM: The Open Source CFD Toolbox
   \\    /   O peration     | Website:  https://openfoam.org
    \\  /    A nd           | Version:  8
     \\/     M anipulation  |
\*---------------------------------------------------------------------------*/
Build  : 8-14d69e1ee166
Exec   : icoFoam
Date   : Jul 29 2021
Time   : 08:56:03
Host   : "guyot.icl.utk.edu"
PID    : 193354
I/O    : uncollated
Case   : /home/greole/code/OBR/lidDrivenCavity3D/Variation_mesh/65/Variation_matrix_solver/BiCGStab_BJ_CUDA/base
nProcs : 1
sigFpe : Enabling floating point exception trapping (FOAM_SIGFPE).
fileModificationChecking : Monitoring run-time modified files using timeStampMaster (fileModificationSkew 10)
allowSystemOperations : Allowing user-supplied system call operations

// * * * * * * * * * * * * * * * * * * * * * * * * * * * * * * * * * * * * * //
Create time

Create mesh for time = 0

Reading transportProperties

Reading field p

Reading field U

Reading/calculating face flux field phi


Starting time loop

Time = 0.001

Courant Number mean: 0 max: 0
DILUPBiCGStab:  Solving for Ux, Initial residual = 1, Final residual = 0.0009093, No Iterations 5
DILUPBiCGStab:  Solving for Uy:  solution singularity
DILUPBiCGStab:  Solving for Uz:  solution singularity
linear solve U 106623
[OGL LOG] init_host_sparsity_pattern : 122 ms
[OGL LOG] matrix not stored update host matrix
[OGL LOG] update_host_mtx : 61 ms
[OGL LOG] matrix is not yet sorted, compute sorting idxs
[OGL LOG] compute_sort : 2740 ms
[OGL LOG] matrix is not yet sorted, sorting host matrix
[OGL LOG] sort_host_mtx_sparsity_pattern : 49 ms
[OGL LOG] sort_host_mtx : 30 ms
[OGL LOG] init_preconditioner : 43 ms
[OGL LOG] solve : 496 ms
BJcudaGKOBiCGStab:  Solving for p, Initial residual = 1, Final residual = 9.82632e-05, No Iterations 327
linear solve p 5242684
time step continuity errors : sum local = 0.000148036, global = 1.0746e-19, cumulative = 1.0746e-19
[OGL LOG] init_host_sparsity_pattern : 119 ms
[OGL LOG] matrix not stored update host matrix
[OGL LOG] update_host_mtx : 62 ms
[OGL LOG] matrix is not yet sorted, sorting host matrix
[OGL LOG] sort_host_mtx_sparsity_pattern : 49 ms
[OGL LOG] sort_host_mtx : 29 ms
[OGL LOG] init_preconditioner : 0 ms
[OGL LOG] solve : 600 ms
BJcudaGKOBiCGStab:  Solving for p, Initial residual = 0.76835, Final residual = 5.23289e-05, No Iterations 314
linear solve p 880859
time step continuity errors : sum local = 0.00116878, global = -1.90838e-18, cumulative = -1.80092e-18
ExecutionTime = 7.51 s  ClockTime = 8 s

Time = 0.002

Courant Number mean: 0.0370387 max: 0.487344
DILUPBiCGStab:  Solving for Ux, Initial residual = 0.154594, Final residual = 0.000271783, No Iterations 5
DILUPBiCGStab:  Solving for Uy, Initial residual = 0.351732, Final residual = 0.000530346, No Iterations 5
DILUPBiCGStab:  Solving for Uz, Initial residual = 0.699647, Final residual = 0.00201239, No Iterations 5
linear solve U 200605
[OGL LOG] init_host_sparsity_pattern : 120 ms
[OGL LOG] matrix not stored update host matrix
[OGL LOG] update_host_mtx : 62 ms
[OGL LOG] matrix is not yet sorted, sorting host matrix
[OGL LOG] sort_host_mtx_sparsity_pattern : 49 ms
[OGL LOG] sort_host_mtx : 29 ms
[OGL LOG] init_preconditioner : 0 ms
[OGL LOG] solve : 546 ms
BJcudaGKOBiCGStab:  Solving for p, Initial residual = 0.960052, Final residual = 9.7713e-05, No Iterations 287
linear solve p 826446
time step continuity errors : sum local = 0.000595893, global = -4.31395e-19, cumulative = -2.23231e-18
[OGL LOG] init_host_sparsity_pattern : 120 ms
[OGL LOG] matrix not stored update host matrix
[OGL LOG] update_host_mtx : 62 ms
[OGL LOG] matrix is not yet sorted, sorting host matrix
[OGL LOG] sort_host_mtx_sparsity_pattern : 51 ms
[OGL LOG] sort_host_mtx : 29 ms
[OGL LOG] init_preconditioner : 0 ms
[OGL LOG] solve : 273 ms
BJcudaGKOBiCGStab:  Solving for p, Initial residual = 0.734097, Final residual = 9.92911e-05, No Iterations 142
linear solve p 555379
time step continuity errors : sum local = 8.37266e-07, global = 7.89596e-22, cumulative = -2.23152e-18
ExecutionTime = 9.21 s  ClockTime = 9 s

Time = 0.003

Courant Number mean: 0.0570339 max: 0.609749
DILUPBiCGStab:  Solving for Ux, Initial residual = 0.0542818, Final residual = 5.39918e-05, No Iterations 5
DILUPBiCGStab:  Solving for Uy, Initial residual = 0.141152, Final residual = 0.000203513, No Iterations 5
DILUPBiCGStab:  Solving for Uz, Initial residual = 0.777445, Final residual = 0.00160423, No Iterations 5
linear solve U 200704
[OGL LOG] init_host_sparsity_pattern : 120 ms
[OGL LOG] matrix not stored update host matrix
[OGL LOG] update_host_mtx : 62 ms
[OGL LOG] matrix is not yet sorted, sorting host matrix
[OGL LOG] sort_host_mtx_sparsity_pattern : 50 ms
[OGL LOG] sort_host_mtx : 30 ms
[OGL LOG] init_preconditioner : 0 ms
[OGL LOG] solve : 562 ms
BJcudaGKOBiCGStab:  Solving for p, Initial residual = 0.933047, Final residual = 8.61128e-05, No Iterations 294
linear solve p 845188
time step continuity errors : sum local = 6.20383e-07, global = 7.18448e-21, cumulative = -2.22434e-18
[OGL LOG] init_host_sparsity_pattern : 120 ms
[OGL LOG] matrix not stored update host matrix
[OGL LOG] update_host_mtx : 62 ms
[OGL LOG] matrix is not yet sorted, sorting host matrix
[OGL LOG] sort_host_mtx_sparsity_pattern : 49 ms
[OGL LOG] sort_host_mtx : 30 ms
[OGL LOG] init_preconditioner : 0 ms
[OGL LOG] solve : 553 ms
BJcudaGKOBiCGStab:  Solving for p, Initial residual = 0.812265, Final residual = 7.64953e-05, No Iterations 288
linear solve p 833661
time step continuity errors : sum local = 0.000658893, global = 1.23354e-18, cumulative = -9.90797e-19
ExecutionTime = 11.2 s  ClockTime = 11 s

Time = 0.004

Courant Number mean: 0.0655474 max: 0.616105
DILUPBiCGStab:  Solving for Ux, Initial residual = 0.0338326, Final residual = 3.94221e-05, No Iterations 5
DILUPBiCGStab:  Solving for Uy, Initial residual = 0.0924459, Final residual = 0.000136739, No Iterations 5
DILUPBiCGStab:  Solving for Uz, Initial residual = 0.794821, Final residual = 0.00152083, No Iterations 5
linear solve U 203530
[OGL LOG] init_host_sparsity_pattern : 120 ms
[OGL LOG] matrix not stored update host matrix
[OGL LOG] update_host_mtx : 62 ms
[OGL LOG] matrix is not yet sorted, sorting host matrix
[OGL LOG] sort_host_mtx_sparsity_pattern : 49 ms
[OGL LOG] sort_host_mtx : 29 ms
[OGL LOG] init_preconditioner : 0 ms
[OGL LOG] solve : 532 ms
BJcudaGKOBiCGStab:  Solving for p, Initial residual = 0.929124, Final residual = 8.31346e-05, No Iterations 278
linear solve p 812646
time step continuity errors : sum local = 1.14332e-06, global = 1.11742e-20, cumulative = -9.79623e-19
[OGL LOG] init_host_sparsity_pattern : 120 ms
[OGL LOG] matrix not stored update host matrix
[OGL LOG] update_host_mtx : 61 ms
[OGL LOG] matrix is not yet sorted, sorting host matrix
[OGL LOG] sort_host_mtx_sparsity_pattern : 49 ms
[OGL LOG] sort_host_mtx : 29 ms
[OGL LOG] init_preconditioner : 0 ms
[OGL LOG] solve : 245 ms
BJcudaGKOBiCGStab:  Solving for p, Initial residual = 0.783137, Final residual = 8.91406e-05, No Iterations 128
linear solve p 525313
time step continuity errors : sum local = 7.40749e-07, global = 1.23686e-20, cumulative = -9.67254e-19
ExecutionTime = 12.85 s  ClockTime = 13 s

Time = 0.005

Courant Number mean: 0.0734778 max: 0.622028
DILUPBiCGStab:  Solving for Ux, Initial residual = 0.0248192, Final residual = 2.4844e-05, No Iterations 5
DILUPBiCGStab:  Solving for Uy, Initial residual = 0.0716923, Final residual = 9.24409e-05, No Iterations 5
DILUPBiCGStab:  Solving for Uz, Initial residual = 0.82691, Final residual = 0.00104143, No Iterations 5
linear solve U 203119
[OGL LOG] init_host_sparsity_pattern : 119 ms
[OGL LOG] matrix not stored update host matrix
[OGL LOG] update_host_mtx : 62 ms
[OGL LOG] matrix is not yet sorted, sorting host matrix
[OGL LOG] sort_host_mtx_sparsity_pattern : 50 ms
[OGL LOG] sort_host_mtx : 29 ms
[OGL LOG] init_preconditioner : 0 ms
[OGL LOG] solve : 592 ms
BJcudaGKOBiCGStab:  Solving for p, Initial residual = 0.901511, Final residual = 9.9947e-05, No Iterations 309
linear solve p 872775
time step continuity errors : sum local = 1.86439e-05, global = -6.79115e-21, cumulative = -9.74046e-19
[OGL LOG] init_host_sparsity_pattern : 121 ms
[OGL LOG] matrix not stored update host matrix
[OGL LOG] update_host_mtx : 62 ms
[OGL LOG] matrix is not yet sorted, sorting host matrix
[OGL LOG] sort_host_mtx_sparsity_pattern : 49 ms
[OGL LOG] sort_host_mtx : 30 ms
[OGL LOG] init_preconditioner : 0 ms
[OGL LOG] solve : 467 ms
BJcudaGKOBiCGStab:  Solving for p, Initial residual = 0.761436, Final residual = 9.84384e-05, No Iterations 247
linear solve p 749164
time step continuity errors : sum local = 0.000541587, global = -4.72857e-19, cumulative = -1.4469e-18
ExecutionTime = 14.78 s  ClockTime = 15 s

Time = 0.006

Courant Number mean: 0.0787318 max: 0.612737
DILUPBiCGStab:  Solving for Ux, Initial residual = 0.0195652, Final residual = 2.13786e-05, No Iterations 5
DILUPBiCGStab:  Solving for Uy, Initial residual = 0.0484661, Final residual = 7.11237e-05, No Iterations 5
DILUPBiCGStab:  Solving for Uz, Initial residual = 0.78005, Final residual = 0.00136516, No Iterations 5
linear solve U 204014
[OGL LOG] init_host_sparsity_pattern : 120 ms
[OGL LOG] matrix not stored update host matrix
[OGL LOG] update_host_mtx : 62 ms
[OGL LOG] matrix is not yet sorted, sorting host matrix
[OGL LOG] sort_host_mtx_sparsity_pattern : 49 ms
[OGL LOG] sort_host_mtx : 29 ms
[OGL LOG] init_preconditioner : 0 ms
[OGL LOG] solve : 565 ms
BJcudaGKOBiCGStab:  Solving for p, Initial residual = 0.917222, Final residual = 9.57364e-05, No Iterations 294
linear solve p 845254
time step continuity errors : sum local = 0.00124847, global = 1.8769e-18, cumulative = 4.29998e-19
[OGL LOG] init_host_sparsity_pattern : 121 ms
[OGL LOG] matrix not stored update host matrix
[OGL LOG] update_host_mtx : 61 ms
[OGL LOG] matrix is not yet sorted, sorting host matrix
[OGL LOG] sort_host_mtx_sparsity_pattern : 49 ms
[OGL LOG] sort_host_mtx : 29 ms
[OGL LOG] init_preconditioner : 0 ms
[OGL LOG] solve : 585 ms
BJcudaGKOBiCGStab:  Solving for p, Initial residual = 0.905387, Final residual = 9.72041e-05, No Iterations 307
linear solve p 866098
time step continuity errors : sum local = 0.000475854, global = 1.19145e-18, cumulative = 1.62145e-18
ExecutionTime = 16.81 s  ClockTime = 17 s

Time = 0.007

Courant Number mean: 0.0841274 max: 0.619882
DILUPBiCGStab:  Solving for Ux, Initial residual = 0.0177481, Final residual = 2.28028e-05, No Iterations 5
DILUPBiCGStab:  Solving for Uy, Initial residual = 0.0476174, Final residual = 8.61595e-05, No Iterations 5
DILUPBiCGStab:  Solving for Uz, Initial residual = 0.852728, Final residual = 0.00144932, No Iterations 5
linear solve U 203738
[OGL LOG] init_host_sparsity_pattern : 120 ms
[OGL LOG] matrix not stored update host matrix
[OGL LOG] update_host_mtx : 63 ms
[OGL LOG] matrix is not yet sorted, sorting host matrix
[OGL LOG] sort_host_mtx_sparsity_pattern : 49 ms
[OGL LOG] sort_host_mtx : 29 ms
[OGL LOG] init_preconditioner : 0 ms
[OGL LOG] solve : 577 ms
BJcudaGKOBiCGStab:  Solving for p, Initial residual = 0.92249, Final residual = 9.9126e-05, No Iterations 301
linear solve p 858739
time step continuity errors : sum local = 5.36794e-05, global = 5.776e-20, cumulative = 1.67921e-18
[OGL LOG] init_host_sparsity_pattern : 121 ms
[OGL LOG] matrix not stored update host matrix
[OGL LOG] update_host_mtx : 61 ms
[OGL LOG] matrix is not yet sorted, sorting host matrix
[OGL LOG] sort_host_mtx_sparsity_pattern : 49 ms
[OGL LOG] sort_host_mtx : 29 ms
[OGL LOG] init_preconditioner : 0 ms
[OGL LOG] solve : 568 ms
BJcudaGKOBiCGStab:  Solving for p, Initial residual = 0.824299, Final residual = 9.87036e-05, No Iterations 298
linear solve p 849162
time step continuity errors : sum local = 0.000986795, global = -3.43125e-19, cumulative = 1.33608e-18
ExecutionTime = 18.83 s  ClockTime = 19 s

Time = 0.008

Courant Number mean: 0.0901691 max: 0.658695
DILUPBiCGStab:  Solving for Ux, Initial residual = 0.0174893, Final residual = 2.08386e-05, No Iterations 5
DILUPBiCGStab:  Solving for Uy, Initial residual = 0.0559569, Final residual = 0.000115134, No Iterations 5
DILUPBiCGStab:  Solving for Uz, Initial residual = 0.687223, Final residual = 0.00168931, No Iterations 5
linear solve U 200747
[OGL LOG] init_host_sparsity_pattern : 120 ms
[OGL LOG] matrix not stored update host matrix
[OGL LOG] update_host_mtx : 62 ms
[OGL LOG] matrix is not yet sorted, sorting host matrix
[OGL LOG] sort_host_mtx_sparsity_pattern : 49 ms
[OGL LOG] sort_host_mtx : 29 ms
[OGL LOG] init_preconditioner : 0 ms
[OGL LOG] solve : 573 ms
BJcudaGKOBiCGStab:  Solving for p, Initial residual = 0.947684, Final residual = 6.02297e-05, No Iterations 299
linear solve p 853511
time step continuity errors : sum local = 7.28778e-07, global = 1.06358e-20, cumulative = 1.34672e-18
[OGL LOG] init_host_sparsity_pattern : 119 ms
[OGL LOG] matrix not stored update host matrix
[OGL LOG] update_host_mtx : 62 ms
[OGL LOG] matrix is not yet sorted, sorting host matrix
[OGL LOG] sort_host_mtx_sparsity_pattern : 49 ms
[OGL LOG] sort_host_mtx : 29 ms
[OGL LOG] init_preconditioner : 0 ms
[OGL LOG] solve : 556 ms
BJcudaGKOBiCGStab:  Solving for p, Initial residual = 0.806116, Final residual = 9.60807e-05, No Iterations 292
linear solve p 836641
time step continuity errors : sum local = 0.000101694, global = -6.76104e-20, cumulative = 1.27911e-18
ExecutionTime = 20.84 s  ClockTime = 21 s

Time = 0.009

Courant Number mean: 0.0915836 max: 0.647268
DILUPBiCGStab:  Solving for Ux, Initial residual = 0.016705, Final residual = 2.21447e-05, No Iterations 5
DILUPBiCGStab:  Solving for Uy, Initial residual = 0.0476112, Final residual = 8.4857e-05, No Iterations 5
DILUPBiCGStab:  Solving for Uz, Initial residual = 0.782254, Final residual = 0.00127651, No Iterations 5
linear solve U 200181
[OGL LOG] init_host_sparsity_pattern : 120 ms
[OGL LOG] matrix not stored update host matrix
[OGL LOG] update_host_mtx : 62 ms
[OGL LOG] matrix is not yet sorted, sorting host matrix
[OGL LOG] sort_host_mtx_sparsity_pattern : 49 ms
[OGL LOG] sort_host_mtx : 30 ms
[OGL LOG] init_preconditioner : 0 ms
[OGL LOG] solve : 568 ms
BJcudaGKOBiCGStab:  Solving for p, Initial residual = 0.898984, Final residual = 8.26301e-05, No Iterations 295
linear solve p 849304
time step continuity errors : sum local = 9.30449e-05, global = -1.42686e-19, cumulative = 1.13642e-18
[OGL LOG] init_host_sparsity_pattern : 120 ms
[OGL LOG] matrix not stored update host matrix
[OGL LOG] update_host_mtx : 62 ms
[OGL LOG] matrix is not yet sorted, sorting host matrix
[OGL LOG] sort_host_mtx_sparsity_pattern : 49 ms
[OGL LOG] sort_host_mtx : 31 ms
[OGL LOG] init_preconditioner : 0 ms
[OGL LOG] solve : 545 ms
BJcudaGKOBiCGStab:  Solving for p, Initial residual = 0.760196, Final residual = 8.52539e-05, No Iterations 286
linear solve p 827029
time step continuity errors : sum local = 2.40921e-05, global = 4.92529e-21, cumulative = 1.14135e-18
ExecutionTime = 22.82 s  ClockTime = 23 s

Time = 0.01

Courant Number mean: 0.0939818 max: 0.623827
DILUPBiCGStab:  Solving for Ux, Initial residual = 0.0106647, Final residual = 1.1069e-05, No Iterations 5
DILUPBiCGStab:  Solving for Uy, Initial residual = 0.032261, Final residual = 4.48347e-05, No Iterations 5
DILUPBiCGStab:  Solving for Uz, Initial residual = 0.782524, Final residual = 0.00101373, No Iterations 5
linear solve U 200338
[OGL LOG] init_host_sparsity_pattern : 120 ms
[OGL LOG] matrix not stored update host matrix
[OGL LOG] update_host_mtx : 62 ms
[OGL LOG] matrix is not yet sorted, sorting host matrix
[OGL LOG] sort_host_mtx_sparsity_pattern : 49 ms
[OGL LOG] sort_host_mtx : 29 ms
[OGL LOG] init_preconditioner : 0 ms
[OGL LOG] solve : 574 ms
BJcudaGKOBiCGStab:  Solving for p, Initial residual = 0.871142, Final residual = 6.54937e-05, No Iterations 298
linear solve p 854588
time step continuity errors : sum local = 0.000123225, global = -7.34928e-20, cumulative = 1.06786e-18
[OGL LOG] init_host_sparsity_pattern : 120 ms
[OGL LOG] matrix not stored update host matrix
[OGL LOG] update_host_mtx : 62 ms
[OGL LOG] matrix is not yet sorted, sorting host matrix
[OGL LOG] sort_host_mtx_sparsity_pattern : 49 ms
[OGL LOG] sort_host_mtx : 30 ms
[OGL LOG] init_preconditioner : 0 ms
[OGL LOG] solve : 498 ms
BJcudaGKOBiCGStab:  Solving for p, Initial residual = 0.712549, Final residual = 9.6247e-05, No Iterations 262
linear solve p 779296
time step continuity errors : sum local = 3.77384e-07, global = -1.1393e-20, cumulative = 1.05646e-18
ExecutionTime = 24.77 s  ClockTime = 25 s

End

