/*---------------------------------------------------------------------------*\
  =========                 |
  \\      /  F ield         | OpenFOAM: The Open Source CFD Toolbox
   \\    /   O peration     | Website:  https://openfoam.org
    \\  /    A nd           | Version:  8
     \\/     M anipulation  |
\*---------------------------------------------------------------------------*/
Build  : 8-40a5a48f630f
Exec   : icoFoam
Date   : Jul 28 2021
Time   : 13:22:49
Host   : "uc2n449.localdomain"
PID    : 1430578
I/O    : uncollated
Case   : /pfs/data5/home/kit/scc/nq7776/code/OBR/lidDrivenCavity3D/Variation_mesh/70/Variation_matrix_solver/CG_NoPrecond_Serial/base
nProcs : 1
sigFpe : Enabling floating point exception trapping (FOAM_SIGFPE).
fileModificationChecking : Monitoring run-time modified files using timeStampMaster (fileModificationSkew 10)
allowSystemOperations : Allowing user-supplied system call operations

// * * * * * * * * * * * * * * * * * * * * * * * * * * * * * * * * * * * * * //
Create time

Create mesh for time = 0

Reading transportProperties

Reading field p

Reading field U

Reading/calculating face flux field phi


Starting time loop

Time = 0.001

Courant Number mean: 0 max: 0
nonePBiCGStab:  Solving for Ux, Initial residual = 1, Final residual = 0.0584718, No Iterations 5
nonePBiCGStab:  Solving for Uy, Initial residual = 0, Final residual = 0, No Iterations 0
nonePBiCGStab:  Solving for Uz, Initial residual = 0, Final residual = 0, No Iterations 0
linear solve U 84
nonePCG:  Solving for p, Initial residual = 1, Final residual = 9.77546e-05, No Iterations 550
linear solve p 2216
time step continuity errors : sum local = 4.55356e-08, global = -9.09864e-21, cumulative = -9.09864e-21
nonePCG:  Solving for p, Initial residual = 0.681643, Final residual = 9.66436e-05, No Iterations 543
linear solve p 2198
time step continuity errors : sum local = 6.35581e-08, global = 1.12213e-21, cumulative = -7.97652e-21
ExecutionTime = 5.97 s  ClockTime = 6 s

Time = 0.002

Courant Number mean: 0.0344583 max: 0.51472
nonePBiCGStab:  Solving for Ux, Initial residual = 0.148861, Final residual = 0.0242745, No Iterations 5
nonePBiCGStab:  Solving for Uy, Initial residual = 0.378251, Final residual = 0.0558304, No Iterations 5
nonePBiCGStab:  Solving for Uz, Initial residual = 0.981692, Final residual = 0.180069, No Iterations 5
linear solve U 187
nonePCG:  Solving for p, Initial residual = 0.684976, Final residual = 8.88291e-05, No Iterations 539
linear solve p 2136
time step continuity errors : sum local = 7.68326e-08, global = 1.03291e-20, cumulative = 2.35254e-21
nonePCG:  Solving for p, Initial residual = 0.604552, Final residual = 9.20172e-05, No Iterations 537
linear solve p 2145
time step continuity errors : sum local = 8.13643e-08, global = -7.15439e-21, cumulative = -4.80185e-21
ExecutionTime = 10.61 s  ClockTime = 10 s

Time = 0.003

Courant Number mean: 0.0532598 max: 0.605938
nonePBiCGStab:  Solving for Ux, Initial residual = 0.0557361, Final residual = 0.00750007, No Iterations 5
nonePBiCGStab:  Solving for Uy, Initial residual = 0.135018, Final residual = 0.0233157, No Iterations 5
nonePBiCGStab:  Solving for Uz, Initial residual = 0.427163, Final residual = 0.0743679, No Iterations 5
linear solve U 183
nonePCG:  Solving for p, Initial residual = 0.613268, Final residual = 9.42105e-05, No Iterations 534
linear solve p 2134
time step continuity errors : sum local = 5.62303e-08, global = 4.20173e-21, cumulative = -6.00119e-22
nonePCG:  Solving for p, Initial residual = 0.546185, Final residual = 9.78853e-05, No Iterations 532
linear solve p 2128
time step continuity errors : sum local = 5.67222e-08, global = 1.43515e-20, cumulative = 1.37513e-20
ExecutionTime = 15.24 s  ClockTime = 15 s

Time = 0.004

Courant Number mean: 0.0638357 max: 0.623649
nonePBiCGStab:  Solving for Ux, Initial residual = 0.0334641, Final residual = 0.00389731, No Iterations 5
nonePBiCGStab:  Solving for Uy, Initial residual = 0.0886133, Final residual = 0.0110275, No Iterations 5
nonePBiCGStab:  Solving for Uz, Initial residual = 0.24228, Final residual = 0.0342133, No Iterations 5
linear solve U 186
nonePCG:  Solving for p, Initial residual = 0.427453, Final residual = 9.99732e-05, No Iterations 261
linear solve p 1056
time step continuity errors : sum local = 6.08638e-08, global = 1.13665e-20, cumulative = 2.51178e-20
nonePCG:  Solving for p, Initial residual = 0.358233, Final residual = 9.4777e-05, No Iterations 256
linear solve p 1026
time step continuity errors : sum local = 5.59698e-08, global = 9.68721e-21, cumulative = 3.4805e-20
ExecutionTime = 17.7 s  ClockTime = 18 s

Time = 0.005

Courant Number mean: 0.0724652 max: 0.634642
nonePBiCGStab:  Solving for Ux, Initial residual = 0.0239704, Final residual = 0.00249187, No Iterations 5
nonePBiCGStab:  Solving for Uy, Initial residual = 0.057207, Final residual = 0.0062509, No Iterations 5
nonePBiCGStab:  Solving for Uz, Initial residual = 0.123288, Final residual = 0.0209867, No Iterations 5
linear solve U 184
nonePCG:  Solving for p, Initial residual = 0.374434, Final residual = 9.32038e-05, No Iterations 252
linear solve p 1022
time step continuity errors : sum local = 4.71975e-08, global = -6.87961e-21, cumulative = 2.79254e-20
nonePCG:  Solving for p, Initial residual = 0.321333, Final residual = 9.94473e-05, No Iterations 244
linear solve p 977
time step continuity errors : sum local = 4.81174e-08, global = -1.46213e-20, cumulative = 1.33041e-20
ExecutionTime = 20.07 s  ClockTime = 20 s

Time = 0.006

Courant Number mean: 0.0792297 max: 0.641393
nonePBiCGStab:  Solving for Ux, Initial residual = 0.017908, Final residual = 0.00152578, No Iterations 5
nonePBiCGStab:  Solving for Uy, Initial residual = 0.0427889, Final residual = 0.00324698, No Iterations 5
nonePBiCGStab:  Solving for Uz, Initial residual = 0.0986399, Final residual = 0.0143184, No Iterations 5
linear solve U 186
nonePCG:  Solving for p, Initial residual = 0.267465, Final residual = 9.39738e-05, No Iterations 242
linear solve p 975
time step continuity errors : sum local = 4.85158e-08, global = -1.66082e-21, cumulative = 1.16433e-20
nonePCG:  Solving for p, Initial residual = 0.224317, Final residual = 8.99809e-05, No Iterations 241
linear solve p 970
time step continuity errors : sum local = 4.56148e-08, global = 7.2061e-21, cumulative = 1.88494e-20
ExecutionTime = 22.39 s  ClockTime = 22 s

Time = 0.007

Courant Number mean: 0.0849289 max: 0.645998
nonePBiCGStab:  Solving for Ux, Initial residual = 0.0141362, Final residual = 0.00098102, No Iterations 5
nonePBiCGStab:  Solving for Uy, Initial residual = 0.0335498, Final residual = 0.00228347, No Iterations 5
nonePBiCGStab:  Solving for Uz, Initial residual = 0.0717597, Final residual = 0.00763053, No Iterations 5
linear solve U 186
nonePCG:  Solving for p, Initial residual = 0.220134, Final residual = 9.49609e-05, No Iterations 240
linear solve p 969
time step continuity errors : sum local = 4.56817e-08, global = -7.52867e-21, cumulative = 1.13207e-20
nonePCG:  Solving for p, Initial residual = 0.186259, Final residual = 9.87029e-05, No Iterations 232
linear solve p 932
time step continuity errors : sum local = 4.61816e-08, global = 6.04574e-21, cumulative = 1.73665e-20
ExecutionTime = 24.68 s  ClockTime = 25 s

Time = 0.008

Courant Number mean: 0.0897168 max: 0.649532
nonePBiCGStab:  Solving for Ux, Initial residual = 0.0115067, Final residual = 0.000682471, No Iterations 5
nonePBiCGStab:  Solving for Uy, Initial residual = 0.0268309, Final residual = 0.00131373, No Iterations 5
nonePBiCGStab:  Solving for Uz, Initial residual = 0.0592471, Final residual = 0.00682321, No Iterations 5
linear solve U 184
nonePCG:  Solving for p, Initial residual = 0.161227, Final residual = 9.85101e-05, No Iterations 230
linear solve p 932
time step continuity errors : sum local = 4.69488e-08, global = 3.51968e-20, cumulative = 5.25633e-20
nonePCG:  Solving for p, Initial residual = 0.135338, Final residual = 9.85166e-05, No Iterations 227
linear solve p 916
time step continuity errors : sum local = 4.618e-08, global = -6.75548e-21, cumulative = 4.58078e-20
ExecutionTime = 26.9 s  ClockTime = 27 s

Time = 0.009

Courant Number mean: 0.0938432 max: 0.652168
nonePBiCGStab:  Solving for Ux, Initial residual = 0.00954341, Final residual = 0.000529981, No Iterations 5
nonePBiCGStab:  Solving for Uy, Initial residual = 0.0225913, Final residual = 0.000912102, No Iterations 5
nonePBiCGStab:  Solving for Uz, Initial residual = 0.0490866, Final residual = 0.00382431, No Iterations 5
linear solve U 184
nonePCG:  Solving for p, Initial residual = 0.128813, Final residual = 9.66208e-05, No Iterations 227
linear solve p 920
time step continuity errors : sum local = 4.44474e-08, global = -3.47539e-21, cumulative = 4.23324e-20
nonePCG:  Solving for p, Initial residual = 0.108748, Final residual = 9.70518e-05, No Iterations 225
linear solve p 905
time step continuity errors : sum local = 4.41198e-08, global = -9.80915e-21, cumulative = 3.25233e-20
ExecutionTime = 29.11 s  ClockTime = 29 s

Time = 0.01

Courant Number mean: 0.097427 max: 0.654378
nonePBiCGStab:  Solving for Ux, Initial residual = 0.00811428, Final residual = 0.000411245, No Iterations 5
nonePBiCGStab:  Solving for Uy, Initial residual = 0.0188539, Final residual = 0.000632651, No Iterations 5
nonePBiCGStab:  Solving for Uz, Initial residual = 0.0417786, Final residual = 0.00364096, No Iterations 5
linear solve U 184
nonePCG:  Solving for p, Initial residual = 0.0949519, Final residual = 9.80451e-05, No Iterations 222
linear solve p 901
time step continuity errors : sum local = 4.49175e-08, global = 2.77678e-21, cumulative = 3.53001e-20
nonePCG:  Solving for p, Initial residual = 0.0799666, Final residual = 9.84216e-05, No Iterations 220
linear solve p 887
time step continuity errors : sum local = 4.44621e-08, global = -6.30895e-21, cumulative = 2.89911e-20
ExecutionTime = 31.26 s  ClockTime = 31 s

End

