/*---------------------------------------------------------------------------*\
  =========                 |
  \\      /  F ield         | OpenFOAM: The Open Source CFD Toolbox
   \\    /   O peration     | Website:  https://openfoam.org
    \\  /    A nd           | Version:  8
     \\/     M anipulation  |
\*---------------------------------------------------------------------------*/
Build  : 8-ef60d22ea792
Exec   : icoFoam
Date   : Jul 29 2021
Time   : 08:12:14
Host   : "nla-gpu2.ianm.kit.edu"
PID    : 1976275
I/O    : uncollated
Case   : /home/greole/code/OBR/lidDrivenCavity3D/Variation_mesh/60/Variation_matrix_solver/IR_NoPrecond_HIP/base
nProcs : 1
sigFpe : Enabling floating point exception trapping (FOAM_SIGFPE).
fileModificationChecking : Monitoring run-time modified files using timeStampMaster (fileModificationSkew 10)
allowSystemOperations : Allowing user-supplied system call operations

// * * * * * * * * * * * * * * * * * * * * * * * * * * * * * * * * * * * * * //
Create time

Create mesh for time = 0

Reading transportProperties

Reading field p

Reading field U

Reading/calculating face flux field phi


Starting time loop

Time = 0.001

Courant Number mean: 0 max: 0
DILUPBiCGStab:  Solving for Ux, Initial residual = 1, Final residual = 0.000527977, No Iterations 5
DILUPBiCGStab:  Solving for Uy:  solution singularity
DILUPBiCGStab:  Solving for Uz:  solution singularity
linear solve U 87765
[OGL LOG] init_host_sparsity_pattern : 102 ms
[OGL LOG] matrix not stored update host matrix
[OGL LOG] update_host_mtx : 48 ms
[OGL LOG] matrix is not yet sorted, compute sorting idxs
[OGL LOG] compute_sort : 1969 ms
[OGL LOG] matrix is not yet sorted, sorting host matrix
[OGL LOG] sort_host_mtx_sparsity_pattern : 41 ms
[OGL LOG] sort_host_mtx : 26 ms
[OGL LOG] init_preconditioner : 0 ms
[OGL LOG] solve : 144 ms
nonehipGKOIR:  Solving for p, Initial residual = 1, Final residual = 9.94743e-06, No Iterations 3
linear solve p 2774006
time step continuity errors : sum local = 5.87544e-09, global = -2.11941e-21, cumulative = -2.11941e-21
[OGL LOG] init_host_sparsity_pattern : 92 ms
[OGL LOG] matrix not stored update host matrix
[OGL LOG] update_host_mtx : 44 ms
[OGL LOG] matrix is not yet sorted, sorting host matrix
[OGL LOG] sort_host_mtx_sparsity_pattern : 36 ms
[OGL LOG] sort_host_mtx : 22 ms
[OGL LOG] init_preconditioner : 0 ms
[OGL LOG] solve : 119 ms
nonehipGKOIR:  Solving for p, Initial residual = 0.695569, Final residual = 4.50373e-06, No Iterations 3
linear solve p 327324
time step continuity errors : sum local = 3.63733e-09, global = 1.14748e-20, cumulative = 9.35536e-21
ExecutionTime = 4.48 s  ClockTime = 5 s

Time = 0.002

Courant Number mean: 0.0334999 max: 0.423482
DILUPBiCGStab:  Solving for Ux, Initial residual = 0.157977, Final residual = 0.000145596, No Iterations 5
DILUPBiCGStab:  Solving for Uy, Initial residual = 0.339075, Final residual = 0.000249792, No Iterations 5
DILUPBiCGStab:  Solving for Uz, Initial residual = 0.980317, Final residual = 0.000934711, No Iterations 5
linear solve U 164747
[OGL LOG] init_host_sparsity_pattern : 92 ms
[OGL LOG] matrix not stored update host matrix
[OGL LOG] update_host_mtx : 44 ms
[OGL LOG] matrix is not yet sorted, sorting host matrix
[OGL LOG] sort_host_mtx_sparsity_pattern : 36 ms
[OGL LOG] sort_host_mtx : 22 ms
[OGL LOG] init_preconditioner : 0 ms
[OGL LOG] solve : 122 ms
nonehipGKOIR:  Solving for p, Initial residual = 0.615129, Final residual = 2.9411e-06, No Iterations 3
linear solve p 329362
time step continuity errors : sum local = 2.43687e-09, global = -2.10974e-20, cumulative = -1.1742e-20
[OGL LOG] init_host_sparsity_pattern : 91 ms
[OGL LOG] matrix not stored update host matrix
[OGL LOG] update_host_mtx : 44 ms
[OGL LOG] matrix is not yet sorted, sorting host matrix
[OGL LOG] sort_host_mtx_sparsity_pattern : 38 ms
[OGL LOG] sort_host_mtx : 23 ms
[OGL LOG] init_preconditioner : 0 ms
[OGL LOG] solve : 126 ms
nonehipGKOIR:  Solving for p, Initial residual = 0.535167, Final residual = 2.13204e-06, No Iterations 3
linear solve p 334715
time step continuity errors : sum local = 1.80616e-09, global = -1.93441e-20, cumulative = -3.10861e-20
ExecutionTime = 5.64 s  ClockTime = 6 s

Time = 0.003

Courant Number mean: 0.050297 max: 0.512852
DILUPBiCGStab:  Solving for Ux, Initial residual = 0.0504838, Final residual = 3.33653e-05, No Iterations 5
DILUPBiCGStab:  Solving for Uy, Initial residual = 0.103203, Final residual = 6.93882e-05, No Iterations 5
DILUPBiCGStab:  Solving for Uz, Initial residual = 0.277758, Final residual = 0.000236431, No Iterations 5
linear solve U 163643
[OGL LOG] init_host_sparsity_pattern : 91 ms
[OGL LOG] matrix not stored update host matrix
[OGL LOG] update_host_mtx : 45 ms
[OGL LOG] matrix is not yet sorted, sorting host matrix
[OGL LOG] sort_host_mtx_sparsity_pattern : 40 ms
[OGL LOG] sort_host_mtx : 23 ms
[OGL LOG] init_preconditioner : 0 ms
[OGL LOG] solve : 126 ms
nonehipGKOIR:  Solving for p, Initial residual = 0.472512, Final residual = 1.44973e-06, No Iterations 3
linear solve p 341346
time step continuity errors : sum local = 8.33991e-10, global = -2.18608e-20, cumulative = -5.29469e-20
[OGL LOG] init_host_sparsity_pattern : 91 ms
[OGL LOG] matrix not stored update host matrix
[OGL LOG] update_host_mtx : 44 ms
[OGL LOG] matrix is not yet sorted, sorting host matrix
[OGL LOG] sort_host_mtx_sparsity_pattern : 37 ms
[OGL LOG] sort_host_mtx : 22 ms
[OGL LOG] init_preconditioner : 0 ms
[OGL LOG] solve : 125 ms
nonehipGKOIR:  Solving for p, Initial residual = 0.41639, Final residual = 1.16209e-06, No Iterations 3
linear solve p 333787
time step continuity errors : sum local = 6.49992e-10, global = -2.20862e-20, cumulative = -7.50331e-20
ExecutionTime = 6.8 s  ClockTime = 7 s

Time = 0.004

Courant Number mean: 0.0595684 max: 0.529579
DILUPBiCGStab:  Solving for Ux, Initial residual = 0.0299452, Final residual = 2.01435e-05, No Iterations 5
DILUPBiCGStab:  Solving for Uy, Initial residual = 0.0669907, Final residual = 2.38534e-05, No Iterations 5
DILUPBiCGStab:  Solving for Uz, Initial residual = 0.165918, Final residual = 0.000110144, No Iterations 5
linear solve U 163497
[OGL LOG] init_host_sparsity_pattern : 92 ms
[OGL LOG] matrix not stored update host matrix
[OGL LOG] update_host_mtx : 45 ms
[OGL LOG] matrix is not yet sorted, sorting host matrix
[OGL LOG] sort_host_mtx_sparsity_pattern : 37 ms
[OGL LOG] sort_host_mtx : 22 ms
[OGL LOG] init_preconditioner : 0 ms
[OGL LOG] solve : 90 ms
nonehipGKOIR:  Solving for p, Initial residual = 0.251465, Final residual = 7.84776e-05, No Iterations 2
linear solve p 299584
time step continuity errors : sum local = 4.08102e-08, global = 2.96963e-21, cumulative = -7.20635e-20
[OGL LOG] init_host_sparsity_pattern : 91 ms
[OGL LOG] matrix not stored update host matrix
[OGL LOG] update_host_mtx : 45 ms
[OGL LOG] matrix is not yet sorted, sorting host matrix
[OGL LOG] sort_host_mtx_sparsity_pattern : 37 ms
[OGL LOG] sort_host_mtx : 22 ms
[OGL LOG] init_preconditioner : 0 ms
[OGL LOG] solve : 91 ms
nonehipGKOIR:  Solving for p, Initial residual = 0.204996, Final residual = 5.50132e-05, No Iterations 2
linear solve p 298662
time step continuity errors : sum local = 2.89525e-08, global = -2.43561e-21, cumulative = -7.44991e-20
ExecutionTime = 7.83 s  ClockTime = 7 s

Time = 0.005

Courant Number mean: 0.0665843 max: 0.539164
DILUPBiCGStab:  Solving for Ux, Initial residual = 0.0211152, Final residual = 6.93238e-06, No Iterations 5
DILUPBiCGStab:  Solving for Uy, Initial residual = 0.0441347, Final residual = 1.76439e-05, No Iterations 5
DILUPBiCGStab:  Solving for Uz, Initial residual = 0.0715271, Final residual = 4.5541e-05, No Iterations 5
linear solve U 163943
[OGL LOG] init_host_sparsity_pattern : 91 ms
[OGL LOG] matrix not stored update host matrix
[OGL LOG] update_host_mtx : 44 ms
[OGL LOG] matrix is not yet sorted, sorting host matrix
[OGL LOG] sort_host_mtx_sparsity_pattern : 37 ms
[OGL LOG] sort_host_mtx : 22 ms
[OGL LOG] init_preconditioner : 0 ms
[OGL LOG] solve : 90 ms
nonehipGKOIR:  Solving for p, Initial residual = 0.153312, Final residual = 4.25971e-05, No Iterations 2
linear solve p 298645
time step continuity errors : sum local = 2.01774e-08, global = -6.02756e-21, cumulative = -8.05267e-20
[OGL LOG] init_host_sparsity_pattern : 92 ms
[OGL LOG] matrix not stored update host matrix
[OGL LOG] update_host_mtx : 45 ms
[OGL LOG] matrix is not yet sorted, sorting host matrix
[OGL LOG] sort_host_mtx_sparsity_pattern : 36 ms
[OGL LOG] sort_host_mtx : 22 ms
[OGL LOG] init_preconditioner : 0 ms
[OGL LOG] solve : 90 ms
nonehipGKOIR:  Solving for p, Initial residual = 0.126844, Final residual = 3.42548e-05, No Iterations 2
linear solve p 297477
time step continuity errors : sum local = 1.61657e-08, global = -1.08527e-20, cumulative = -9.13794e-20
ExecutionTime = 8.85 s  ClockTime = 8 s

Time = 0.006

Courant Number mean: 0.0720441 max: 0.544955
DILUPBiCGStab:  Solving for Ux, Initial residual = 0.0159415, Final residual = 7.31557e-06, No Iterations 5
DILUPBiCGStab:  Solving for Uy, Initial residual = 0.0337404, Final residual = 6.47568e-06, No Iterations 5
DILUPBiCGStab:  Solving for Uz, Initial residual = 0.0611268, Final residual = 2.85052e-05, No Iterations 5
linear solve U 165124
[OGL LOG] init_host_sparsity_pattern : 91 ms
[OGL LOG] matrix not stored update host matrix
[OGL LOG] update_host_mtx : 45 ms
[OGL LOG] matrix is not yet sorted, sorting host matrix
[OGL LOG] sort_host_mtx_sparsity_pattern : 37 ms
[OGL LOG] sort_host_mtx : 22 ms
[OGL LOG] init_preconditioner : 0 ms
[OGL LOG] solve : 94 ms
nonehipGKOIR:  Solving for p, Initial residual = 0.0896049, Final residual = 2.44428e-05, No Iterations 2
linear solve p 302793
time step continuity errors : sum local = 1.14038e-08, global = -9.8207e-22, cumulative = -9.23615e-20
[OGL LOG] init_host_sparsity_pattern : 91 ms
[OGL LOG] matrix not stored update host matrix
[OGL LOG] update_host_mtx : 44 ms
[OGL LOG] matrix is not yet sorted, sorting host matrix
[OGL LOG] sort_host_mtx_sparsity_pattern : 37 ms
[OGL LOG] sort_host_mtx : 22 ms
[OGL LOG] init_preconditioner : 0 ms
[OGL LOG] solve : 90 ms
nonehipGKOIR:  Solving for p, Initial residual = 0.0730461, Final residual = 1.88314e-05, No Iterations 2
linear solve p 298659
time step continuity errors : sum local = 8.81866e-09, global = 1.12598e-20, cumulative = -8.11017e-20
ExecutionTime = 9.89 s  ClockTime = 9 s

Time = 0.007

Courant Number mean: 0.0764963 max: 0.548952
DILUPBiCGStab:  Solving for Ux, Initial residual = 0.012699, Final residual = 2.29298e-06, No Iterations 5
DILUPBiCGStab:  Solving for Uy, Initial residual = 0.0269269, Final residual = 6.05433e-06, No Iterations 5
DILUPBiCGStab:  Solving for Uz, Initial residual = 0.0485125, Final residual = 1.7755e-05, No Iterations 5
linear solve U 164569
[OGL LOG] init_host_sparsity_pattern : 91 ms
[OGL LOG] matrix not stored update host matrix
[OGL LOG] update_host_mtx : 45 ms
[OGL LOG] matrix is not yet sorted, sorting host matrix
[OGL LOG] sort_host_mtx_sparsity_pattern : 36 ms
[OGL LOG] sort_host_mtx : 22 ms
[OGL LOG] init_preconditioner : 0 ms
[OGL LOG] solve : 90 ms
nonehipGKOIR:  Solving for p, Initial residual = 0.0572362, Final residual = 1.21863e-05, No Iterations 2
linear solve p 297241
time step continuity errors : sum local = 5.58222e-09, global = -1.82496e-20, cumulative = -9.93513e-20
[OGL LOG] init_host_sparsity_pattern : 91 ms
[OGL LOG] matrix not stored update host matrix
[OGL LOG] update_host_mtx : 44 ms
[OGL LOG] matrix is not yet sorted, sorting host matrix
[OGL LOG] sort_host_mtx_sparsity_pattern : 36 ms
[OGL LOG] sort_host_mtx : 22 ms
[OGL LOG] init_preconditioner : 0 ms
[OGL LOG] solve : 91 ms
nonehipGKOIR:  Solving for p, Initial residual = 0.047568, Final residual = 1.01706e-05, No Iterations 2
linear solve p 298203
time step continuity errors : sum local = 4.66023e-09, global = -1.80135e-20, cumulative = -1.17365e-19
ExecutionTime = 10.92 s  ClockTime = 10 s

Time = 0.008

Courant Number mean: 0.0802503 max: 0.551943
DILUPBiCGStab:  Solving for Ux, Initial residual = 0.0104542, Final residual = 2.00745e-06, No Iterations 5
DILUPBiCGStab:  Solving for Uy, Initial residual = 0.0222035, Final residual = 2.20555e-06, No Iterations 5
DILUPBiCGStab:  Solving for Uz, Initial residual = 0.0407716, Final residual = 1.20522e-05, No Iterations 5
linear solve U 163249
[OGL LOG] init_host_sparsity_pattern : 91 ms
[OGL LOG] matrix not stored update host matrix
[OGL LOG] update_host_mtx : 45 ms
[OGL LOG] matrix is not yet sorted, sorting host matrix
[OGL LOG] sort_host_mtx_sparsity_pattern : 37 ms
[OGL LOG] sort_host_mtx : 22 ms
[OGL LOG] init_preconditioner : 0 ms
[OGL LOG] solve : 92 ms
nonehipGKOIR:  Solving for p, Initial residual = 0.0377801, Final residual = 8.0666e-06, No Iterations 2
linear solve p 299944
time step continuity errors : sum local = 3.67359e-09, global = 2.85783e-21, cumulative = -1.14507e-19
[OGL LOG] init_host_sparsity_pattern : 91 ms
[OGL LOG] matrix not stored update host matrix
[OGL LOG] update_host_mtx : 44 ms
[OGL LOG] matrix is not yet sorted, sorting host matrix
[OGL LOG] sort_host_mtx_sparsity_pattern : 36 ms
[OGL LOG] sort_host_mtx : 22 ms
[OGL LOG] init_preconditioner : 0 ms
[OGL LOG] solve : 94 ms
nonehipGKOIR:  Solving for p, Initial residual = 0.0318015, Final residual = 6.76142e-06, No Iterations 2
linear solve p 300535
time step continuity errors : sum local = 3.08457e-09, global = 7.44435e-21, cumulative = -1.07063e-19
ExecutionTime = 11.95 s  ClockTime = 11 s

Time = 0.009

Courant Number mean: 0.083451 max: 0.554251
DILUPBiCGStab:  Solving for Ux, Initial residual = 0.00878745, Final residual = 8.66986e-07, No Iterations 5
DILUPBiCGStab:  Solving for Uy, Initial residual = 0.0188071, Final residual = 3.02189e-06, No Iterations 5
DILUPBiCGStab:  Solving for Uz, Initial residual = 0.0352659, Final residual = 8.84822e-06, No Iterations 5
linear solve U 163713
[OGL LOG] init_host_sparsity_pattern : 91 ms
[OGL LOG] matrix not stored update host matrix
[OGL LOG] update_host_mtx : 45 ms
[OGL LOG] matrix is not yet sorted, sorting host matrix
[OGL LOG] sort_host_mtx_sparsity_pattern : 36 ms
[OGL LOG] sort_host_mtx : 22 ms
[OGL LOG] init_preconditioner : 0 ms
[OGL LOG] solve : 95 ms
nonehipGKOIR:  Solving for p, Initial residual = 0.0271208, Final residual = 4.96254e-06, No Iterations 2
linear solve p 302817
time step continuity errors : sum local = 2.25435e-09, global = -1.48487e-20, cumulative = -1.21911e-19
[OGL LOG] init_host_sparsity_pattern : 91 ms
[OGL LOG] matrix not stored update host matrix
[OGL LOG] update_host_mtx : 44 ms
[OGL LOG] matrix is not yet sorted, sorting host matrix
[OGL LOG] sort_host_mtx_sparsity_pattern : 37 ms
[OGL LOG] sort_host_mtx : 22 ms
[OGL LOG] init_preconditioner : 0 ms
[OGL LOG] solve : 96 ms
nonehipGKOIR:  Solving for p, Initial residual = 0.0234883, Final residual = 4.25696e-06, No Iterations 2
linear solve p 304050
time step continuity errors : sum local = 1.93511e-09, global = -4.09539e-21, cumulative = -1.26007e-19
ExecutionTime = 13 s  ClockTime = 12 s

Time = 0.01

Courant Number mean: 0.0862268 max: 0.556109
DILUPBiCGStab:  Solving for Ux, Initial residual = 0.00752426, Final residual = 7.60107e-07, No Iterations 5
DILUPBiCGStab:  Solving for Uy, Initial residual = 0.0161529, Final residual = 1.27371e-06, No Iterations 5
DILUPBiCGStab:  Solving for Uz, Initial residual = 0.0305904, Final residual = 6.58793e-06, No Iterations 5
linear solve U 164901
[OGL LOG] init_host_sparsity_pattern : 92 ms
[OGL LOG] matrix not stored update host matrix
[OGL LOG] update_host_mtx : 44 ms
[OGL LOG] matrix is not yet sorted, sorting host matrix
[OGL LOG] sort_host_mtx_sparsity_pattern : 36 ms
[OGL LOG] sort_host_mtx : 22 ms
[OGL LOG] init_preconditioner : 0 ms
[OGL LOG] solve : 96 ms
nonehipGKOIR:  Solving for p, Initial residual = 0.0198603, Final residual = 3.60888e-06, No Iterations 2
linear solve p 303217
time step continuity errors : sum local = 1.63807e-09, global = -2.45194e-20, cumulative = -1.50526e-19
[OGL LOG] init_host_sparsity_pattern : 91 ms
[OGL LOG] matrix not stored update host matrix
[OGL LOG] update_host_mtx : 44 ms
[OGL LOG] matrix is not yet sorted, sorting host matrix
[OGL LOG] sort_host_mtx_sparsity_pattern : 37 ms
[OGL LOG] sort_host_mtx : 22 ms
[OGL LOG] init_preconditioner : 0 ms
[OGL LOG] solve : 96 ms
nonehipGKOIR:  Solving for p, Initial residual = 0.0175499, Final residual = 3.06897e-06, No Iterations 2
linear solve p 303272
time step continuity errors : sum local = 1.39453e-09, global = 1.05561e-20, cumulative = -1.3997e-19
ExecutionTime = 14.05 s  ClockTime = 13 s

End

