/*---------------------------------------------------------------------------*\
  =========                 |
  \\      /  F ield         | OpenFOAM: The Open Source CFD Toolbox
   \\    /   O peration     | Website:  https://openfoam.org
    \\  /    A nd           | Version:  8
     \\/     M anipulation  |
\*---------------------------------------------------------------------------*/
Build  : 8-40a5a48f630f
Exec   : icoFoam
Date   : Jul 28 2021
Time   : 12:22:46
Host   : "uc2n446.localdomain"
PID    : 412050
I/O    : uncollated
Case   : /pfs/data5/home/kit/scc/nq7776/code/OBR/lidDrivenCavity3D/Variation_mesh/65/Variation_matrix_solver/BiCGStab_BJ_OMP/base
nProcs : 1
sigFpe : Enabling floating point exception trapping (FOAM_SIGFPE).
fileModificationChecking : Monitoring run-time modified files using timeStampMaster (fileModificationSkew 10)
allowSystemOperations : Allowing user-supplied system call operations

// * * * * * * * * * * * * * * * * * * * * * * * * * * * * * * * * * * * * * //
Create time

Create mesh for time = 0

Reading transportProperties

Reading field p

Reading field U

Reading/calculating face flux field phi


Starting time loop

Time = 0.001

Courant Number mean: 0 max: 0
nonePBiCGStab:  Solving for Ux, Initial residual = 1, Final residual = 0.053017, No Iterations 5
nonePBiCGStab:  Solving for Uy, Initial residual = 0, Final residual = 0, No Iterations 0
nonePBiCGStab:  Solving for Uz, Initial residual = 0, Final residual = 0, No Iterations 0
linear solve U 69
[OGL LOG] init_host_sparsity_pattern : 78 ms
[OGL LOG] matrix not stored update host matrix
[OGL LOG] update_host_mtx : 40 ms
[OGL LOG] matrix is not yet sorted, compute sorting idxs
[OGL LOG] compute_sort : 2376 ms
[OGL LOG] matrix is not yet sorted, sorting host matrix
[OGL LOG] sort_host_mtx_sparsity_pattern : 56 ms
[OGL LOG] sort_host_mtx : 32 ms
[OGL LOG] init_preconditioner : 9 ms
[OGL LOG] solve : 2897 ms
BJompGKOBiCGStab:  Solving for p, Initial residual = 1, Final residual = 2.89219e-05, No Iterations 324
linear solve p 5551
time step continuity errors : sum local = 2.18262e-07, global = -5.81746e-21, cumulative = -5.81746e-21
[OGL LOG] init_host_sparsity_pattern : 75 ms
[OGL LOG] matrix not stored update host matrix
[OGL LOG] update_host_mtx : 40 ms
[OGL LOG] matrix is not yet sorted, sorting host matrix
[OGL LOG] sort_host_mtx_sparsity_pattern : 57 ms
[OGL LOG] sort_host_mtx : 27 ms
[OGL LOG] init_preconditioner : 0 ms
[OGL LOG] solve : 2760 ms
BJompGKOBiCGStab:  Solving for p, Initial residual = 0.674743, Final residual = 7.92043e-05, No Iterations 314
linear solve p 3000
time step continuity errors : sum local = 3.37542e-06, global = 6.77783e-21, cumulative = 9.60376e-22
ExecutionTime = 117.43 s  ClockTime = 10 s

Time = 0.002

Courant Number mean: 0.0326867 max: 0.468251
nonePBiCGStab:  Solving for Ux, Initial residual = 0.152103, Final residual = 0.0212256, No Iterations 5
nonePBiCGStab:  Solving for Uy, Initial residual = 0.36473, Final residual = 0.0467533, No Iterations 5
nonePBiCGStab:  Solving for Uz, Initial residual = 0.956366, Final residual = 0.159233, No Iterations 5
linear solve U 136
[OGL LOG] init_host_sparsity_pattern : 73 ms
[OGL LOG] matrix not stored update host matrix
[OGL LOG] update_host_mtx : 38 ms
[OGL LOG] matrix is not yet sorted, sorting host matrix
[OGL LOG] sort_host_mtx_sparsity_pattern : 57 ms
[OGL LOG] sort_host_mtx : 27 ms
[OGL LOG] init_preconditioner : 0 ms
[OGL LOG] solve : 2347 ms
BJompGKOBiCGStab:  Solving for p, Initial residual = 0.656082, Final residual = 9.83886e-05, No Iterations 293
linear solve p 2580
time step continuity errors : sum local = 3.00104e-07, global = -5.95578e-21, cumulative = -4.99541e-21
[OGL LOG] init_host_sparsity_pattern : 72 ms
[OGL LOG] matrix not stored update host matrix
[OGL LOG] update_host_mtx : 35 ms
[OGL LOG] matrix is not yet sorted, sorting host matrix
[OGL LOG] sort_host_mtx_sparsity_pattern : 55 ms
[OGL LOG] sort_host_mtx : 27 ms
[OGL LOG] init_preconditioner : 0 ms
[OGL LOG] solve : 2030 ms
BJompGKOBiCGStab:  Solving for p, Initial residual = 0.573155, Final residual = 9.48744e-05, No Iterations 279
linear solve p 2255
time step continuity errors : sum local = 7.15116e-07, global = -1.1404e-20, cumulative = -1.63994e-20
ExecutionTime = 205.81 s  ClockTime = 15 s

Time = 0.003

Courant Number mean: 0.050217 max: 0.55656
nonePBiCGStab:  Solving for Ux, Initial residual = 0.0550443, Final residual = 0.0059378, No Iterations 5
nonePBiCGStab:  Solving for Uy, Initial residual = 0.127129, Final residual = 0.0172465, No Iterations 5
nonePBiCGStab:  Solving for Uz, Initial residual = 0.419092, Final residual = 0.0801437, No Iterations 5
linear solve U 137
[OGL LOG] init_host_sparsity_pattern : 74 ms
[OGL LOG] matrix not stored update host matrix
[OGL LOG] update_host_mtx : 40 ms
[OGL LOG] matrix is not yet sorted, sorting host matrix
[OGL LOG] sort_host_mtx_sparsity_pattern : 55 ms
[OGL LOG] sort_host_mtx : 27 ms
[OGL LOG] init_preconditioner : 0 ms
[OGL LOG] solve : 2181 ms
BJompGKOBiCGStab:  Solving for p, Initial residual = 0.56005, Final residual = 9.29969e-05, No Iterations 274
linear solve p 2415
time step continuity errors : sum local = 5.87767e-08, global = -9.62494e-21, cumulative = -2.60243e-20
[OGL LOG] init_host_sparsity_pattern : 72 ms
[OGL LOG] matrix not stored update host matrix
[OGL LOG] update_host_mtx : 35 ms
[OGL LOG] matrix is not yet sorted, sorting host matrix
[OGL LOG] sort_host_mtx_sparsity_pattern : 57 ms
[OGL LOG] sort_host_mtx : 27 ms
[OGL LOG] init_preconditioner : 0 ms
[OGL LOG] solve : 2461 ms
BJompGKOBiCGStab:  Solving for p, Initial residual = 0.49354, Final residual = 7.95359e-05, No Iterations 316
linear solve p 2688
time step continuity errors : sum local = 1.20607e-07, global = 1.74799e-20, cumulative = -8.54446e-21
ExecutionTime = 299.5 s  ClockTime = 21 s

Time = 0.004

Courant Number mean: 0.0602493 max: 0.574975
nonePBiCGStab:  Solving for Ux, Initial residual = 0.0333356, Final residual = 0.00320458, No Iterations 5
nonePBiCGStab:  Solving for Uy, Initial residual = 0.0811308, Final residual = 0.00718692, No Iterations 5
nonePBiCGStab:  Solving for Uz, Initial residual = 0.236401, Final residual = 0.0297937, No Iterations 5
linear solve U 137
[OGL LOG] init_host_sparsity_pattern : 74 ms
[OGL LOG] matrix not stored update host matrix
[OGL LOG] update_host_mtx : 40 ms
[OGL LOG] matrix is not yet sorted, sorting host matrix
[OGL LOG] sort_host_mtx_sparsity_pattern : 55 ms
[OGL LOG] sort_host_mtx : 27 ms
[OGL LOG] init_preconditioner : 0 ms
[OGL LOG] solve : 2454 ms
BJompGKOBiCGStab:  Solving for p, Initial residual = 0.357468, Final residual = 8.22648e-05, No Iterations 309
linear solve p 2689
time step continuity errors : sum local = 8.75687e-08, global = -8.66775e-21, cumulative = -1.72122e-20
[OGL LOG] init_host_sparsity_pattern : 72 ms
[OGL LOG] matrix not stored update host matrix
[OGL LOG] update_host_mtx : 35 ms
[OGL LOG] matrix is not yet sorted, sorting host matrix
[OGL LOG] sort_host_mtx_sparsity_pattern : 57 ms
[OGL LOG] sort_host_mtx : 27 ms
[OGL LOG] init_preconditioner : 0 ms
[OGL LOG] solve : 2057 ms
BJompGKOBiCGStab:  Solving for p, Initial residual = 0.295903, Final residual = 9.59014e-05, No Iterations 273
linear solve p 2284
time step continuity errors : sum local = 6.26895e-08, global = -9.77736e-21, cumulative = -2.69896e-20
ExecutionTime = 390.58 s  ClockTime = 26 s

Time = 0.005

Courant Number mean: 0.0682324 max: 0.58561
nonePBiCGStab:  Solving for Ux, Initial residual = 0.0236558, Final residual = 0.00196628, No Iterations 5
nonePBiCGStab:  Solving for Uy, Initial residual = 0.0533413, Final residual = 0.00423006, No Iterations 5
nonePBiCGStab:  Solving for Uz, Initial residual = 0.126822, Final residual = 0.0165154, No Iterations 5
linear solve U 137
[OGL LOG] init_host_sparsity_pattern : 74 ms
[OGL LOG] matrix not stored update host matrix
[OGL LOG] update_host_mtx : 40 ms
[OGL LOG] matrix is not yet sorted, sorting host matrix
[OGL LOG] sort_host_mtx_sparsity_pattern : 56 ms
[OGL LOG] sort_host_mtx : 28 ms
[OGL LOG] init_preconditioner : 0 ms
[OGL LOG] solve : 1706 ms
BJompGKOBiCGStab:  Solving for p, Initial residual = 0.276225, Final residual = 9.36185e-05, No Iterations 216
linear solve p 1941
time step continuity errors : sum local = 1.53406e-06, global = -2.70625e-21, cumulative = -2.96958e-20
[OGL LOG] init_host_sparsity_pattern : 72 ms
[OGL LOG] matrix not stored update host matrix
[OGL LOG] update_host_mtx : 35 ms
[OGL LOG] matrix is not yet sorted, sorting host matrix
[OGL LOG] sort_host_mtx_sparsity_pattern : 57 ms
[OGL LOG] sort_host_mtx : 27 ms
[OGL LOG] init_preconditioner : 0 ms
[OGL LOG] solve : 936 ms
BJompGKOBiCGStab:  Solving for p, Initial residual = 0.236407, Final residual = 9.73936e-05, No Iterations 119
linear solve p 1162
time step continuity errors : sum local = 6.72076e-08, global = -2.28091e-20, cumulative = -5.25049e-20
ExecutionTime = 444.41 s  ClockTime = 30 s

Time = 0.006

Courant Number mean: 0.0745098 max: 0.59219
nonePBiCGStab:  Solving for Ux, Initial residual = 0.0177693, Final residual = 0.0014128, No Iterations 5
nonePBiCGStab:  Solving for Uy, Initial residual = 0.0399194, Final residual = 0.00242967, No Iterations 5
nonePBiCGStab:  Solving for Uz, Initial residual = 0.101501, Final residual = 0.014838, No Iterations 5
linear solve U 136
[OGL LOG] init_host_sparsity_pattern : 74 ms
[OGL LOG] matrix not stored update host matrix
[OGL LOG] update_host_mtx : 40 ms
[OGL LOG] matrix is not yet sorted, sorting host matrix
[OGL LOG] sort_host_mtx_sparsity_pattern : 55 ms
[OGL LOG] sort_host_mtx : 27 ms
[OGL LOG] init_preconditioner : 0 ms
[OGL LOG] solve : 2442 ms
BJompGKOBiCGStab:  Solving for p, Initial residual = 0.192461, Final residual = 7.31734e-05, No Iterations 309
linear solve p 2672
time step continuity errors : sum local = 5.39713e-08, global = -8.51821e-21, cumulative = -6.10231e-20
[OGL LOG] init_host_sparsity_pattern : 72 ms
[OGL LOG] matrix not stored update host matrix
[OGL LOG] update_host_mtx : 35 ms
[OGL LOG] matrix is not yet sorted, sorting host matrix
[OGL LOG] sort_host_mtx_sparsity_pattern : 55 ms
[OGL LOG] sort_host_mtx : 27 ms
[OGL LOG] init_preconditioner : 0 ms
[OGL LOG] solve : 1933 ms
BJompGKOBiCGStab:  Solving for p, Initial residual = 0.160599, Final residual = 9.28392e-05, No Iterations 247
linear solve p 2156
time step continuity errors : sum local = 5.30613e-08, global = -9.12107e-21, cumulative = -7.01442e-20
ExecutionTime = 532.74 s  ClockTime = 35 s

Time = 0.007

Courant Number mean: 0.0797149 max: 0.596667
nonePBiCGStab:  Solving for Ux, Initial residual = 0.0140147, Final residual = 0.000703354, No Iterations 5
nonePBiCGStab:  Solving for Uy, Initial residual = 0.0316174, Final residual = 0.00129112, No Iterations 5
nonePBiCGStab:  Solving for Uz, Initial residual = 0.0743765, Final residual = 0.00641327, No Iterations 5
linear solve U 136
[OGL LOG] init_host_sparsity_pattern : 74 ms
[OGL LOG] matrix not stored update host matrix
[OGL LOG] update_host_mtx : 40 ms
[OGL LOG] matrix is not yet sorted, sorting host matrix
[OGL LOG] sort_host_mtx_sparsity_pattern : 55 ms
[OGL LOG] sort_host_mtx : 27 ms
[OGL LOG] init_preconditioner : 0 ms
[OGL LOG] solve : 2013 ms
BJompGKOBiCGStab:  Solving for p, Initial residual = 0.137228, Final residual = 7.81479e-05, No Iterations 255
linear solve p 2243
time step continuity errors : sum local = 4.16516e-08, global = -9.21339e-21, cumulative = -7.93576e-20
[OGL LOG] init_host_sparsity_pattern : 72 ms
[OGL LOG] matrix not stored update host matrix
[OGL LOG] update_host_mtx : 35 ms
[OGL LOG] matrix is not yet sorted, sorting host matrix
[OGL LOG] sort_host_mtx_sparsity_pattern : 55 ms
[OGL LOG] sort_host_mtx : 27 ms
[OGL LOG] init_preconditioner : 0 ms
[OGL LOG] solve : 867 ms
BJompGKOBiCGStab:  Solving for p, Initial residual = 0.114429, Final residual = 9.8398e-05, No Iterations 109
linear solve p 1092
time step continuity errors : sum local = 8.93479e-08, global = 4.11921e-21, cumulative = -7.52383e-20
ExecutionTime = 591.3 s  ClockTime = 38 s

Time = 0.008

Courant Number mean: 0.0840874 max: 0.600063
nonePBiCGStab:  Solving for Ux, Initial residual = 0.0114485, Final residual = 0.000553843, No Iterations 5
nonePBiCGStab:  Solving for Uy, Initial residual = 0.0254288, Final residual = 0.000988877, No Iterations 5
nonePBiCGStab:  Solving for Uz, Initial residual = 0.0627087, Final residual = 0.00782228, No Iterations 5
linear solve U 137
[OGL LOG] init_host_sparsity_pattern : 74 ms
[OGL LOG] matrix not stored update host matrix
[OGL LOG] update_host_mtx : 40 ms
[OGL LOG] matrix is not yet sorted, sorting host matrix
[OGL LOG] sort_host_mtx_sparsity_pattern : 55 ms
[OGL LOG] sort_host_mtx : 27 ms
[OGL LOG] init_preconditioner : 0 ms
[OGL LOG] solve : 1969 ms
BJompGKOBiCGStab:  Solving for p, Initial residual = 0.0954369, Final residual = 9.95922e-05, No Iterations 249
linear solve p 2204
time step continuity errors : sum local = 6.66765e-08, global = -6.37642e-21, cumulative = -8.16148e-20
[OGL LOG] init_host_sparsity_pattern : 72 ms
[OGL LOG] matrix not stored update host matrix
[OGL LOG] update_host_mtx : 35 ms
[OGL LOG] matrix is not yet sorted, sorting host matrix
[OGL LOG] sort_host_mtx_sparsity_pattern : 57 ms
[OGL LOG] sort_host_mtx : 27 ms
[OGL LOG] init_preconditioner : 0 ms
[OGL LOG] solve : 2034 ms
BJompGKOBiCGStab:  Solving for p, Initial residual = 0.0797883, Final residual = 9.93953e-05, No Iterations 259
linear solve p 2259
time step continuity errors : sum local = 4.71252e-08, global = 3.278e-20, cumulative = -4.88348e-20
ExecutionTime = 672.24 s  ClockTime = 43 s

Time = 0.009

Courant Number mean: 0.0878393 max: 0.602611
nonePBiCGStab:  Solving for Ux, Initial residual = 0.00961069, Final residual = 0.000446308, No Iterations 5
nonePBiCGStab:  Solving for Uy, Initial residual = 0.0215301, Final residual = 0.000709417, No Iterations 5
nonePBiCGStab:  Solving for Uz, Initial residual = 0.0555336, Final residual = 0.00418589, No Iterations 5
linear solve U 136
[OGL LOG] init_host_sparsity_pattern : 74 ms
[OGL LOG] matrix not stored update host matrix
[OGL LOG] update_host_mtx : 41 ms
[OGL LOG] matrix is not yet sorted, sorting host matrix
[OGL LOG] sort_host_mtx_sparsity_pattern : 55 ms
[OGL LOG] sort_host_mtx : 27 ms
[OGL LOG] init_preconditioner : 0 ms
[OGL LOG] solve : 1628 ms
BJompGKOBiCGStab:  Solving for p, Initial residual = 0.0704171, Final residual = 9.98515e-05, No Iterations 206
linear solve p 1859
time step continuity errors : sum local = 1.26496e-07, global = -5.21936e-21, cumulative = -5.40542e-20
[OGL LOG] init_host_sparsity_pattern : 72 ms
[OGL LOG] matrix not stored update host matrix
[OGL LOG] update_host_mtx : 35 ms
[OGL LOG] matrix is not yet sorted, sorting host matrix
[OGL LOG] sort_host_mtx_sparsity_pattern : 55 ms
[OGL LOG] sort_host_mtx : 27 ms
[OGL LOG] init_preconditioner : 0 ms
[OGL LOG] solve : 856 ms
BJompGKOBiCGStab:  Solving for p, Initial residual = 0.0592077, Final residual = 9.27658e-05, No Iterations 109
linear solve p 1078
time step continuity errors : sum local = 5.70804e-08, global = 5.0223e-21, cumulative = -4.90319e-20
ExecutionTime = 722.88 s  ClockTime = 46 s

Time = 0.01

Courant Number mean: 0.0911038 max: 0.604761
nonePBiCGStab:  Solving for Ux, Initial residual = 0.00814375, Final residual = 0.000380294, No Iterations 5
nonePBiCGStab:  Solving for Uy, Initial residual = 0.0181521, Final residual = 0.000572074, No Iterations 5
nonePBiCGStab:  Solving for Uz, Initial residual = 0.0464947, Final residual = 0.00458156, No Iterations 5
linear solve U 136
[OGL LOG] init_host_sparsity_pattern : 74 ms
[OGL LOG] matrix not stored update host matrix
[OGL LOG] update_host_mtx : 40 ms
[OGL LOG] matrix is not yet sorted, sorting host matrix
[OGL LOG] sort_host_mtx_sparsity_pattern : 56 ms
[OGL LOG] sort_host_mtx : 27 ms
[OGL LOG] init_preconditioner : 0 ms
[OGL LOG] solve : 941 ms
BJompGKOBiCGStab:  Solving for p, Initial residual = 0.0525611, Final residual = 9.97383e-05, No Iterations 119
linear solve p 1171
time step continuity errors : sum local = 8.50831e-08, global = 1.12459e-20, cumulative = -3.77859e-20
[OGL LOG] init_host_sparsity_pattern : 72 ms
[OGL LOG] matrix not stored update host matrix
[OGL LOG] update_host_mtx : 35 ms
[OGL LOG] matrix is not yet sorted, sorting host matrix
[OGL LOG] sort_host_mtx_sparsity_pattern : 55 ms
[OGL LOG] sort_host_mtx : 27 ms
[OGL LOG] init_preconditioner : 0 ms
[OGL LOG] solve : 883 ms
BJompGKOBiCGStab:  Solving for p, Initial residual = 0.0444301, Final residual = 9.71481e-05, No Iterations 112
linear solve p 1106
time step continuity errors : sum local = 5.70297e-08, global = -1.22461e-21, cumulative = -3.90105e-20
ExecutionTime = 760.38 s  ClockTime = 49 s

End

