/*---------------------------------------------------------------------------*\
  =========                 |
  \\      /  F ield         | OpenFOAM: The Open Source CFD Toolbox
   \\    /   O peration     | Website:  https://openfoam.org
    \\  /    A nd           | Version:  8
     \\/     M anipulation  |
\*---------------------------------------------------------------------------*/
Build  : 8-40a5a48f630f
Exec   : icoFoam
Date   : Jul 28 2021
Time   : 12:02:04
Host   : "uc2n397.localdomain"
PID    : 265775
I/O    : uncollated
Case   : /pfs/data5/home/kit/scc/nq7776/code/OBR/lidDrivenCavity3D/Variation_mesh/25/Variation_matrix_solver/BiCGStab_NoPrecond_OMP/base
nProcs : 1
sigFpe : Enabling floating point exception trapping (FOAM_SIGFPE).
fileModificationChecking : Monitoring run-time modified files using timeStampMaster (fileModificationSkew 10)
allowSystemOperations : Allowing user-supplied system call operations

// * * * * * * * * * * * * * * * * * * * * * * * * * * * * * * * * * * * * * //
Create time

Create mesh for time = 0

Reading transportProperties

Reading field p

Reading field U

Reading/calculating face flux field phi


Starting time loop

Time = 0.001

Courant Number mean: 0 max: 0
nonePBiCGStab:  Solving for Ux, Initial residual = 1, Final residual = 0.00310183, No Iterations 5
nonePBiCGStab:  Solving for Uy, Initial residual = 0, Final residual = 0, No Iterations 0
nonePBiCGStab:  Solving for Uz, Initial residual = 0, Final residual = 0, No Iterations 0
linear solve U 2
[OGL LOG] init_host_sparsity_pattern : 4 ms
[OGL LOG] matrix not stored update host matrix
[OGL LOG] update_host_mtx : 2 ms
[OGL LOG] matrix is not yet sorted, compute sorting idxs
[OGL LOG] compute_sort : 105 ms
[OGL LOG] matrix is not yet sorted, sorting host matrix
[OGL LOG] sort_host_mtx_sparsity_pattern : 3 ms
[OGL LOG] sort_host_mtx : 1 ms
[OGL LOG] init_preconditioner : 0 ms
[OGL LOG] solve : 64 ms
noneompGKOBiCGStab:  Solving for p, Initial residual = 1, Final residual = 7.67433e-05, No Iterations 160
linear solve p 186
time step continuity errors : sum local = 1.49115e-07, global = -1.89375e-20, cumulative = -1.89375e-20
[OGL LOG] init_host_sparsity_pattern : 4 ms
[OGL LOG] matrix not stored update host matrix
[OGL LOG] update_host_mtx : 2 ms
[OGL LOG] matrix is not yet sorted, sorting host matrix
[OGL LOG] sort_host_mtx_sparsity_pattern : 3 ms
[OGL LOG] sort_host_mtx : 1 ms
[OGL LOG] init_preconditioner : 0 ms
[OGL LOG] solve : 65 ms
noneompGKOBiCGStab:  Solving for p, Initial residual = 0.480772, Final residual = 9.14798e-05, No Iterations 161
linear solve p 77
time step continuity errors : sum local = 3.99477e-07, global = 2.30586e-20, cumulative = 4.12117e-21
ExecutionTime = 0.77 s  ClockTime = 0 s

Time = 0.002

Courant Number mean: 0.0119709 max: 0.106554
nonePBiCGStab:  Solving for Ux, Initial residual = 0.210816, Final residual = 0.000695341, No Iterations 5
nonePBiCGStab:  Solving for Uy, Initial residual = 0.284548, Final residual = 0.000646805, No Iterations 5
nonePBiCGStab:  Solving for Uz, Initial residual = 0.878351, Final residual = 0.00338093, No Iterations 5
linear solve U 5
[OGL LOG] init_host_sparsity_pattern : 4 ms
[OGL LOG] matrix not stored update host matrix
[OGL LOG] update_host_mtx : 2 ms
[OGL LOG] matrix is not yet sorted, sorting host matrix
[OGL LOG] sort_host_mtx_sparsity_pattern : 3 ms
[OGL LOG] sort_host_mtx : 1 ms
[OGL LOG] init_preconditioner : 0 ms
[OGL LOG] solve : 60 ms
noneompGKOBiCGStab:  Solving for p, Initial residual = 0.286093, Final residual = 9.16084e-05, No Iterations 151
linear solve p 73
time step continuity errors : sum local = 5.7826e-07, global = 3.63442e-22, cumulative = 4.48461e-21
[OGL LOG] init_host_sparsity_pattern : 4 ms
[OGL LOG] matrix not stored update host matrix
[OGL LOG] update_host_mtx : 2 ms
[OGL LOG] matrix is not yet sorted, sorting host matrix
[OGL LOG] sort_host_mtx_sparsity_pattern : 3 ms
[OGL LOG] sort_host_mtx : 1 ms
[OGL LOG] init_preconditioner : 0 ms
[OGL LOG] solve : 57 ms
noneompGKOBiCGStab:  Solving for p, Initial residual = 0.189722, Final residual = 8.64759e-05, No Iterations 143
linear solve p 70
time step continuity errors : sum local = 7.93122e-07, global = 5.22985e-22, cumulative = 5.0076e-21
ExecutionTime = 1.31 s  ClockTime = 0 s

Time = 0.003

Courant Number mean: 0.0188464 max: 0.153564
nonePBiCGStab:  Solving for Ux, Initial residual = 0.0900154, Final residual = 0.000292215, No Iterations 5
nonePBiCGStab:  Solving for Uy, Initial residual = 0.124842, Final residual = 0.000202522, No Iterations 5
nonePBiCGStab:  Solving for Uz, Initial residual = 0.270866, Final residual = 0.000961067, No Iterations 5
linear solve U 5
[OGL LOG] init_host_sparsity_pattern : 4 ms
[OGL LOG] matrix not stored update host matrix
[OGL LOG] update_host_mtx : 2 ms
[OGL LOG] matrix is not yet sorted, sorting host matrix
[OGL LOG] sort_host_mtx_sparsity_pattern : 3 ms
[OGL LOG] sort_host_mtx : 1 ms
[OGL LOG] init_preconditioner : 0 ms
[OGL LOG] solve : 49 ms
noneompGKOBiCGStab:  Solving for p, Initial residual = 0.103812, Final residual = 9.98817e-05, No Iterations 123
linear solve p 62
time step continuity errors : sum local = 1.60449e-07, global = 2.13944e-20, cumulative = 2.6402e-20
[OGL LOG] init_host_sparsity_pattern : 4 ms
[OGL LOG] matrix not stored update host matrix
[OGL LOG] update_host_mtx : 2 ms
[OGL LOG] matrix is not yet sorted, sorting host matrix
[OGL LOG] sort_host_mtx_sparsity_pattern : 3 ms
[OGL LOG] sort_host_mtx : 1 ms
[OGL LOG] init_preconditioner : 0 ms
[OGL LOG] solve : 54 ms
noneompGKOBiCGStab:  Solving for p, Initial residual = 0.0702065, Final residual = 9.0604e-05, No Iterations 134
linear solve p 67
time step continuity errors : sum local = 1.18687e-06, global = 8.77308e-21, cumulative = 3.51751e-20
ExecutionTime = 1.79 s  ClockTime = 0 s

Time = 0.004

Courant Number mean: 0.0233146 max: 0.175119
nonePBiCGStab:  Solving for Ux, Initial residual = 0.0520836, Final residual = 0.000103178, No Iterations 5
nonePBiCGStab:  Solving for Uy, Initial residual = 0.0743303, Final residual = 5.97604e-05, No Iterations 5
nonePBiCGStab:  Solving for Uz, Initial residual = 0.130332, Final residual = 0.000230751, No Iterations 5
linear solve U 5
[OGL LOG] init_host_sparsity_pattern : 4 ms
[OGL LOG] matrix not stored update host matrix
[OGL LOG] update_host_mtx : 2 ms
[OGL LOG] matrix is not yet sorted, sorting host matrix
[OGL LOG] sort_host_mtx_sparsity_pattern : 2 ms
[OGL LOG] sort_host_mtx : 1 ms
[OGL LOG] init_preconditioner : 0 ms
[OGL LOG] solve : 24 ms
noneompGKOBiCGStab:  Solving for p, Initial residual = 0.056492, Final residual = 8.2687e-05, No Iterations 60
linear solve p 36
time step continuity errors : sum local = 9.30199e-08, global = -2.54275e-21, cumulative = 3.26323e-20
[OGL LOG] init_host_sparsity_pattern : 4 ms
[OGL LOG] matrix not stored update host matrix
[OGL LOG] update_host_mtx : 2 ms
[OGL LOG] matrix is not yet sorted, sorting host matrix
[OGL LOG] sort_host_mtx_sparsity_pattern : 3 ms
[OGL LOG] sort_host_mtx : 1 ms
[OGL LOG] init_preconditioner : 0 ms
[OGL LOG] solve : 24 ms
noneompGKOBiCGStab:  Solving for p, Initial residual = 0.0373508, Final residual = 9.07544e-05, No Iterations 60
linear solve p 37
time step continuity errors : sum local = 1.39566e-07, global = -2.82295e-20, cumulative = 4.40283e-21
ExecutionTime = 2.05 s  ClockTime = 0 s

Time = 0.005

Courant Number mean: 0.0264937 max: 0.186504
nonePBiCGStab:  Solving for Ux, Initial residual = 0.0351594, Final residual = 4.3589e-05, No Iterations 5
nonePBiCGStab:  Solving for Uy, Initial residual = 0.0507996, Final residual = 2.83326e-05, No Iterations 5
nonePBiCGStab:  Solving for Uz, Initial residual = 0.0918636, Final residual = 0.000195712, No Iterations 5
linear solve U 5
[OGL LOG] init_host_sparsity_pattern : 4 ms
[OGL LOG] matrix not stored update host matrix
[OGL LOG] update_host_mtx : 2 ms
[OGL LOG] matrix is not yet sorted, sorting host matrix
[OGL LOG] sort_host_mtx_sparsity_pattern : 3 ms
[OGL LOG] sort_host_mtx : 1 ms
[OGL LOG] init_preconditioner : 0 ms
[OGL LOG] solve : 21 ms
noneompGKOBiCGStab:  Solving for p, Initial residual = 0.0352203, Final residual = 7.80437e-05, No Iterations 53
linear solve p 34
time step continuity errors : sum local = 9.37056e-08, global = 3.14262e-20, cumulative = 3.58291e-20
[OGL LOG] init_host_sparsity_pattern : 4 ms
[OGL LOG] matrix not stored update host matrix
[OGL LOG] update_host_mtx : 2 ms
[OGL LOG] matrix is not yet sorted, sorting host matrix
[OGL LOG] sort_host_mtx_sparsity_pattern : 2 ms
[OGL LOG] sort_host_mtx : 1 ms
[OGL LOG] init_preconditioner : 0 ms
[OGL LOG] solve : 23 ms
noneompGKOBiCGStab:  Solving for p, Initial residual = 0.0232397, Final residual = 9.91303e-05, No Iterations 57
linear solve p 35
time step continuity errors : sum local = 1.3363e-07, global = -8.0678e-21, cumulative = 2.77613e-20
ExecutionTime = 2.29 s  ClockTime = 0 s

Time = 0.006

Courant Number mean: 0.0288953 max: 0.193336
nonePBiCGStab:  Solving for Ux, Initial residual = 0.025963, Final residual = 1.49226e-05, No Iterations 5
nonePBiCGStab:  Solving for Uy, Initial residual = 0.0379837, Final residual = 1.61314e-05, No Iterations 5
nonePBiCGStab:  Solving for Uz, Initial residual = 0.070781, Final residual = 6.94112e-05, No Iterations 5
linear solve U 5
[OGL LOG] init_host_sparsity_pattern : 4 ms
[OGL LOG] matrix not stored update host matrix
[OGL LOG] update_host_mtx : 2 ms
[OGL LOG] matrix is not yet sorted, sorting host matrix
[OGL LOG] sort_host_mtx_sparsity_pattern : 3 ms
[OGL LOG] sort_host_mtx : 1 ms
[OGL LOG] init_preconditioner : 0 ms
[OGL LOG] solve : 20 ms
noneompGKOBiCGStab:  Solving for p, Initial residual = 0.0245509, Final residual = 9.89563e-05, No Iterations 50
linear solve p 33
time step continuity errors : sum local = 1.44032e-07, global = -1.4692e-20, cumulative = 1.30693e-20
[OGL LOG] init_host_sparsity_pattern : 4 ms
[OGL LOG] matrix not stored update host matrix
[OGL LOG] update_host_mtx : 2 ms
[OGL LOG] matrix is not yet sorted, sorting host matrix
[OGL LOG] sort_host_mtx_sparsity_pattern : 2 ms
[OGL LOG] sort_host_mtx : 1 ms
[OGL LOG] init_preconditioner : 0 ms
[OGL LOG] solve : 20 ms
noneompGKOBiCGStab:  Solving for p, Initial residual = 0.0164541, Final residual = 9.57809e-05, No Iterations 51
linear solve p 33
time step continuity errors : sum local = 1.29322e-07, global = -3.70228e-20, cumulative = -2.39535e-20
ExecutionTime = 2.52 s  ClockTime = 1 s

Time = 0.007

Courant Number mean: 0.030831 max: 0.197891
nonePBiCGStab:  Solving for Ux, Initial residual = 0.0203504, Final residual = 7.73032e-06, No Iterations 5
nonePBiCGStab:  Solving for Uy, Initial residual = 0.0300512, Final residual = 9.78576e-06, No Iterations 5
nonePBiCGStab:  Solving for Uz, Initial residual = 0.0575178, Final residual = 4.54509e-05, No Iterations 5
linear solve U 5
[OGL LOG] init_host_sparsity_pattern : 4 ms
[OGL LOG] matrix not stored update host matrix
[OGL LOG] update_host_mtx : 2 ms
[OGL LOG] matrix is not yet sorted, sorting host matrix
[OGL LOG] sort_host_mtx_sparsity_pattern : 3 ms
[OGL LOG] sort_host_mtx : 1 ms
[OGL LOG] init_preconditioner : 0 ms
[OGL LOG] solve : 20 ms
noneompGKOBiCGStab:  Solving for p, Initial residual = 0.0187941, Final residual = 8.17204e-05, No Iterations 51
linear solve p 33
time step continuity errors : sum local = 9.23029e-08, global = 2.50731e-20, cumulative = 1.11954e-21
[OGL LOG] init_host_sparsity_pattern : 4 ms
[OGL LOG] matrix not stored update host matrix
[OGL LOG] update_host_mtx : 2 ms
[OGL LOG] matrix is not yet sorted, sorting host matrix
[OGL LOG] sort_host_mtx_sparsity_pattern : 3 ms
[OGL LOG] sort_host_mtx : 1 ms
[OGL LOG] init_preconditioner : 0 ms
[OGL LOG] solve : 18 ms
noneompGKOBiCGStab:  Solving for p, Initial residual = 0.0127231, Final residual = 9.56228e-05, No Iterations 46
linear solve p 31
time step continuity errors : sum local = 1.13877e-07, global = 9.54825e-21, cumulative = 1.06678e-20
ExecutionTime = 2.74 s  ClockTime = 1 s

Time = 0.008

Courant Number mean: 0.0324763 max: 0.201172
nonePBiCGStab:  Solving for Ux, Initial residual = 0.0165264, Final residual = 4.96419e-06, No Iterations 5
nonePBiCGStab:  Solving for Uy, Initial residual = 0.0246205, Final residual = 6.31401e-06, No Iterations 5
nonePBiCGStab:  Solving for Uz, Initial residual = 0.0480165, Final residual = 3.19749e-05, No Iterations 5
linear solve U 5
[OGL LOG] init_host_sparsity_pattern : 4 ms
[OGL LOG] matrix not stored update host matrix
[OGL LOG] update_host_mtx : 2 ms
[OGL LOG] matrix is not yet sorted, sorting host matrix
[OGL LOG] sort_host_mtx_sparsity_pattern : 3 ms
[OGL LOG] sort_host_mtx : 1 ms
[OGL LOG] init_preconditioner : 0 ms
[OGL LOG] solve : 21 ms
noneompGKOBiCGStab:  Solving for p, Initial residual = 0.0149779, Final residual = 9.98072e-05, No Iterations 52
linear solve p 33
time step continuity errors : sum local = 1.22264e-07, global = 3.23314e-21, cumulative = 1.39009e-20
[OGL LOG] init_host_sparsity_pattern : 4 ms
[OGL LOG] matrix not stored update host matrix
[OGL LOG] update_host_mtx : 2 ms
[OGL LOG] matrix is not yet sorted, sorting host matrix
[OGL LOG] sort_host_mtx_sparsity_pattern : 3 ms
[OGL LOG] sort_host_mtx : 1 ms
[OGL LOG] init_preconditioner : 0 ms
[OGL LOG] solve : 20 ms
noneompGKOBiCGStab:  Solving for p, Initial residual = 0.0102377, Final residual = 9.72966e-05, No Iterations 50
linear solve p 33
time step continuity errors : sum local = 1.09875e-07, global = -6.00956e-20, cumulative = -4.61947e-20
ExecutionTime = 2.97 s  ClockTime = 1 s

Time = 0.009

Courant Number mean: 0.0338806 max: 0.203668
nonePBiCGStab:  Solving for Ux, Initial residual = 0.0137926, Final residual = 3.20075e-06, No Iterations 5
nonePBiCGStab:  Solving for Uy, Initial residual = 0.0206931, Final residual = 4.26543e-06, No Iterations 5
nonePBiCGStab:  Solving for Uz, Initial residual = 0.0410392, Final residual = 2.11395e-05, No Iterations 5
linear solve U 5
[OGL LOG] init_host_sparsity_pattern : 4 ms
[OGL LOG] matrix not stored update host matrix
[OGL LOG] update_host_mtx : 2 ms
[OGL LOG] matrix is not yet sorted, sorting host matrix
[OGL LOG] sort_host_mtx_sparsity_pattern : 3 ms
[OGL LOG] sort_host_mtx : 1 ms
[OGL LOG] init_preconditioner : 0 ms
[OGL LOG] solve : 21 ms
noneompGKOBiCGStab:  Solving for p, Initial residual = 0.0125472, Final residual = 7.94862e-05, No Iterations 52
linear solve p 33
time step continuity errors : sum local = 1.79655e-07, global = -9.55869e-21, cumulative = -5.57534e-20
[OGL LOG] init_host_sparsity_pattern : 4 ms
[OGL LOG] matrix not stored update host matrix
[OGL LOG] update_host_mtx : 2 ms
[OGL LOG] matrix is not yet sorted, sorting host matrix
[OGL LOG] sort_host_mtx_sparsity_pattern : 2 ms
[OGL LOG] sort_host_mtx : 1 ms
[OGL LOG] init_preconditioner : 0 ms
[OGL LOG] solve : 19 ms
noneompGKOBiCGStab:  Solving for p, Initial residual = 0.00871051, Final residual = 8.98441e-05, No Iterations 48
linear solve p 32
time step continuity errors : sum local = 9.87959e-08, global = 5.31877e-21, cumulative = -5.04346e-20
ExecutionTime = 3.2 s  ClockTime = 1 s

Time = 0.01

Courant Number mean: 0.0350919 max: 0.205643
nonePBiCGStab:  Solving for Ux, Initial residual = 0.0117205, Final residual = 2.22841e-06, No Iterations 5
nonePBiCGStab:  Solving for Uy, Initial residual = 0.0177268, Final residual = 3.16083e-06, No Iterations 5
nonePBiCGStab:  Solving for Uz, Initial residual = 0.0356761, Final residual = 1.60913e-05, No Iterations 5
linear solve U 5
[OGL LOG] init_host_sparsity_pattern : 4 ms
[OGL LOG] matrix not stored update host matrix
[OGL LOG] update_host_mtx : 2 ms
[OGL LOG] matrix is not yet sorted, sorting host matrix
[OGL LOG] sort_host_mtx_sparsity_pattern : 3 ms
[OGL LOG] sort_host_mtx : 1 ms
[OGL LOG] init_preconditioner : 0 ms
[OGL LOG] solve : 20 ms
noneompGKOBiCGStab:  Solving for p, Initial residual = 0.0106831, Final residual = 8.56858e-05, No Iterations 50
linear solve p 32
time step continuity errors : sum local = 1.00603e-07, global = 1.93056e-20, cumulative = -3.1129e-20
[OGL LOG] init_host_sparsity_pattern : 4 ms
[OGL LOG] matrix not stored update host matrix
[OGL LOG] update_host_mtx : 2 ms
[OGL LOG] matrix is not yet sorted, sorting host matrix
[OGL LOG] sort_host_mtx_sparsity_pattern : 3 ms
[OGL LOG] sort_host_mtx : 1 ms
[OGL LOG] init_preconditioner : 0 ms
[OGL LOG] solve : 19 ms
noneompGKOBiCGStab:  Solving for p, Initial residual = 0.00739997, Final residual = 9.5323e-05, No Iterations 47
linear solve p 32
time step continuity errors : sum local = 1.16294e-07, global = 4.41115e-21, cumulative = -2.67179e-20
ExecutionTime = 3.42 s  ClockTime = 1 s

End

