/*---------------------------------------------------------------------------*\
  =========                 |
  \\      /  F ield         | OpenFOAM: The Open Source CFD Toolbox
   \\    /   O peration     | Website:  https://openfoam.org
    \\  /    A nd           | Version:  8
     \\/     M anipulation  |
\*---------------------------------------------------------------------------*/
Build  : 8-40a5a48f630f
Exec   : icoFoam
Date   : Jul 28 2021
Time   : 13:30:20
Host   : "uc2n449.localdomain"
PID    : 1431256
I/O    : uncollated
Case   : /pfs/data5/home/kit/scc/nq7776/code/OBR/lidDrivenCavity3D/Variation_mesh/100/Variation_matrix_solver/BiCGStab_DIC_Serial/base
nProcs : 1
sigFpe : Enabling floating point exception trapping (FOAM_SIGFPE).
fileModificationChecking : Monitoring run-time modified files using timeStampMaster (fileModificationSkew 10)
allowSystemOperations : Allowing user-supplied system call operations

// * * * * * * * * * * * * * * * * * * * * * * * * * * * * * * * * * * * * * //
Create time

Create mesh for time = 0

Reading transportProperties

Reading field p

Reading field U

Reading/calculating face flux field phi


Starting time loop

Time = 0.001

Courant Number mean: 0 max: 0
nonePBiCGStab:  Solving for Ux, Initial residual = 1, Final residual = 0.0818707, No Iterations 5
nonePBiCGStab:  Solving for Uy, Initial residual = 0, Final residual = 0, No Iterations 0
nonePBiCGStab:  Solving for Uz, Initial residual = 0, Final residual = 0, No Iterations 0
linear solve U 263
DICPBiCGStab:  Solving for p, Initial residual = 1, Final residual = 6.9605e-05, No Iterations 191
linear solve p 9285
time step continuity errors : sum local = 2.73486e-08, global = -1.63664e-20, cumulative = -1.63664e-20
DICPBiCGStab:  Solving for p, Initial residual = 0.707457, Final residual = 6.79671e-05, No Iterations 188
linear solve p 9105
time step continuity errors : sum local = 3.76174e-08, global = -3.6714e-21, cumulative = -2.00378e-20
ExecutionTime = 22.58 s  ClockTime = 23 s

Time = 0.002

Courant Number mean: 0.0422156 max: 0.791725
nonePBiCGStab:  Solving for Ux, Initial residual = 0.137865, Final residual = 0.040005, No Iterations 5
nonePBiCGStab:  Solving for Uy, Initial residual = 0.451751, Final residual = 0.130147, No Iterations 5
nonePBiCGStab:  Solving for Uz, Initial residual = 0.986783, Final residual = 0.324661, No Iterations 5
linear solve U 579
DICPBiCGStab:  Solving for p, Initial residual = 0.789701, Final residual = 8.54243e-05, No Iterations 82
linear solve p 4003
time step continuity errors : sum local = 8.2732e-08, global = 1.36922e-21, cumulative = -1.86685e-20
DICPBiCGStab:  Solving for p, Initial residual = 0.71358, Final residual = 7.95486e-05, No Iterations 78
linear solve p 3798
time step continuity errors : sum local = 7.53487e-08, global = -7.92279e-21, cumulative = -2.65913e-20
ExecutionTime = 31.53 s  ClockTime = 32 s

Time = 0.003

Courant Number mean: 0.067467 max: 0.899988
nonePBiCGStab:  Solving for Ux, Initial residual = 0.0607493, Final residual = 0.0151622, No Iterations 5
nonePBiCGStab:  Solving for Uy, Initial residual = 0.209101, Final residual = 0.0596459, No Iterations 5
nonePBiCGStab:  Solving for Uz, Initial residual = 0.716235, Final residual = 0.21838, No Iterations 5
linear solve U 580
DICPBiCGStab:  Solving for p, Initial residual = 0.796245, Final residual = 8.85284e-05, No Iterations 84
linear solve p 4095
time step continuity errors : sum local = 8.60515e-08, global = 5.26525e-21, cumulative = -2.13261e-20
DICPBiCGStab:  Solving for p, Initial residual = 0.723891, Final residual = 7.41587e-05, No Iterations 83
linear solve p 4078
time step continuity errors : sum local = 5.95457e-08, global = 6.3837e-21, cumulative = -1.49424e-20
ExecutionTime = 40.88 s  ClockTime = 41 s

Time = 0.004

Courant Number mean: 0.0814637 max: 0.912838
nonePBiCGStab:  Solving for Ux, Initial residual = 0.0385893, Final residual = 0.0106474, No Iterations 5
nonePBiCGStab:  Solving for Uy, Initial residual = 0.148637, Final residual = 0.0500828, No Iterations 5
nonePBiCGStab:  Solving for Uz, Initial residual = 0.496536, Final residual = 0.137366, No Iterations 5
linear solve U 577
DICPBiCGStab:  Solving for p, Initial residual = 0.719616, Final residual = 9.16643e-05, No Iterations 80
linear solve p 3880
time step continuity errors : sum local = 9.29927e-08, global = -5.95803e-22, cumulative = -1.55382e-20
DICPBiCGStab:  Solving for p, Initial residual = 0.619977, Final residual = 8.93484e-05, No Iterations 74
linear solve p 3620
time step continuity errors : sum local = 7.40045e-08, global = -7.38767e-21, cumulative = -2.29259e-20
ExecutionTime = 49.54 s  ClockTime = 50 s

Time = 0.005

Courant Number mean: 0.0922647 max: 0.925467
nonePBiCGStab:  Solving for Ux, Initial residual = 0.0299272, Final residual = 0.00899934, No Iterations 5
nonePBiCGStab:  Solving for Uy, Initial residual = 0.0987296, Final residual = 0.0358198, No Iterations 5
nonePBiCGStab:  Solving for Uz, Initial residual = 0.323322, Final residual = 0.0889924, No Iterations 5
linear solve U 575
DICPBiCGStab:  Solving for p, Initial residual = 0.757306, Final residual = 9.55327e-05, No Iterations 83
linear solve p 4029
time step continuity errors : sum local = 1.21577e-07, global = 7.58363e-21, cumulative = -1.53422e-20
DICPBiCGStab:  Solving for p, Initial residual = 0.671007, Final residual = 9.14038e-05, No Iterations 75
linear solve p 3652
time step continuity errors : sum local = 8.05205e-08, global = 3.35497e-23, cumulative = -1.53087e-20
ExecutionTime = 58.38 s  ClockTime = 58 s

Time = 0.006

Courant Number mean: 0.100675 max: 0.932456
nonePBiCGStab:  Solving for Ux, Initial residual = 0.0233207, Final residual = 0.00709714, No Iterations 5
nonePBiCGStab:  Solving for Uy, Initial residual = 0.0803953, Final residual = 0.0295577, No Iterations 5
nonePBiCGStab:  Solving for Uz, Initial residual = 0.272973, Final residual = 0.0878616, No Iterations 5
linear solve U 577
DICPBiCGStab:  Solving for p, Initial residual = 0.690614, Final residual = 8.41732e-05, No Iterations 148
linear solve p 7275
time step continuity errors : sum local = 1.20887e-07, global = 9.6235e-21, cumulative = -5.68518e-21
DICPBiCGStab:  Solving for p, Initial residual = 0.593071, Final residual = 6.5728e-05, No Iterations 79
linear solve p 3996
time step continuity errors : sum local = 5.97856e-08, global = -1.75761e-20, cumulative = -2.32613e-20
ExecutionTime = 70.81 s  ClockTime = 71 s

Time = 0.007

Courant Number mean: 0.107717 max: 0.937876
nonePBiCGStab:  Solving for Ux, Initial residual = 0.0206084, Final residual = 0.00611507, No Iterations 5
nonePBiCGStab:  Solving for Uy, Initial residual = 0.0627036, Final residual = 0.0233182, No Iterations 5
nonePBiCGStab:  Solving for Uz, Initial residual = 0.239356, Final residual = 0.0789688, No Iterations 5
linear solve U 597
DICPBiCGStab:  Solving for p, Initial residual = 0.731828, Final residual = 8.81066e-05, No Iterations 153
linear solve p 7496
time step continuity errors : sum local = 1.15284e-07, global = -2.32503e-21, cumulative = -2.55863e-20
DICPBiCGStab:  Solving for p, Initial residual = 0.635324, Final residual = 4.11379e-05, No Iterations 171
linear solve p 8397
time step continuity errors : sum local = 3.18749e-08, global = 8.41357e-22, cumulative = -2.47449e-20
ExecutionTime = 87.88 s  ClockTime = 88 s

Time = 0.008

Courant Number mean: 0.113807 max: 0.941727
nonePBiCGStab:  Solving for Ux, Initial residual = 0.0172309, Final residual = 0.00535611, No Iterations 5
nonePBiCGStab:  Solving for Uy, Initial residual = 0.0556567, Final residual = 0.0191797, No Iterations 5
nonePBiCGStab:  Solving for Uz, Initial residual = 0.23025, Final residual = 0.0783074, No Iterations 5
linear solve U 578
DICPBiCGStab:  Solving for p, Initial residual = 0.675524, Final residual = 6.64864e-05, No Iterations 184
linear solve p 9324
time step continuity errors : sum local = 9.4568e-08, global = -7.94698e-21, cumulative = -3.26919e-20
DICPBiCGStab:  Solving for p, Initial residual = 0.57654, Final residual = 9.98418e-05, No Iterations 185
linear solve p 9101
time step continuity errors : sum local = 1.05866e-07, global = 2.17708e-21, cumulative = -3.05148e-20
ExecutionTime = 107.43 s  ClockTime = 108 s

Time = 0.009

Courant Number mean: 0.119145 max: 0.945003
nonePBiCGStab:  Solving for Ux, Initial residual = 0.0161121, Final residual = 0.0048227, No Iterations 5
nonePBiCGStab:  Solving for Uy, Initial residual = 0.0469612, Final residual = 0.0171416, No Iterations 5
nonePBiCGStab:  Solving for Uz, Initial residual = 0.217267, Final residual = 0.075794, No Iterations 5
linear solve U 576
DICPBiCGStab:  Solving for p, Initial residual = 0.719009, Final residual = 9.74251e-05, No Iterations 163
linear solve p 7964
time step continuity errors : sum local = 1.32446e-07, global = 1.08964e-21, cumulative = -2.94252e-20
DICPBiCGStab:  Solving for p, Initial residual = 0.616884, Final residual = 8.93526e-05, No Iterations 163
linear solve p 7998
time step continuity errors : sum local = 1.23201e-07, global = 1.64619e-22, cumulative = -2.92606e-20
ExecutionTime = 124.51 s  ClockTime = 125 s

Time = 0.01

Courant Number mean: 0.123891 max: 0.947466
nonePBiCGStab:  Solving for Ux, Initial residual = 0.014088, Final residual = 0.00413654, No Iterations 5
nonePBiCGStab:  Solving for Uy, Initial residual = 0.0444596, Final residual = 0.0151565, No Iterations 5
nonePBiCGStab:  Solving for Uz, Initial residual = 0.218016, Final residual = 0.0797565, No Iterations 5
linear solve U 577
DICPBiCGStab:  Solving for p, Initial residual = 0.676394, Final residual = 7.50003e-05, No Iterations 159
linear solve p 7784
time step continuity errors : sum local = 8.48899e-08, global = -2.55922e-20, cumulative = -5.48527e-20
DICPBiCGStab:  Solving for p, Initial residual = 0.575614, Final residual = 8.95215e-05, No Iterations 152
linear solve p 7447
time step continuity errors : sum local = 1.32838e-07, global = -3.34276e-21, cumulative = -5.81955e-20
ExecutionTime = 140.86 s  ClockTime = 141 s

End

