/*---------------------------------------------------------------------------*\
  =========                 |
  \\      /  F ield         | OpenFOAM: The Open Source CFD Toolbox
   \\    /   O peration     | Website:  https://openfoam.org
    \\  /    A nd           | Version:  8
     \\/     M anipulation  |
\*---------------------------------------------------------------------------*/
Build  : 8-40a5a48f630f
Exec   : icoFoam
Date   : Jul 28 2021
Time   : 13:34:43
Host   : "uc2n446.localdomain"
PID    : 419471
I/O    : uncollated
Case   : /pfs/data5/home/kit/scc/nq7776/code/OBR/lidDrivenCavity3D/Variation_mesh/100/Variation_matrix_solver/CG_NoPrecond_OMP/base
nProcs : 1
sigFpe : Enabling floating point exception trapping (FOAM_SIGFPE).
fileModificationChecking : Monitoring run-time modified files using timeStampMaster (fileModificationSkew 10)
allowSystemOperations : Allowing user-supplied system call operations

// * * * * * * * * * * * * * * * * * * * * * * * * * * * * * * * * * * * * * //
Create time

Create mesh for time = 0

Reading transportProperties

Reading field p

Reading field U

Reading/calculating face flux field phi


Starting time loop

Time = 0.001

Courant Number mean: 0 max: 0
nonePBiCGStab:  Solving for Ux, Initial residual = 1, Final residual = 0.0818707, No Iterations 5
nonePBiCGStab:  Solving for Uy, Initial residual = 0, Final residual = 0, No Iterations 0
nonePBiCGStab:  Solving for Uz, Initial residual = 0, Final residual = 0, No Iterations 0
linear solve U 262
[OGL LOG] init_host_sparsity_pattern : 287 ms
[OGL LOG] matrix not stored update host matrix
[OGL LOG] update_host_mtx : 148 ms
[OGL LOG] matrix is not yet sorted, compute sorting idxs
[OGL LOG] compute_sort : 9011 ms
[OGL LOG] matrix is not yet sorted, sorting host matrix
[OGL LOG] sort_host_mtx_sparsity_pattern : 206 ms
[OGL LOG] sort_host_mtx : 123 ms
[OGL LOG] init_preconditioner : 0 ms
[OGL LOG] solve : 9075 ms
noneompGKOCG:  Solving for p, Initial residual = 1, Final residual = 9.99641e-05, No Iterations 794
linear solve p 19059
time step continuity errors : sum local = 3.78593e-08, global = -2.77189e-20, cumulative = -2.77189e-20
[OGL LOG] init_host_sparsity_pattern : 274 ms
[OGL LOG] matrix not stored update host matrix
[OGL LOG] update_host_mtx : 147 ms
[OGL LOG] matrix is not yet sorted, sorting host matrix
[OGL LOG] sort_host_mtx_sparsity_pattern : 206 ms
[OGL LOG] sort_host_mtx : 122 ms
[OGL LOG] init_preconditioner : 0 ms
[OGL LOG] solve : 8153 ms
noneompGKOCG:  Solving for p, Initial residual = 0.707448, Final residual = 9.86982e-05, No Iterations 782
linear solve p 9053
time step continuity errors : sum local = 5.17761e-08, global = 8.64413e-21, cumulative = -1.90748e-20
ExecutionTime = 358.31 s  ClockTime = 33 s

Time = 0.002

Courant Number mean: 0.0422155 max: 0.791725
nonePBiCGStab:  Solving for Ux, Initial residual = 0.137868, Final residual = 0.0400076, No Iterations 5
nonePBiCGStab:  Solving for Uy, Initial residual = 0.451745, Final residual = 0.130141, No Iterations 5
nonePBiCGStab:  Solving for Uz, Initial residual = 0.987518, Final residual = 0.323482, No Iterations 5
linear solve U 538
[OGL LOG] init_host_sparsity_pattern : 275 ms
[OGL LOG] matrix not stored update host matrix
[OGL LOG] update_host_mtx : 147 ms
[OGL LOG] matrix is not yet sorted, sorting host matrix
[OGL LOG] sort_host_mtx_sparsity_pattern : 214 ms
[OGL LOG] sort_host_mtx : 122 ms
[OGL LOG] init_preconditioner : 0 ms
[OGL LOG] solve : 4803 ms
noneompGKOCG:  Solving for p, Initial residual = 0.789692, Final residual = 9.80124e-05, No Iterations 469
linear solve p 5729
time step continuity errors : sum local = 9.98269e-08, global = -1.10813e-20, cumulative = -3.01561e-20
[OGL LOG] init_host_sparsity_pattern : 282 ms
[OGL LOG] matrix not stored update host matrix
[OGL LOG] update_host_mtx : 147 ms
[OGL LOG] matrix is not yet sorted, sorting host matrix
[OGL LOG] sort_host_mtx_sparsity_pattern : 212 ms
[OGL LOG] sort_host_mtx : 126 ms
[OGL LOG] init_preconditioner : 0 ms
[OGL LOG] solve : 4854 ms
noneompGKOCG:  Solving for p, Initial residual = 0.713522, Final residual = 9.57957e-05, No Iterations 466
linear solve p 5790
time step continuity errors : sum local = 9.43145e-08, global = -2.4582e-22, cumulative = -3.04019e-20
ExecutionTime = 554.11 s  ClockTime = 46 s

Time = 0.003

Courant Number mean: 0.0674676 max: 0.899979
nonePBiCGStab:  Solving for Ux, Initial residual = 0.0610496, Final residual = 0.0152943, No Iterations 5
nonePBiCGStab:  Solving for Uy, Initial residual = 0.208808, Final residual = 0.059444, No Iterations 5
nonePBiCGStab:  Solving for Uz, Initial residual = 0.71236, Final residual = 0.213917, No Iterations 5
linear solve U 526
[OGL LOG] init_host_sparsity_pattern : 274 ms
[OGL LOG] matrix not stored update host matrix
[OGL LOG] update_host_mtx : 147 ms
[OGL LOG] matrix is not yet sorted, sorting host matrix
[OGL LOG] sort_host_mtx_sparsity_pattern : 212 ms
[OGL LOG] sort_host_mtx : 122 ms
[OGL LOG] init_preconditioner : 0 ms
[OGL LOG] solve : 8552 ms
noneompGKOCG:  Solving for p, Initial residual = 0.797062, Final residual = 9.51246e-05, No Iterations 771
linear solve p 9469
time step continuity errors : sum local = 6.89312e-08, global = -1.82322e-22, cumulative = -3.05842e-20
[OGL LOG] init_host_sparsity_pattern : 274 ms
[OGL LOG] matrix not stored update host matrix
[OGL LOG] update_host_mtx : 147 ms
[OGL LOG] matrix is not yet sorted, sorting host matrix
[OGL LOG] sort_host_mtx_sparsity_pattern : 213 ms
[OGL LOG] sort_host_mtx : 123 ms
[OGL LOG] init_preconditioner : 0 ms
[OGL LOG] solve : 7491 ms
noneompGKOCG:  Solving for p, Initial residual = 0.724926, Final residual = 9.40668e-05, No Iterations 770
linear solve p 8412
time step continuity errors : sum local = 6.64782e-08, global = -6.63707e-22, cumulative = -3.12479e-20
ExecutionTime = 877.24 s  ClockTime = 65 s

Time = 0.004

Courant Number mean: 0.0814734 max: 0.912894
nonePBiCGStab:  Solving for Ux, Initial residual = 0.038783, Final residual = 0.0107249, No Iterations 5
nonePBiCGStab:  Solving for Uy, Initial residual = 0.148976, Final residual = 0.0502015, No Iterations 5
nonePBiCGStab:  Solving for Uz, Initial residual = 0.492672, Final residual = 0.134856, No Iterations 5
linear solve U 526
[OGL LOG] init_host_sparsity_pattern : 273 ms
[OGL LOG] matrix not stored update host matrix
[OGL LOG] update_host_mtx : 147 ms
[OGL LOG] matrix is not yet sorted, sorting host matrix
[OGL LOG] sort_host_mtx_sparsity_pattern : 212 ms
[OGL LOG] sort_host_mtx : 123 ms
[OGL LOG] init_preconditioner : 0 ms
[OGL LOG] solve : 4085 ms
noneompGKOCG:  Solving for p, Initial residual = 0.719519, Final residual = 9.9549e-05, No Iterations 369
linear solve p 5000
time step continuity errors : sum local = 7.73673e-08, global = 1.09961e-20, cumulative = -2.02518e-20
[OGL LOG] init_host_sparsity_pattern : 275 ms
[OGL LOG] matrix not stored update host matrix
[OGL LOG] update_host_mtx : 147 ms
[OGL LOG] matrix is not yet sorted, sorting host matrix
[OGL LOG] sort_host_mtx_sparsity_pattern : 206 ms
[OGL LOG] sort_host_mtx : 122 ms
[OGL LOG] init_preconditioner : 0 ms
[OGL LOG] solve : 4025 ms
noneompGKOCG:  Solving for p, Initial residual = 0.619894, Final residual = 9.51897e-05, No Iterations 368
linear solve p 4933
time step continuity errors : sum local = 7.37071e-08, global = -7.71812e-21, cumulative = -2.79699e-20
ExecutionTime = 1042.23 s  ClockTime = 76 s

Time = 0.005

Courant Number mean: 0.0922787 max: 0.925559
nonePBiCGStab:  Solving for Ux, Initial residual = 0.0298074, Final residual = 0.00895815, No Iterations 5
nonePBiCGStab:  Solving for Uy, Initial residual = 0.0986752, Final residual = 0.0358249, No Iterations 5
nonePBiCGStab:  Solving for Uz, Initial residual = 0.305665, Final residual = 0.0791691, No Iterations 5
linear solve U 524
[OGL LOG] init_host_sparsity_pattern : 273 ms
[OGL LOG] matrix not stored update host matrix
[OGL LOG] update_host_mtx : 147 ms
[OGL LOG] matrix is not yet sorted, sorting host matrix
[OGL LOG] sort_host_mtx_sparsity_pattern : 212 ms
[OGL LOG] sort_host_mtx : 122 ms
[OGL LOG] init_preconditioner : 0 ms
[OGL LOG] solve : 4041 ms
noneompGKOCG:  Solving for p, Initial residual = 0.757127, Final residual = 9.63631e-05, No Iterations 366
linear solve p 4939
time step continuity errors : sum local = 7.20065e-08, global = 2.22926e-21, cumulative = -2.57407e-20
[OGL LOG] init_host_sparsity_pattern : 274 ms
[OGL LOG] matrix not stored update host matrix
[OGL LOG] update_host_mtx : 147 ms
[OGL LOG] matrix is not yet sorted, sorting host matrix
[OGL LOG] sort_host_mtx_sparsity_pattern : 206 ms
[OGL LOG] sort_host_mtx : 122 ms
[OGL LOG] init_preconditioner : 0 ms
[OGL LOG] solve : 3376 ms
noneompGKOCG:  Solving for p, Initial residual = 0.670903, Final residual = 9.8366e-05, No Iterations 363
linear solve p 4275
time step continuity errors : sum local = 6.83986e-08, global = -9.87018e-21, cumulative = -3.56109e-20
ExecutionTime = 1193.27 s  ClockTime = 86 s

Time = 0.006

Courant Number mean: 0.100678 max: 0.932437
nonePBiCGStab:  Solving for Ux, Initial residual = 0.0234595, Final residual = 0.00717051, No Iterations 5
nonePBiCGStab:  Solving for Uy, Initial residual = 0.079361, Final residual = 0.029185, No Iterations 5
nonePBiCGStab:  Solving for Uz, Initial residual = 0.239794, Final residual = 0.0720157, No Iterations 5
linear solve U 526
[OGL LOG] init_host_sparsity_pattern : 274 ms
[OGL LOG] matrix not stored update host matrix
[OGL LOG] update_host_mtx : 147 ms
[OGL LOG] matrix is not yet sorted, sorting host matrix
[OGL LOG] sort_host_mtx_sparsity_pattern : 206 ms
[OGL LOG] sort_host_mtx : 123 ms
[OGL LOG] init_preconditioner : 0 ms
[OGL LOG] solve : 4025 ms
noneompGKOCG:  Solving for p, Initial residual = 0.690384, Final residual = 9.6996e-05, No Iterations 362
linear solve p 4930
time step continuity errors : sum local = 7.20029e-08, global = -4.67427e-21, cumulative = -4.02851e-20
[OGL LOG] init_host_sparsity_pattern : 274 ms
[OGL LOG] matrix not stored update host matrix
[OGL LOG] update_host_mtx : 147 ms
[OGL LOG] matrix is not yet sorted, sorting host matrix
[OGL LOG] sort_host_mtx_sparsity_pattern : 206 ms
[OGL LOG] sort_host_mtx : 122 ms
[OGL LOG] init_preconditioner : 0 ms
[OGL LOG] solve : 3919 ms
noneompGKOCG:  Solving for p, Initial residual = 0.593099, Final residual = 9.83214e-05, No Iterations 358
linear solve p 4813
time step continuity errors : sum local = 7.16042e-08, global = -1.07077e-20, cumulative = -5.09929e-20
ExecutionTime = 1354.84 s  ClockTime = 97 s

Time = 0.007

Courant Number mean: 0.107719 max: 0.937855
nonePBiCGStab:  Solving for Ux, Initial residual = 0.0202196, Final residual = 0.00597755, No Iterations 5
nonePBiCGStab:  Solving for Uy, Initial residual = 0.0623599, Final residual = 0.0233454, No Iterations 5
nonePBiCGStab:  Solving for Uz, Initial residual = 0.183177, Final residual = 0.0530258, No Iterations 5
linear solve U 524
[OGL LOG] init_host_sparsity_pattern : 273 ms
[OGL LOG] matrix not stored update host matrix
[OGL LOG] update_host_mtx : 147 ms
[OGL LOG] matrix is not yet sorted, sorting host matrix
[OGL LOG] sort_host_mtx_sparsity_pattern : 212 ms
[OGL LOG] sort_host_mtx : 122 ms
[OGL LOG] init_preconditioner : 0 ms
[OGL LOG] solve : 8198 ms
noneompGKOCG:  Solving for p, Initial residual = 0.730679, Final residual = 9.89551e-05, No Iterations 743
linear solve p 9095
time step continuity errors : sum local = 6.57215e-08, global = 4.81465e-21, cumulative = -4.61782e-20
[OGL LOG] init_host_sparsity_pattern : 275 ms
[OGL LOG] matrix not stored update host matrix
[OGL LOG] update_host_mtx : 147 ms
[OGL LOG] matrix is not yet sorted, sorting host matrix
[OGL LOG] sort_host_mtx_sparsity_pattern : 206 ms
[OGL LOG] sort_host_mtx : 123 ms
[OGL LOG] init_preconditioner : 0 ms
[OGL LOG] solve : 3542 ms
noneompGKOCG:  Solving for p, Initial residual = 0.634742, Final residual = 9.98241e-05, No Iterations 371
linear solve p 4439
time step continuity errors : sum local = 7.75828e-08, global = -4.05792e-21, cumulative = -5.02362e-20
ExecutionTime = 1591.99 s  ClockTime = 112 s

Time = 0.008

Courant Number mean: 0.113806 max: 0.941733
nonePBiCGStab:  Solving for Ux, Initial residual = 0.0170944, Final residual = 0.00531515, No Iterations 5
nonePBiCGStab:  Solving for Uy, Initial residual = 0.053914, Final residual = 0.0186035, No Iterations 5
nonePBiCGStab:  Solving for Uz, Initial residual = 0.161901, Final residual = 0.052537, No Iterations 5
linear solve U 526
[OGL LOG] init_host_sparsity_pattern : 275 ms
[OGL LOG] matrix not stored update host matrix
[OGL LOG] update_host_mtx : 147 ms
[OGL LOG] matrix is not yet sorted, sorting host matrix
[OGL LOG] sort_host_mtx_sparsity_pattern : 206 ms
[OGL LOG] sort_host_mtx : 123 ms
[OGL LOG] init_preconditioner : 0 ms
[OGL LOG] solve : 8009 ms
noneompGKOCG:  Solving for p, Initial residual = 0.673575, Final residual = 9.54489e-05, No Iterations 729
linear solve p 8916
time step continuity errors : sum local = 6.74672e-08, global = 1.05682e-20, cumulative = -3.9668e-20
[OGL LOG] init_host_sparsity_pattern : 274 ms
[OGL LOG] matrix not stored update host matrix
[OGL LOG] update_host_mtx : 147 ms
[OGL LOG] matrix is not yet sorted, sorting host matrix
[OGL LOG] sort_host_mtx_sparsity_pattern : 206 ms
[OGL LOG] sort_host_mtx : 122 ms
[OGL LOG] init_preconditioner : 0 ms
[OGL LOG] solve : 7932 ms
noneompGKOCG:  Solving for p, Initial residual = 0.575458, Final residual = 9.97408e-05, No Iterations 727
linear solve p 8826
time step continuity errors : sum local = 7.09748e-08, global = 3.28418e-21, cumulative = -3.63838e-20
ExecutionTime = 1912.88 s  ClockTime = 131 s

Time = 0.009

Courant Number mean: 0.11917 max: 0.944999
nonePBiCGStab:  Solving for Ux, Initial residual = 0.0156093, Final residual = 0.00445386, No Iterations 5
nonePBiCGStab:  Solving for Uy, Initial residual = 0.0458467, Final residual = 0.0167022, No Iterations 5
nonePBiCGStab:  Solving for Uz, Initial residual = 0.13122, Final residual = 0.039727, No Iterations 5
linear solve U 524
[OGL LOG] init_host_sparsity_pattern : 273 ms
[OGL LOG] matrix not stored update host matrix
[OGL LOG] update_host_mtx : 147 ms
[OGL LOG] matrix is not yet sorted, sorting host matrix
[OGL LOG] sort_host_mtx_sparsity_pattern : 206 ms
[OGL LOG] sort_host_mtx : 122 ms
[OGL LOG] init_preconditioner : 0 ms
[OGL LOG] solve : 8037 ms
noneompGKOCG:  Solving for p, Initial residual = 0.716374, Final residual = 9.99551e-05, No Iterations 730
linear solve p 8930
time step continuity errors : sum local = 6.81165e-08, global = 1.10796e-20, cumulative = -2.53041e-20
[OGL LOG] init_host_sparsity_pattern : 275 ms
[OGL LOG] matrix not stored update host matrix
[OGL LOG] update_host_mtx : 147 ms
[OGL LOG] matrix is not yet sorted, sorting host matrix
[OGL LOG] sort_host_mtx_sparsity_pattern : 213 ms
[OGL LOG] sort_host_mtx : 121 ms
[OGL LOG] init_preconditioner : 0 ms
[OGL LOG] solve : 7442 ms
noneompGKOCG:  Solving for p, Initial residual = 0.61594, Final residual = 9.87173e-05, No Iterations 729
linear solve p 8346
time step continuity errors : sum local = 6.72348e-08, global = -1.53871e-20, cumulative = -4.06912e-20
ExecutionTime = 2224.59 s  ClockTime = 149 s

Time = 0.01

Courant Number mean: 0.124008 max: 0.94749
nonePBiCGStab:  Solving for Ux, Initial residual = 0.0138156, Final residual = 0.0036255, No Iterations 5
nonePBiCGStab:  Solving for Uy, Initial residual = 0.041304, Final residual = 0.0133254, No Iterations 5
nonePBiCGStab:  Solving for Uz, Initial residual = 0.11894, Final residual = 0.0391412, No Iterations 5
linear solve U 527
[OGL LOG] init_host_sparsity_pattern : 274 ms
[OGL LOG] matrix not stored update host matrix
[OGL LOG] update_host_mtx : 146 ms
[OGL LOG] matrix is not yet sorted, sorting host matrix
[OGL LOG] sort_host_mtx_sparsity_pattern : 207 ms
[OGL LOG] sort_host_mtx : 121 ms
[OGL LOG] init_preconditioner : 0 ms
[OGL LOG] solve : 3833 ms
noneompGKOCG:  Solving for p, Initial residual = 0.669609, Final residual = 9.73049e-05, No Iterations 347
linear solve p 4736
time step continuity errors : sum local = 7.95832e-08, global = -5.70486e-21, cumulative = -4.63961e-20
[OGL LOG] init_host_sparsity_pattern : 274 ms
[OGL LOG] matrix not stored update host matrix
[OGL LOG] update_host_mtx : 146 ms
[OGL LOG] matrix is not yet sorted, sorting host matrix
[OGL LOG] sort_host_mtx_sparsity_pattern : 206 ms
[OGL LOG] sort_host_mtx : 121 ms
[OGL LOG] init_preconditioner : 0 ms
[OGL LOG] solve : 3562 ms
noneompGKOCG:  Solving for p, Initial residual = 0.572102, Final residual = 9.98887e-05, No Iterations 326
linear solve p 4451
time step continuity errors : sum local = 7.58956e-08, global = 6.26254e-21, cumulative = -4.01335e-20
ExecutionTime = 2375.2 s  ClockTime = 159 s

End

