/*---------------------------------------------------------------------------*\
  =========                 |
  \\      /  F ield         | OpenFOAM: The Open Source CFD Toolbox
   \\    /   O peration     | Website:  https://openfoam.org
    \\  /    A nd           | Version:  8
     \\/     M anipulation  |
\*---------------------------------------------------------------------------*/
Build  : 8-ef60d22ea792
Exec   : icoFoam
Date   : Jul 28 2021
Time   : 23:17:30
Host   : "uc2n420.localdomain"
PID    : 977464
I/O    : uncollated
Case   : /pfs/data5/home/kit/scc/nq7776/code/OBR/lidDrivenCavity3D/Variation_mesh/75/Variation_matrix_solver/BiCGStab_NoPrecond_Serial/base
nProcs : 1
sigFpe : Enabling floating point exception trapping (FOAM_SIGFPE).
fileModificationChecking : Monitoring run-time modified files using timeStampMaster (fileModificationSkew 10)
allowSystemOperations : Allowing user-supplied system call operations

// * * * * * * * * * * * * * * * * * * * * * * * * * * * * * * * * * * * * * //
Create time

Create mesh for time = 0

Reading transportProperties

Reading field p

Reading field U

Reading/calculating face flux field phi


Starting time loop

Time = 0.001

Courant Number mean: 0 max: 0
DILUPBiCGStab:  Solving for Ux, Initial residual = 1, Final residual = 0.00209367, No Iterations 5
DILUPBiCGStab:  Solving for Uy:  solution singularity
DILUPBiCGStab:  Solving for Uz:  solution singularity
linear solve U 201188
nonePBiCGStab:  Solving for p, Initial residual = 1, Final residual = 1.23806e-05, No Iterations 494
linear solve p 5650510
time step continuity errors : sum local = 1.28368e-08, global = 1.03087e-22, cumulative = 1.03087e-22
nonePBiCGStab:  Solving for p, Initial residual = 0.735689, Final residual = 9.93607e-05, No Iterations 475
linear solve p 5447586
time step continuity errors : sum local = 1.53491e-07, global = 3.30879e-21, cumulative = 3.41187e-21
ExecutionTime = 13.12 s  ClockTime = 13 s

Time = 0.002

Courant Number mean: 0.0422954 max: 0.566001
DILUPBiCGStab:  Solving for Ux, Initial residual = 0.148828, Final residual = 0.000721033, No Iterations 5
DILUPBiCGStab:  Solving for Uy, Initial residual = 0.373387, Final residual = 0.00156832, No Iterations 5
DILUPBiCGStab:  Solving for Uz, Initial residual = 0.979661, Final residual = 0.00487265, No Iterations 5
linear solve U 391308
nonePBiCGStab:  Solving for p, Initial residual = 0.699849, Final residual = 8.48903e-05, No Iterations 443
linear solve p 5050161
time step continuity errors : sum local = 1.4932e-07, global = 1.51819e-20, cumulative = 1.85937e-20
nonePBiCGStab:  Solving for p, Initial residual = 0.630599, Final residual = 8.52618e-05, No Iterations 438
linear solve p 5010709
time step continuity errors : sum local = 1.53265e-07, global = -7.84883e-21, cumulative = 1.07449e-20
ExecutionTime = 23.78 s  ClockTime = 24 s

Time = 0.003

Courant Number mean: 0.0635369 max: 0.66848
DILUPBiCGStab:  Solving for Ux, Initial residual = 0.0537714, Final residual = 0.000210255, No Iterations 5
DILUPBiCGStab:  Solving for Uy, Initial residual = 0.131829, Final residual = 0.000497119, No Iterations 5
DILUPBiCGStab:  Solving for Uz, Initial residual = 0.630218, Final residual = 0.00339674, No Iterations 5
linear solve U 388838
nonePBiCGStab:  Solving for p, Initial residual = 0.660679, Final residual = 9.45403e-05, No Iterations 452
linear solve p 5146376
time step continuity errors : sum local = 7.42354e-08, global = -8.23559e-21, cumulative = 2.50932e-21
nonePBiCGStab:  Solving for p, Initial residual = 0.614615, Final residual = 5.19488e-05, No Iterations 438
linear solve p 4996175
time step continuity errors : sum local = 5.58888e-08, global = 3.9493e-21, cumulative = 6.45862e-21
ExecutionTime = 34.51 s  ClockTime = 35 s

Time = 0.004

Courant Number mean: 0.0745403 max: 0.679258
DILUPBiCGStab:  Solving for Ux, Initial residual = 0.0291395, Final residual = 0.000106592, No Iterations 5
DILUPBiCGStab:  Solving for Uy, Initial residual = 0.0889557, Final residual = 0.000297109, No Iterations 5
DILUPBiCGStab:  Solving for Uz, Initial residual = 0.364867, Final residual = 0.00154567, No Iterations 5
linear solve U 390965
nonePBiCGStab:  Solving for p, Initial residual = 0.460338, Final residual = 9.06837e-05, No Iterations 437
linear solve p 4983649
time step continuity errors : sum local = 8.79461e-08, global = -4.68618e-21, cumulative = 1.77244e-21
nonePBiCGStab:  Solving for p, Initial residual = 0.395917, Final residual = 9.3712e-05, No Iterations 451
linear solve p 5147532
time step continuity errors : sum local = 7.40363e-08, global = -1.82603e-20, cumulative = -1.64879e-20
ExecutionTime = 45.23 s  ClockTime = 46 s

Time = 0.005

Courant Number mean: 0.0834057 max: 0.68943
DILUPBiCGStab:  Solving for Ux, Initial residual = 0.0210751, Final residual = 6.35374e-05, No Iterations 5
DILUPBiCGStab:  Solving for Uy, Initial residual = 0.0491076, Final residual = 0.000109781, No Iterations 5
DILUPBiCGStab:  Solving for Uz, Initial residual = 0.181053, Final residual = 0.000952907, No Iterations 5
linear solve U 388342
nonePBiCGStab:  Solving for p, Initial residual = 0.378347, Final residual = 9.90727e-05, No Iterations 461
linear solve p 5261585
time step continuity errors : sum local = 4.75777e-08, global = 1.19892e-20, cumulative = -4.49867e-21
nonePBiCGStab:  Solving for p, Initial residual = 0.328826, Final residual = 9.89201e-05, No Iterations 415
linear solve p 4723318
time step continuity errors : sum local = 4.87208e-08, global = 4.34105e-21, cumulative = -1.5762e-22
ExecutionTime = 55.81 s  ClockTime = 56 s

Time = 0.006

Courant Number mean: 0.0901487 max: 0.695166
DILUPBiCGStab:  Solving for Ux, Initial residual = 0.0148693, Final residual = 3.95028e-05, No Iterations 5
DILUPBiCGStab:  Solving for Uy, Initial residual = 0.0382196, Final residual = 8.26938e-05, No Iterations 5
DILUPBiCGStab:  Solving for Uz, Initial residual = 0.134326, Final residual = 0.000561921, No Iterations 5
linear solve U 390348
nonePBiCGStab:  Solving for p, Initial residual = 0.244386, Final residual = 3.20745e-05, No Iterations 412
linear solve p 4720389
time step continuity errors : sum local = 2.69325e-08, global = 5.58204e-21, cumulative = 5.42442e-21
nonePBiCGStab:  Solving for p, Initial residual = 0.205603, Final residual = 7.20807e-05, No Iterations 431
linear solve p 4941130
time step continuity errors : sum local = 4.96353e-08, global = -1.53431e-20, cumulative = -9.91872e-21
ExecutionTime = 66.06 s  ClockTime = 67 s

Time = 0.007

Courant Number mean: 0.095728 max: 0.69899
DILUPBiCGStab:  Solving for Ux, Initial residual = 0.0118737, Final residual = 2.51189e-05, No Iterations 5
DILUPBiCGStab:  Solving for Uy, Initial residual = 0.0280737, Final residual = 4.68395e-05, No Iterations 5
DILUPBiCGStab:  Solving for Uz, Initial residual = 0.0711153, Final residual = 0.000202893, No Iterations 5
linear solve U 391020
nonePBiCGStab:  Solving for p, Initial residual = 0.182567, Final residual = 4.94271e-05, No Iterations 381
linear solve p 4359527
time step continuity errors : sum local = 3.7642e-08, global = 4.05199e-21, cumulative = -5.86673e-21
nonePBiCGStab:  Solving for p, Initial residual = 0.154211, Final residual = 9.58785e-05, No Iterations 173
linear solve p 1987955
time step continuity errors : sum local = 6.83792e-08, global = 9.84295e-21, cumulative = 3.97621e-21
ExecutionTime = 73.01 s  ClockTime = 73 s

Time = 0.008

Courant Number mean: 0.100396 max: 0.702036
DILUPBiCGStab:  Solving for Ux, Initial residual = 0.00958757, Final residual = 1.87553e-05, No Iterations 5
DILUPBiCGStab:  Solving for Uy, Initial residual = 0.0231529, Final residual = 3.58367e-05, No Iterations 5
DILUPBiCGStab:  Solving for Uz, Initial residual = 0.0675773, Final residual = 0.000261693, No Iterations 5
linear solve U 390552
nonePBiCGStab:  Solving for p, Initial residual = 0.124713, Final residual = 9.93402e-05, No Iterations 420
linear solve p 4773188
time step continuity errors : sum local = 4.45978e-08, global = -2.4029e-21, cumulative = 1.57331e-21
nonePBiCGStab:  Solving for p, Initial residual = 0.103937, Final residual = 8.5804e-05, No Iterations 428
linear solve p 4863714
time step continuity errors : sum local = 3.8925e-08, global = 3.2925e-21, cumulative = 4.86582e-21
ExecutionTime = 83.24 s  ClockTime = 84 s

Time = 0.009

Courant Number mean: 0.1044 max: 0.70426
DILUPBiCGStab:  Solving for Ux, Initial residual = 0.00800255, Final residual = 1.14457e-05, No Iterations 5
DILUPBiCGStab:  Solving for Uy, Initial residual = 0.0193588, Final residual = 2.64809e-05, No Iterations 5
DILUPBiCGStab:  Solving for Uz, Initial residual = 0.0547053, Final residual = 0.000171712, No Iterations 5
linear solve U 390321
nonePBiCGStab:  Solving for p, Initial residual = 0.0934754, Final residual = 1.54747e-05, No Iterations 337
linear solve p 3874077
time step continuity errors : sum local = 8.02966e-09, global = -1.06619e-20, cumulative = -5.79609e-21
nonePBiCGStab:  Solving for p, Initial residual = 0.0784144, Final residual = 8.92725e-05, No Iterations 335
linear solve p 3826837
time step continuity errors : sum local = 6.93152e-08, global = 6.92042e-21, cumulative = 1.12433e-21
ExecutionTime = 91.53 s  ClockTime = 92 s

Time = 0.01

Courant Number mean: 0.10788 max: 0.706181
DILUPBiCGStab:  Solving for Ux, Initial residual = 0.00688369, Final residual = 9.50506e-06, No Iterations 5
DILUPBiCGStab:  Solving for Uy, Initial residual = 0.0163515, Final residual = 1.98667e-05, No Iterations 5
DILUPBiCGStab:  Solving for Uz, Initial residual = 0.0479311, Final residual = 0.000163144, No Iterations 5
linear solve U 391877
nonePBiCGStab:  Solving for p, Initial residual = 0.0654853, Final residual = 9.73283e-05, No Iterations 422
linear solve p 4939274
time step continuity errors : sum local = 4.02876e-08, global = -2.12867e-20, cumulative = -2.01623e-20
nonePBiCGStab:  Solving for p, Initial residual = 0.0547753, Final residual = 9.75739e-05, No Iterations 362
linear solve p 4146532
time step continuity errors : sum local = 7.20187e-08, global = -4.39015e-21, cumulative = -2.45525e-20
ExecutionTime = 101.22 s  ClockTime = 102 s

End

