/*---------------------------------------------------------------------------*\
  =========                 |
  \\      /  F ield         | OpenFOAM: The Open Source CFD Toolbox
   \\    /   O peration     | Website:  https://openfoam.org
    \\  /    A nd           | Version:  8
     \\/     M anipulation  |
\*---------------------------------------------------------------------------*/
Build  : 8-ef60d22ea792
Exec   : icoFoam
Date   : Jul 28 2021
Time   : 21:57:44
Host   : "uc2n426.localdomain"
PID    : 875260
I/O    : uncollated
Case   : /pfs/data5/home/kit/scc/nq7776/code/OBR/lidDrivenCavity3D/Variation_mesh/15/Variation_matrix_solver/BiCGStab_BJ_OMP/base
nProcs : 1
sigFpe : Enabling floating point exception trapping (FOAM_SIGFPE).
fileModificationChecking : Monitoring run-time modified files using timeStampMaster (fileModificationSkew 10)
allowSystemOperations : Allowing user-supplied system call operations

// * * * * * * * * * * * * * * * * * * * * * * * * * * * * * * * * * * * * * //
Create time

Create mesh for time = 0

Reading transportProperties

Reading field p

Reading field U

Reading/calculating face flux field phi


Starting time loop

Time = 0.001

Courant Number mean: 0 max: 0
DILUPBiCGStab:  Solving for Ux, Initial residual = 1, Final residual = 1.1028e-13, No Iterations 5
DILUPBiCGStab:  Solving for Uy:  solution singularity
DILUPBiCGStab:  Solving for Uz:  solution singularity
linear solve U 1298
[OGL LOG] init_host_sparsity_pattern : 1 ms
[OGL LOG] matrix not stored update host matrix
[OGL LOG] update_host_mtx : 0 ms
[OGL LOG] matrix is not yet sorted, compute sorting idxs
[OGL LOG] compute_sort : 22 ms
[OGL LOG] matrix is not yet sorted, sorting host matrix
[OGL LOG] sort_host_mtx_sparsity_pattern : 0 ms
[OGL LOG] sort_host_mtx : 0 ms
[OGL LOG] init_preconditioner : 0 ms
[OGL LOG] solve : 26 ms
BJompGKOBiCGStab:  Solving for p, Initial residual = 1, Final residual = 8.76396e-05, No Iterations 69
linear solve p 54923
time step continuity errors : sum local = 2.64343e-07, global = -1.16401e-20, cumulative = -1.16401e-20
[OGL LOG] init_host_sparsity_pattern : 0 ms
[OGL LOG] matrix not stored update host matrix
[OGL LOG] update_host_mtx : 0 ms
[OGL LOG] matrix is not yet sorted, sorting host matrix
[OGL LOG] sort_host_mtx_sparsity_pattern : 0 ms
[OGL LOG] sort_host_mtx : 0 ms
[OGL LOG] init_preconditioner : 0 ms
[OGL LOG] solve : 24 ms
BJompGKOBiCGStab:  Solving for p, Initial residual = 0.317184, Final residual = 5.5439e-05, No Iterations 64
linear solve p 27503
time step continuity errors : sum local = 8.58553e-07, global = -8.38291e-21, cumulative = -2.0023e-20
ExecutionTime = 0.18 s  ClockTime = 0 s

Time = 0.002

Courant Number mean: 0.0055951 max: 0.0357001
DILUPBiCGStab:  Solving for Ux, Initial residual = 0.242483, Final residual = 1.14005e-14, No Iterations 5
DILUPBiCGStab:  Solving for Uy, Initial residual = 0.296129, Final residual = 1.12392e-14, No Iterations 5
DILUPBiCGStab:  Solving for Uz, Initial residual = 0.674674, Final residual = 3.70431e-14, No Iterations 5
linear solve U 2023
[OGL LOG] init_host_sparsity_pattern : 0 ms
[OGL LOG] matrix not stored update host matrix
[OGL LOG] update_host_mtx : 0 ms
[OGL LOG] matrix is not yet sorted, sorting host matrix
[OGL LOG] sort_host_mtx_sparsity_pattern : 0 ms
[OGL LOG] sort_host_mtx : 0 ms
[OGL LOG] init_preconditioner : 0 ms
[OGL LOG] solve : 23 ms
BJompGKOBiCGStab:  Solving for p, Initial residual = 0.158109, Final residual = 2.89567e-05, No Iterations 62
linear solve p 26596
time step continuity errors : sum local = 1.6204e-06, global = 1.25318e-20, cumulative = -7.49121e-21
[OGL LOG] init_host_sparsity_pattern : 0 ms
[OGL LOG] matrix not stored update host matrix
[OGL LOG] update_host_mtx : 0 ms
[OGL LOG] matrix is not yet sorted, sorting host matrix
[OGL LOG] sort_host_mtx_sparsity_pattern : 0 ms
[OGL LOG] sort_host_mtx : 0 ms
[OGL LOG] init_preconditioner : 0 ms
[OGL LOG] solve : 22 ms
BJompGKOBiCGStab:  Solving for p, Initial residual = 0.0624258, Final residual = 9.81988e-05, No Iterations 59
linear solve p 25467
time step continuity errors : sum local = 3.99565e-07, global = -6.23818e-21, cumulative = -1.37294e-20
ExecutionTime = 0.29 s  ClockTime = 0 s

Time = 0.003

Courant Number mean: 0.00940329 max: 0.0587303
DILUPBiCGStab:  Solving for Ux, Initial residual = 0.117883, Final residual = 5.34238e-15, No Iterations 5
DILUPBiCGStab:  Solving for Uy, Initial residual = 0.148874, Final residual = 5.35326e-15, No Iterations 5
DILUPBiCGStab:  Solving for Uz, Initial residual = 0.337326, Final residual = 2.35496e-14, No Iterations 5
linear solve U 1963
[OGL LOG] init_host_sparsity_pattern : 0 ms
[OGL LOG] matrix not stored update host matrix
[OGL LOG] update_host_mtx : 0 ms
[OGL LOG] matrix is not yet sorted, sorting host matrix
[OGL LOG] sort_host_mtx_sparsity_pattern : 0 ms
[OGL LOG] sort_host_mtx : 0 ms
[OGL LOG] init_preconditioner : 0 ms
[OGL LOG] solve : 12 ms
BJompGKOBiCGStab:  Solving for p, Initial residual = 0.0769687, Final residual = 9.98954e-05, No Iterations 34
linear solve p 15810
time step continuity errors : sum local = 8.44783e-08, global = -2.20865e-20, cumulative = -3.58159e-20
[OGL LOG] init_host_sparsity_pattern : 0 ms
[OGL LOG] matrix not stored update host matrix
[OGL LOG] update_host_mtx : 0 ms
[OGL LOG] matrix is not yet sorted, sorting host matrix
[OGL LOG] sort_host_mtx_sparsity_pattern : 0 ms
[OGL LOG] sort_host_mtx : 0 ms
[OGL LOG] init_preconditioner : 0 ms
[OGL LOG] solve : 8 ms
BJompGKOBiCGStab:  Solving for p, Initial residual = 0.0344135, Final residual = 9.96333e-05, No Iterations 21
linear solve p 10947
time step continuity errors : sum local = 1.43225e-07, global = 4.63252e-21, cumulative = -3.11834e-20
ExecutionTime = 0.35 s  ClockTime = 0 s

Time = 0.004

Courant Number mean: 0.0121904 max: 0.0737273
DILUPBiCGStab:  Solving for Ux, Initial residual = 0.0723231, Final residual = 2.99022e-15, No Iterations 5
DILUPBiCGStab:  Solving for Uy, Initial residual = 0.0916614, Final residual = 3.02119e-15, No Iterations 5
DILUPBiCGStab:  Solving for Uz, Initial residual = 0.18333, Final residual = 7.07677e-15, No Iterations 5
linear solve U 1969
[OGL LOG] init_host_sparsity_pattern : 0 ms
[OGL LOG] matrix not stored update host matrix
[OGL LOG] update_host_mtx : 0 ms
[OGL LOG] matrix is not yet sorted, sorting host matrix
[OGL LOG] sort_host_mtx_sparsity_pattern : 0 ms
[OGL LOG] sort_host_mtx : 0 ms
[OGL LOG] init_preconditioner : 0 ms
[OGL LOG] solve : 11 ms
BJompGKOBiCGStab:  Solving for p, Initial residual = 0.049352, Final residual = 9.3767e-05, No Iterations 29
linear solve p 14130
time step continuity errors : sum local = 1.52809e-07, global = -1.5723e-20, cumulative = -4.69065e-20
[OGL LOG] init_host_sparsity_pattern : 0 ms
[OGL LOG] matrix not stored update host matrix
[OGL LOG] update_host_mtx : 0 ms
[OGL LOG] matrix is not yet sorted, sorting host matrix
[OGL LOG] sort_host_mtx_sparsity_pattern : 0 ms
[OGL LOG] sort_host_mtx : 0 ms
[OGL LOG] init_preconditioner : 0 ms
[OGL LOG] solve : 8 ms
BJompGKOBiCGStab:  Solving for p, Initial residual = 0.0222099, Final residual = 8.11949e-05, No Iterations 21
linear solve p 11448
time step continuity errors : sum local = 8.64011e-08, global = -2.86796e-20, cumulative = -7.55861e-20
ExecutionTime = 0.4 s  ClockTime = 0 s

Time = 0.005

Courant Number mean: 0.0143059 max: 0.0838054
DILUPBiCGStab:  Solving for Ux, Initial residual = 0.0485547, Final residual = 1.79947e-15, No Iterations 5
DILUPBiCGStab:  Solving for Uy, Initial residual = 0.0627444, Final residual = 1.74776e-15, No Iterations 5
DILUPBiCGStab:  Solving for Uz, Initial residual = 0.130395, Final residual = 5.13321e-15, No Iterations 5
linear solve U 1999
[OGL LOG] init_host_sparsity_pattern : 0 ms
[OGL LOG] matrix not stored update host matrix
[OGL LOG] update_host_mtx : 0 ms
[OGL LOG] matrix is not yet sorted, sorting host matrix
[OGL LOG] sort_host_mtx_sparsity_pattern : 0 ms
[OGL LOG] sort_host_mtx : 0 ms
[OGL LOG] init_preconditioner : 0 ms
[OGL LOG] solve : 22 ms
BJompGKOBiCGStab:  Solving for p, Initial residual = 0.0359493, Final residual = 9.29821e-05, No Iterations 58
linear solve p 25167
time step continuity errors : sum local = 9.68079e-08, global = -2.68445e-20, cumulative = -1.02431e-19
[OGL LOG] init_host_sparsity_pattern : 0 ms
[OGL LOG] matrix not stored update host matrix
[OGL LOG] update_host_mtx : 0 ms
[OGL LOG] matrix is not yet sorted, sorting host matrix
[OGL LOG] sort_host_mtx_sparsity_pattern : 0 ms
[OGL LOG] sort_host_mtx : 0 ms
[OGL LOG] init_preconditioner : 0 ms
[OGL LOG] solve : 7 ms
BJompGKOBiCGStab:  Solving for p, Initial residual = 0.0152086, Final residual = 6.84228e-05, No Iterations 20
linear solve p 10919
time step continuity errors : sum local = 9.71639e-08, global = -1.15761e-20, cumulative = -1.14007e-19
ExecutionTime = 0.48 s  ClockTime = 0 s

Time = 0.006

Courant Number mean: 0.0159482 max: 0.0908034
DILUPBiCGStab:  Solving for Ux, Initial residual = 0.0353319, Final residual = 1.175e-15, No Iterations 5
DILUPBiCGStab:  Solving for Uy, Initial residual = 0.0461318, Final residual = 1.06254e-15, No Iterations 5
DILUPBiCGStab:  Solving for Uz, Initial residual = 0.100315, Final residual = 4.4275e-15, No Iterations 5
linear solve U 1980
[OGL LOG] init_host_sparsity_pattern : 0 ms
[OGL LOG] matrix not stored update host matrix
[OGL LOG] update_host_mtx : 0 ms
[OGL LOG] matrix is not yet sorted, sorting host matrix
[OGL LOG] sort_host_mtx_sparsity_pattern : 0 ms
[OGL LOG] sort_host_mtx : 0 ms
[OGL LOG] init_preconditioner : 0 ms
[OGL LOG] solve : 9 ms
BJompGKOBiCGStab:  Solving for p, Initial residual = 0.0289223, Final residual = 9.21157e-05, No Iterations 23
linear solve p 12297
time step continuity errors : sum local = 1.06296e-07, global = 3.53388e-20, cumulative = -7.86678e-20
[OGL LOG] init_host_sparsity_pattern : 0 ms
[OGL LOG] matrix not stored update host matrix
[OGL LOG] update_host_mtx : 0 ms
[OGL LOG] matrix is not yet sorted, sorting host matrix
[OGL LOG] sort_host_mtx_sparsity_pattern : 0 ms
[OGL LOG] sort_host_mtx : 0 ms
[OGL LOG] init_preconditioner : 0 ms
[OGL LOG] solve : 7 ms
BJompGKOBiCGStab:  Solving for p, Initial residual = 0.0110935, Final residual = 8.08488e-05, No Iterations 20
linear solve p 10900
time step continuity errors : sum local = 9.52906e-08, global = 1.4817e-20, cumulative = -6.38508e-20
ExecutionTime = 0.53 s  ClockTime = 0 s

Time = 0.007

Courant Number mean: 0.0172717 max: 0.0958251
DILUPBiCGStab:  Solving for Ux, Initial residual = 0.0271483, Final residual = 8.71274e-16, No Iterations 5
DILUPBiCGStab:  Solving for Uy, Initial residual = 0.0356403, Final residual = 7.4059e-16, No Iterations 5
DILUPBiCGStab:  Solving for Uz, Initial residual = 0.0795129, Final residual = 3.00501e-15, No Iterations 5
linear solve U 1973
[OGL LOG] init_host_sparsity_pattern : 0 ms
[OGL LOG] matrix not stored update host matrix
[OGL LOG] update_host_mtx : 0 ms
[OGL LOG] matrix is not yet sorted, sorting host matrix
[OGL LOG] sort_host_mtx_sparsity_pattern : 0 ms
[OGL LOG] sort_host_mtx : 0 ms
[OGL LOG] init_preconditioner : 0 ms
[OGL LOG] solve : 8 ms
BJompGKOBiCGStab:  Solving for p, Initial residual = 0.0217356, Final residual = 7.90963e-05, No Iterations 22
linear solve p 11894
time step continuity errors : sum local = 1.38681e-07, global = -3.33943e-20, cumulative = -9.72452e-20
[OGL LOG] init_host_sparsity_pattern : 0 ms
[OGL LOG] matrix not stored update host matrix
[OGL LOG] update_host_mtx : 0 ms
[OGL LOG] matrix is not yet sorted, sorting host matrix
[OGL LOG] sort_host_mtx_sparsity_pattern : 0 ms
[OGL LOG] sort_host_mtx : 0 ms
[OGL LOG] init_preconditioner : 0 ms
[OGL LOG] solve : 7 ms
BJompGKOBiCGStab:  Solving for p, Initial residual = 0.00863623, Final residual = 7.24154e-05, No Iterations 19
linear solve p 10776
time step continuity errors : sum local = 1.51317e-07, global = 8.86241e-21, cumulative = -8.83827e-20
ExecutionTime = 0.58 s  ClockTime = 0 s

Time = 0.008

Courant Number mean: 0.0183552 max: 0.0995504
DILUPBiCGStab:  Solving for Ux, Initial residual = 0.0216301, Final residual = 6.39863e-16, No Iterations 5
DILUPBiCGStab:  Solving for Uy, Initial residual = 0.0286401, Final residual = 5.78461e-16, No Iterations 5
DILUPBiCGStab:  Solving for Uz, Initial residual = 0.0652119, Final residual = 2.3725e-15, No Iterations 5
linear solve U 1971
[OGL LOG] init_host_sparsity_pattern : 0 ms
[OGL LOG] matrix not stored update host matrix
[OGL LOG] update_host_mtx : 0 ms
[OGL LOG] matrix is not yet sorted, sorting host matrix
[OGL LOG] sort_host_mtx_sparsity_pattern : 0 ms
[OGL LOG] sort_host_mtx : 0 ms
[OGL LOG] init_preconditioner : 0 ms
[OGL LOG] solve : 8 ms
BJompGKOBiCGStab:  Solving for p, Initial residual = 0.0163197, Final residual = 9.63922e-05, No Iterations 23
linear solve p 11983
time step continuity errors : sum local = 1.40888e-07, global = 1.00808e-20, cumulative = -7.83019e-20
[OGL LOG] init_host_sparsity_pattern : 0 ms
[OGL LOG] matrix not stored update host matrix
[OGL LOG] update_host_mtx : 0 ms
[OGL LOG] matrix is not yet sorted, sorting host matrix
[OGL LOG] sort_host_mtx_sparsity_pattern : 0 ms
[OGL LOG] sort_host_mtx : 0 ms
[OGL LOG] init_preconditioner : 0 ms
[OGL LOG] solve : 7 ms
BJompGKOBiCGStab:  Solving for p, Initial residual = 0.00666472, Final residual = 6.41596e-05, No Iterations 20
linear solve p 11010
time step continuity errors : sum local = 1.32094e-07, global = 3.44686e-21, cumulative = -7.4855e-20
ExecutionTime = 0.63 s  ClockTime = 0 s

Time = 0.009

Courant Number mean: 0.0192553 max: 0.102395
DILUPBiCGStab:  Solving for Ux, Initial residual = 0.0176752, Final residual = 4.37074e-16, No Iterations 5
DILUPBiCGStab:  Solving for Uy, Initial residual = 0.0236359, Final residual = 4.82804e-16, No Iterations 5
DILUPBiCGStab:  Solving for Uz, Initial residual = 0.0546583, Final residual = 1.86635e-15, No Iterations 5
linear solve U 1974
[OGL LOG] init_host_sparsity_pattern : 0 ms
[OGL LOG] matrix not stored update host matrix
[OGL LOG] update_host_mtx : 0 ms
[OGL LOG] matrix is not yet sorted, sorting host matrix
[OGL LOG] sort_host_mtx_sparsity_pattern : 0 ms
[OGL LOG] sort_host_mtx : 0 ms
[OGL LOG] init_preconditioner : 0 ms
[OGL LOG] solve : 8 ms
BJompGKOBiCGStab:  Solving for p, Initial residual = 0.01331, Final residual = 9.39555e-05, No Iterations 22
linear solve p 11881
time step continuity errors : sum local = 1.91062e-07, global = 2.07688e-20, cumulative = -5.40862e-20
[OGL LOG] init_host_sparsity_pattern : 0 ms
[OGL LOG] matrix not stored update host matrix
[OGL LOG] update_host_mtx : 0 ms
[OGL LOG] matrix is not yet sorted, sorting host matrix
[OGL LOG] sort_host_mtx_sparsity_pattern : 0 ms
[OGL LOG] sort_host_mtx : 0 ms
[OGL LOG] init_preconditioner : 0 ms
[OGL LOG] solve : 8 ms
BJompGKOBiCGStab:  Solving for p, Initial residual = 0.0054587, Final residual = 8.30433e-05, No Iterations 20
linear solve p 11150
time step continuity errors : sum local = 1.77129e-07, global = -4.47724e-20, cumulative = -9.88586e-20
ExecutionTime = 0.68 s  ClockTime = 0 s

Time = 0.01

Courant Number mean: 0.0200145 max: 0.104627
DILUPBiCGStab:  Solving for Ux, Initial residual = 0.0147184, Final residual = 2.84444e-16, No Iterations 5
DILUPBiCGStab:  Solving for Uy, Initial residual = 0.0199483, Final residual = 4.01262e-16, No Iterations 5
DILUPBiCGStab:  Solving for Uz, Initial residual = 0.0464998, Final residual = 1.53216e-15, No Iterations 5
linear solve U 1972
[OGL LOG] init_host_sparsity_pattern : 0 ms
[OGL LOG] matrix not stored update host matrix
[OGL LOG] update_host_mtx : 0 ms
[OGL LOG] matrix is not yet sorted, sorting host matrix
[OGL LOG] sort_host_mtx_sparsity_pattern : 0 ms
[OGL LOG] sort_host_mtx : 0 ms
[OGL LOG] init_preconditioner : 0 ms
[OGL LOG] solve : 8 ms
BJompGKOBiCGStab:  Solving for p, Initial residual = 0.0112069, Final residual = 9.45411e-05, No Iterations 22
linear solve p 11813
time step continuity errors : sum local = 2.00724e-07, global = -2.86697e-20, cumulative = -1.27528e-19
[OGL LOG] init_host_sparsity_pattern : 0 ms
[OGL LOG] matrix not stored update host matrix
[OGL LOG] update_host_mtx : 0 ms
[OGL LOG] matrix is not yet sorted, sorting host matrix
[OGL LOG] sort_host_mtx_sparsity_pattern : 0 ms
[OGL LOG] sort_host_mtx : 0 ms
[OGL LOG] init_preconditioner : 0 ms
[OGL LOG] solve : 7 ms
BJompGKOBiCGStab:  Solving for p, Initial residual = 0.00455802, Final residual = 8.52399e-05, No Iterations 20
linear solve p 10813
time step continuity errors : sum local = 1.55775e-07, global = 3.39822e-20, cumulative = -9.3546e-20
ExecutionTime = 0.73 s  ClockTime = 0 s

End

