/*---------------------------------------------------------------------------*\
  =========                 |
  \\      /  F ield         | OpenFOAM: The Open Source CFD Toolbox
   \\    /   O peration     | Website:  https://openfoam.org
    \\  /    A nd           | Version:  8
     \\/     M anipulation  |
\*---------------------------------------------------------------------------*/
Build  : 8-ef60d22ea792
Exec   : icoFoam
Date   : Jul 29 2021
Time   : 01:16:13
Host   : "uc2n414.localdomain"
PID    : 2844131
I/O    : uncollated
Case   : /pfs/data5/home/kit/scc/nq7776/code/OBR/lidDrivenCavity3D/Variation_mesh/65/Variation_matrix_solver/IR_NoPrecond_OMP/base
nProcs : 1
sigFpe : Enabling floating point exception trapping (FOAM_SIGFPE).
fileModificationChecking : Monitoring run-time modified files using timeStampMaster (fileModificationSkew 10)
allowSystemOperations : Allowing user-supplied system call operations

// * * * * * * * * * * * * * * * * * * * * * * * * * * * * * * * * * * * * * //
Create time

Create mesh for time = 0

Reading transportProperties

Reading field p

Reading field U

Reading/calculating face flux field phi


Starting time loop

Time = 0.001

Courant Number mean: 0 max: 0
DILUPBiCGStab:  Solving for Ux, Initial residual = 1, Final residual = 0.0009093, No Iterations 5
DILUPBiCGStab:  Solving for Uy:  solution singularity
DILUPBiCGStab:  Solving for Uz:  solution singularity
linear solve U 128527
[OGL LOG] init_host_sparsity_pattern : 78 ms
[OGL LOG] matrix not stored update host matrix
[OGL LOG] update_host_mtx : 40 ms
[OGL LOG] matrix is not yet sorted, compute sorting idxs
[OGL LOG] compute_sort : 2388 ms
[OGL LOG] matrix is not yet sorted, sorting host matrix
[OGL LOG] sort_host_mtx_sparsity_pattern : 56 ms
[OGL LOG] sort_host_mtx : 32 ms
[OGL LOG] init_preconditioner : 0 ms
[OGL LOG] solve : 4578 ms
noneompGKOIR:  Solving for p, Initial residual = 1, Final residual = 1.10429e-05, No Iterations 3
linear solve p 7231215
time step continuity errors : sum local = 6.53366e-09, global = 7.67584e-21, cumulative = 7.67584e-21
[OGL LOG] init_host_sparsity_pattern : 78 ms
[OGL LOG] matrix not stored update host matrix
[OGL LOG] update_host_mtx : 40 ms
[OGL LOG] matrix is not yet sorted, sorting host matrix
[OGL LOG] sort_host_mtx_sparsity_pattern : 56 ms
[OGL LOG] sort_host_mtx : 28 ms
[OGL LOG] init_preconditioner : 0 ms
[OGL LOG] solve : 4666 ms
noneompGKOIR:  Solving for p, Initial residual = 0.710559, Final residual = 5.49293e-06, No Iterations 3
linear solve p 4905221
time step continuity errors : sum local = 4.37613e-09, global = -3.60446e-21, cumulative = 4.07138e-21
ExecutionTime = 13.41 s  ClockTime = 14 s

Time = 0.002

Courant Number mean: 0.036459 max: 0.470838
DILUPBiCGStab:  Solving for Ux, Initial residual = 0.154387, Final residual = 0.000271565, No Iterations 5
DILUPBiCGStab:  Solving for Uy, Initial residual = 0.350437, Final residual = 0.000506096, No Iterations 5
DILUPBiCGStab:  Solving for Uz, Initial residual = 0.982791, Final residual = 0.00176911, No Iterations 5
linear solve U 242642
[OGL LOG] init_host_sparsity_pattern : 76 ms
[OGL LOG] matrix not stored update host matrix
[OGL LOG] update_host_mtx : 41 ms
[OGL LOG] matrix is not yet sorted, sorting host matrix
[OGL LOG] sort_host_mtx_sparsity_pattern : 56 ms
[OGL LOG] sort_host_mtx : 28 ms
[OGL LOG] init_preconditioner : 0 ms
[OGL LOG] solve : 4675 ms
noneompGKOIR:  Solving for p, Initial residual = 0.645931, Final residual = 3.18338e-06, No Iterations 3
linear solve p 4910616
time step continuity errors : sum local = 2.68834e-09, global = 6.72125e-21, cumulative = 1.07926e-20
[OGL LOG] init_host_sparsity_pattern : 75 ms
[OGL LOG] matrix not stored update host matrix
[OGL LOG] update_host_mtx : 41 ms
[OGL LOG] matrix is not yet sorted, sorting host matrix
[OGL LOG] sort_host_mtx_sparsity_pattern : 59 ms
[OGL LOG] sort_host_mtx : 28 ms
[OGL LOG] init_preconditioner : 0 ms
[OGL LOG] solve : 4700 ms
noneompGKOIR:  Solving for p, Initial residual = 0.569369, Final residual = 2.63966e-06, No Iterations 3
linear solve p 4938184
time step continuity errors : sum local = 2.28355e-09, global = 7.04626e-21, cumulative = 1.78389e-20
ExecutionTime = 23.63 s  ClockTime = 24 s

Time = 0.003

Courant Number mean: 0.0547095 max: 0.564536
DILUPBiCGStab:  Solving for Ux, Initial residual = 0.0506125, Final residual = 5.48098e-05, No Iterations 5
DILUPBiCGStab:  Solving for Uy, Initial residual = 0.109588, Final residual = 0.000120713, No Iterations 5
DILUPBiCGStab:  Solving for Uz, Initial residual = 0.38829, Final residual = 0.000649282, No Iterations 5
linear solve U 240427
[OGL LOG] init_host_sparsity_pattern : 72 ms
[OGL LOG] matrix not stored update host matrix
[OGL LOG] update_host_mtx : 38 ms
[OGL LOG] matrix is not yet sorted, sorting host matrix
[OGL LOG] sort_host_mtx_sparsity_pattern : 56 ms
[OGL LOG] sort_host_mtx : 27 ms
[OGL LOG] init_preconditioner : 0 ms
[OGL LOG] solve : 4387 ms
noneompGKOIR:  Solving for p, Initial residual = 0.547614, Final residual = 1.96392e-06, No Iterations 3
linear solve p 4616140
time step continuity errors : sum local = 1.15017e-09, global = 7.45411e-21, cumulative = 2.5293e-20
[OGL LOG] init_host_sparsity_pattern : 75 ms
[OGL LOG] matrix not stored update host matrix
[OGL LOG] update_host_mtx : 40 ms
[OGL LOG] matrix is not yet sorted, sorting host matrix
[OGL LOG] sort_host_mtx_sparsity_pattern : 56 ms
[OGL LOG] sort_host_mtx : 28 ms
[OGL LOG] init_preconditioner : 0 ms
[OGL LOG] solve : 4387 ms
noneompGKOIR:  Solving for p, Initial residual = 0.491358, Final residual = 1.49336e-06, No Iterations 3
linear solve p 4621487
time step continuity errors : sum local = 8.5376e-10, global = 1.69907e-20, cumulative = 4.22837e-20
ExecutionTime = 33.23 s  ClockTime = 34 s

Time = 0.004

Courant Number mean: 0.0645905 max: 0.579603
DILUPBiCGStab:  Solving for Ux, Initial residual = 0.0290686, Final residual = 3.32273e-05, No Iterations 5
DILUPBiCGStab:  Solving for Uy, Initial residual = 0.0718667, Final residual = 5.5506e-05, No Iterations 5
DILUPBiCGStab:  Solving for Uz, Initial residual = 0.208367, Final residual = 0.000261135, No Iterations 5
linear solve U 240142
[OGL LOG] init_host_sparsity_pattern : 72 ms
[OGL LOG] matrix not stored update host matrix
[OGL LOG] update_host_mtx : 38 ms
[OGL LOG] matrix is not yet sorted, sorting host matrix
[OGL LOG] sort_host_mtx_sparsity_pattern : 56 ms
[OGL LOG] sort_host_mtx : 27 ms
[OGL LOG] init_preconditioner : 0 ms
[OGL LOG] solve : 3566 ms
noneompGKOIR:  Solving for p, Initial residual = 0.316561, Final residual = 9.7324e-05, No Iterations 2
linear solve p 3795404
time step continuity errors : sum local = 5.06232e-08, global = -1.03313e-20, cumulative = 3.19524e-20
[OGL LOG] init_host_sparsity_pattern : 76 ms
[OGL LOG] matrix not stored update host matrix
[OGL LOG] update_host_mtx : 42 ms
[OGL LOG] matrix is not yet sorted, sorting host matrix
[OGL LOG] sort_host_mtx_sparsity_pattern : 56 ms
[OGL LOG] sort_host_mtx : 27 ms
[OGL LOG] init_preconditioner : 0 ms
[OGL LOG] solve : 3565 ms
noneompGKOIR:  Solving for p, Initial residual = 0.261801, Final residual = 8.70105e-05, No Iterations 2
linear solve p 3801438
time step continuity errors : sum local = 4.58093e-08, global = 7.18633e-21, cumulative = 3.91388e-20
ExecutionTime = 41.2 s  ClockTime = 42 s

Time = 0.005

Courant Number mean: 0.0722268 max: 0.589262
DILUPBiCGStab:  Solving for Ux, Initial residual = 0.0206454, Final residual = 1.46625e-05, No Iterations 5
DILUPBiCGStab:  Solving for Uy, Initial residual = 0.0445523, Final residual = 3.50867e-05, No Iterations 5
DILUPBiCGStab:  Solving for Uz, Initial residual = 0.0749172, Final residual = 7.5559e-05, No Iterations 5
linear solve U 240048
[OGL LOG] init_host_sparsity_pattern : 72 ms
[OGL LOG] matrix not stored update host matrix
[OGL LOG] update_host_mtx : 38 ms
[OGL LOG] matrix is not yet sorted, sorting host matrix
[OGL LOG] sort_host_mtx_sparsity_pattern : 56 ms
[OGL LOG] sort_host_mtx : 27 ms
[OGL LOG] init_preconditioner : 0 ms
[OGL LOG] solve : 3550 ms
noneompGKOIR:  Solving for p, Initial residual = 0.21394, Final residual = 5.81935e-05, No Iterations 2
linear solve p 3779170
time step continuity errors : sum local = 2.65086e-08, global = 2.12587e-21, cumulative = 4.12646e-20
[OGL LOG] init_host_sparsity_pattern : 77 ms
[OGL LOG] matrix not stored update host matrix
[OGL LOG] update_host_mtx : 41 ms
[OGL LOG] matrix is not yet sorted, sorting host matrix
[OGL LOG] sort_host_mtx_sparsity_pattern : 57 ms
[OGL LOG] sort_host_mtx : 27 ms
[OGL LOG] init_preconditioner : 0 ms
[OGL LOG] solve : 3551 ms
noneompGKOIR:  Solving for p, Initial residual = 0.179725, Final residual = 4.95624e-05, No Iterations 2
linear solve p 3788657
time step continuity errors : sum local = 2.24454e-08, global = -2.53798e-20, cumulative = 1.58848e-20
ExecutionTime = 49.14 s  ClockTime = 50 s

Time = 0.006

Courant Number mean: 0.0781057 max: 0.595024
DILUPBiCGStab:  Solving for Ux, Initial residual = 0.0153432, Final residual = 1.31625e-05, No Iterations 5
DILUPBiCGStab:  Solving for Uy, Initial residual = 0.0341625, Final residual = 1.47385e-05, No Iterations 5
DILUPBiCGStab:  Solving for Uz, Initial residual = 0.0669808, Final residual = 6.49855e-05, No Iterations 5
linear solve U 238884
[OGL LOG] init_host_sparsity_pattern : 73 ms
[OGL LOG] matrix not stored update host matrix
[OGL LOG] update_host_mtx : 38 ms
[OGL LOG] matrix is not yet sorted, sorting host matrix
[OGL LOG] sort_host_mtx_sparsity_pattern : 56 ms
[OGL LOG] sort_host_mtx : 27 ms
[OGL LOG] init_preconditioner : 0 ms
[OGL LOG] solve : 3539 ms
noneompGKOIR:  Solving for p, Initial residual = 0.126566, Final residual = 3.48507e-05, No Iterations 2
linear solve p 3769004
time step continuity errors : sum local = 1.55692e-08, global = -3.49151e-21, cumulative = 1.23933e-20
[OGL LOG] init_host_sparsity_pattern : 76 ms
[OGL LOG] matrix not stored update host matrix
[OGL LOG] update_host_mtx : 41 ms
[OGL LOG] matrix is not yet sorted, sorting host matrix
[OGL LOG] sort_host_mtx_sparsity_pattern : 57 ms
[OGL LOG] sort_host_mtx : 28 ms
[OGL LOG] init_preconditioner : 0 ms
[OGL LOG] solve : 3547 ms
noneompGKOIR:  Solving for p, Initial residual = 0.103628, Final residual = 2.53144e-05, No Iterations 2
linear solve p 3783857
time step continuity errors : sum local = 1.1344e-08, global = 1.3658e-20, cumulative = 2.60513e-20
ExecutionTime = 57.06 s  ClockTime = 58 s

Time = 0.007

Courant Number mean: 0.0829416 max: 0.598974
DILUPBiCGStab:  Solving for Ux, Initial residual = 0.0122037, Final residual = 5.65284e-06, No Iterations 5
DILUPBiCGStab:  Solving for Uy, Initial residual = 0.0269887, Final residual = 1.48975e-05, No Iterations 5
DILUPBiCGStab:  Solving for Uz, Initial residual = 0.0482199, Final residual = 4.02443e-05, No Iterations 5
linear solve U 239075
[OGL LOG] init_host_sparsity_pattern : 74 ms
[OGL LOG] matrix not stored update host matrix
[OGL LOG] update_host_mtx : 38 ms
[OGL LOG] matrix is not yet sorted, sorting host matrix
[OGL LOG] sort_host_mtx_sparsity_pattern : 55 ms
[OGL LOG] sort_host_mtx : 27 ms
[OGL LOG] init_preconditioner : 0 ms
[OGL LOG] solve : 3533 ms
noneompGKOIR:  Solving for p, Initial residual = 0.0842903, Final residual = 1.94365e-05, No Iterations 2
linear solve p 3764350
time step continuity errors : sum local = 8.41809e-09, global = -1.12645e-20, cumulative = 1.47868e-20
[OGL LOG] init_host_sparsity_pattern : 76 ms
[OGL LOG] matrix not stored update host matrix
[OGL LOG] update_host_mtx : 41 ms
[OGL LOG] matrix is not yet sorted, sorting host matrix
[OGL LOG] sort_host_mtx_sparsity_pattern : 57 ms
[OGL LOG] sort_host_mtx : 27 ms
[OGL LOG] init_preconditioner : 0 ms
[OGL LOG] solve : 3550 ms
noneompGKOIR:  Solving for p, Initial residual = 0.0697594, Final residual = 1.61623e-05, No Iterations 2
linear solve p 3786002
time step continuity errors : sum local = 6.99939e-09, global = -2.2834e-20, cumulative = -8.04718e-21
ExecutionTime = 64.99 s  ClockTime = 66 s

Time = 0.008

Courant Number mean: 0.0869904 max: 0.601972
DILUPBiCGStab:  Solving for Ux, Initial residual = 0.0100273, Final residual = 4.71454e-06, No Iterations 5
DILUPBiCGStab:  Solving for Uy, Initial residual = 0.0221827, Final residual = 6.39541e-06, No Iterations 5
DILUPBiCGStab:  Solving for Uz, Initial residual = 0.0413933, Final residual = 2.70833e-05, No Iterations 5
linear solve U 238681
[OGL LOG] init_host_sparsity_pattern : 73 ms
[OGL LOG] matrix not stored update host matrix
[OGL LOG] update_host_mtx : 39 ms
[OGL LOG] matrix is not yet sorted, sorting host matrix
[OGL LOG] sort_host_mtx_sparsity_pattern : 56 ms
[OGL LOG] sort_host_mtx : 28 ms
[OGL LOG] init_preconditioner : 0 ms
[OGL LOG] solve : 3539 ms
noneompGKOIR:  Solving for p, Initial residual = 0.0539704, Final residual = 1.30053e-05, No Iterations 2
linear solve p 3771031
time step continuity errors : sum local = 5.57957e-09, global = -1.64894e-20, cumulative = -2.45366e-20
[OGL LOG] init_host_sparsity_pattern : 75 ms
[OGL LOG] matrix not stored update host matrix
[OGL LOG] update_host_mtx : 41 ms
[OGL LOG] matrix is not yet sorted, sorting host matrix
[OGL LOG] sort_host_mtx_sparsity_pattern : 57 ms
[OGL LOG] sort_host_mtx : 28 ms
[OGL LOG] init_preconditioner : 0 ms
[OGL LOG] solve : 3563 ms
noneompGKOIR:  Solving for p, Initial residual = 0.0447989, Final residual = 1.02771e-05, No Iterations 2
linear solve p 3799367
time step continuity errors : sum local = 4.41593e-09, global = -1.25253e-20, cumulative = -3.70618e-20
ExecutionTime = 72.94 s  ClockTime = 74 s

Time = 0.009

Courant Number mean: 0.0904654 max: 0.604262
DILUPBiCGStab:  Solving for Ux, Initial residual = 0.00841019, Final residual = 2.58843e-06, No Iterations 5
DILUPBiCGStab:  Solving for Uy, Initial residual = 0.0187777, Final residual = 6.28972e-06, No Iterations 5
DILUPBiCGStab:  Solving for Uz, Initial residual = 0.0354078, Final residual = 2.01685e-05, No Iterations 5
linear solve U 241117
[OGL LOG] init_host_sparsity_pattern : 74 ms
[OGL LOG] matrix not stored update host matrix
[OGL LOG] update_host_mtx : 38 ms
[OGL LOG] matrix is not yet sorted, sorting host matrix
[OGL LOG] sort_host_mtx_sparsity_pattern : 57 ms
[OGL LOG] sort_host_mtx : 28 ms
[OGL LOG] init_preconditioner : 0 ms
[OGL LOG] solve : 3602 ms
noneompGKOIR:  Solving for p, Initial residual = 0.0383442, Final residual = 8.18434e-06, No Iterations 2
linear solve p 3834867
time step continuity errors : sum local = 3.48564e-09, global = -1.67683e-20, cumulative = -5.38302e-20
[OGL LOG] init_host_sparsity_pattern : 76 ms
[OGL LOG] matrix not stored update host matrix
[OGL LOG] update_host_mtx : 43 ms
[OGL LOG] matrix is not yet sorted, sorting host matrix
[OGL LOG] sort_host_mtx_sparsity_pattern : 57 ms
[OGL LOG] sort_host_mtx : 27 ms
[OGL LOG] init_preconditioner : 0 ms
[OGL LOG] solve : 3661 ms
noneompGKOIR:  Solving for p, Initial residual = 0.0323548, Final residual = 6.37867e-06, No Iterations 2
linear solve p 3899560
time step continuity errors : sum local = 2.71783e-09, global = 1.32057e-20, cumulative = -4.06244e-20
ExecutionTime = 81.04 s  ClockTime = 82 s

Time = 0.01

Courant Number mean: 0.0934678 max: 0.606124
DILUPBiCGStab:  Solving for Ux, Initial residual = 0.00720628, Final residual = 2.07673e-06, No Iterations 5
DILUPBiCGStab:  Solving for Uy, Initial residual = 0.016093, Final residual = 2.52686e-06, No Iterations 5
DILUPBiCGStab:  Solving for Uz, Initial residual = 0.0306986, Final residual = 1.48062e-05, No Iterations 5
linear solve U 242250
[OGL LOG] init_host_sparsity_pattern : 73 ms
[OGL LOG] matrix not stored update host matrix
[OGL LOG] update_host_mtx : 38 ms
[OGL LOG] matrix is not yet sorted, sorting host matrix
[OGL LOG] sort_host_mtx_sparsity_pattern : 56 ms
[OGL LOG] sort_host_mtx : 27 ms
[OGL LOG] init_preconditioner : 0 ms
[OGL LOG] solve : 3655 ms
noneompGKOIR:  Solving for p, Initial residual = 0.0268385, Final residual = 5.02894e-06, No Iterations 2
linear solve p 3886095
time step continuity errors : sum local = 2.13456e-09, global = -7.14876e-21, cumulative = -4.77732e-20
[OGL LOG] init_host_sparsity_pattern : 79 ms
[OGL LOG] matrix not stored update host matrix
[OGL LOG] update_host_mtx : 40 ms
[OGL LOG] matrix is not yet sorted, sorting host matrix
[OGL LOG] sort_host_mtx_sparsity_pattern : 56 ms
[OGL LOG] sort_host_mtx : 27 ms
[OGL LOG] init_preconditioner : 0 ms
[OGL LOG] solve : 3709 ms
noneompGKOIR:  Solving for p, Initial residual = 0.0230474, Final residual = 4.18109e-06, No Iterations 2
linear solve p 3947332
time step continuity errors : sum local = 1.7763e-09, global = 4.39783e-21, cumulative = -4.33753e-20
ExecutionTime = 89.25 s  ClockTime = 90 s

End

