/*---------------------------------------------------------------------------*\
  =========                 |
  \\      /  F ield         | OpenFOAM: The Open Source CFD Toolbox
   \\    /   O peration     | Website:  https://openfoam.org
    \\  /    A nd           | Version:  8
     \\/     M anipulation  |
\*---------------------------------------------------------------------------*/
Build  : 8-ef60d22ea792
Exec   : icoFoam
Date   : Jul 28 2021
Time   : 21:57:22
Host   : "uc2n441.localdomain"
PID    : 3217094
I/O    : uncollated
Case   : /pfs/data5/home/kit/scc/nq7776/code/OBR/lidDrivenCavity3D/Variation_mesh/15/Variation_matrix_solver/BiCGStab_NoPrecond_OMP/base
nProcs : 1
sigFpe : Enabling floating point exception trapping (FOAM_SIGFPE).
fileModificationChecking : Monitoring run-time modified files using timeStampMaster (fileModificationSkew 10)
allowSystemOperations : Allowing user-supplied system call operations

// * * * * * * * * * * * * * * * * * * * * * * * * * * * * * * * * * * * * * //
Create time

Create mesh for time = 0

Reading transportProperties

Reading field p

Reading field U

Reading/calculating face flux field phi


Starting time loop

Time = 0.001

Courant Number mean: 0 max: 0
DILUPBiCGStab:  Solving for Ux, Initial residual = 1, Final residual = 1.1028e-13, No Iterations 5
DILUPBiCGStab:  Solving for Uy:  solution singularity
DILUPBiCGStab:  Solving for Uz:  solution singularity
linear solve U 1283
[OGL LOG] init_host_sparsity_pattern : 1 ms
[OGL LOG] matrix not stored update host matrix
[OGL LOG] update_host_mtx : 0 ms
[OGL LOG] matrix is not yet sorted, compute sorting idxs
[OGL LOG] compute_sort : 20 ms
[OGL LOG] matrix is not yet sorted, sorting host matrix
[OGL LOG] sort_host_mtx_sparsity_pattern : 0 ms
[OGL LOG] sort_host_mtx : 0 ms
[OGL LOG] init_preconditioner : 0 ms
[OGL LOG] solve : 15 ms
noneompGKOBiCGStab:  Solving for p, Initial residual = 1, Final residual = 3.62624e-05, No Iterations 98
linear solve p 41006
time step continuity errors : sum local = 1.34919e-06, global = -1.90334e-20, cumulative = -1.90334e-20
[OGL LOG] init_host_sparsity_pattern : 0 ms
[OGL LOG] matrix not stored update host matrix
[OGL LOG] update_host_mtx : 0 ms
[OGL LOG] matrix is not yet sorted, sorting host matrix
[OGL LOG] sort_host_mtx_sparsity_pattern : 0 ms
[OGL LOG] sort_host_mtx : 0 ms
[OGL LOG] init_preconditioner : 0 ms
[OGL LOG] solve : 13 ms
noneompGKOBiCGStab:  Solving for p, Initial residual = 0.317629, Final residual = 8.06739e-05, No Iterations 89
linear solve p 16253
time step continuity errors : sum local = 1.17777e-05, global = 8.53878e-21, cumulative = -1.04946e-20
ExecutionTime = 0.2 s  ClockTime = 0 s

Time = 0.002

Courant Number mean: 0.00559773 max: 0.0357014
DILUPBiCGStab:  Solving for Ux, Initial residual = 0.242234, Final residual = 1.13912e-14, No Iterations 5
DILUPBiCGStab:  Solving for Uy, Initial residual = 0.296322, Final residual = 1.13535e-14, No Iterations 5
DILUPBiCGStab:  Solving for Uz, Initial residual = 0.585307, Final residual = 6.95941e-14, No Iterations 5
linear solve U 1977
[OGL LOG] init_host_sparsity_pattern : 1 ms
[OGL LOG] matrix not stored update host matrix
[OGL LOG] update_host_mtx : 0 ms
[OGL LOG] matrix is not yet sorted, sorting host matrix
[OGL LOG] sort_host_mtx_sparsity_pattern : 0 ms
[OGL LOG] sort_host_mtx : 0 ms
[OGL LOG] init_preconditioner : 0 ms
[OGL LOG] solve : 6 ms
noneompGKOBiCGStab:  Solving for p, Initial residual = 0.17364, Final residual = 9.36869e-05, No Iterations 44
linear solve p 9718
time step continuity errors : sum local = 9.74657e-08, global = 3.96426e-21, cumulative = -6.53038e-21
[OGL LOG] init_host_sparsity_pattern : 0 ms
[OGL LOG] matrix not stored update host matrix
[OGL LOG] update_host_mtx : 0 ms
[OGL LOG] matrix is not yet sorted, sorting host matrix
[OGL LOG] sort_host_mtx_sparsity_pattern : 0 ms
[OGL LOG] sort_host_mtx : 0 ms
[OGL LOG] init_preconditioner : 0 ms
[OGL LOG] solve : 11 ms
noneompGKOBiCGStab:  Solving for p, Initial residual = 0.0633123, Final residual = 9.85611e-05, No Iterations 77
linear solve p 14305
time step continuity errors : sum local = 1.50172e-07, global = 1.45985e-20, cumulative = 8.06811e-21
ExecutionTime = 0.3 s  ClockTime = 0 s

Time = 0.003

Courant Number mean: 0.00940365 max: 0.05873
DILUPBiCGStab:  Solving for Ux, Initial residual = 0.117995, Final residual = 5.34733e-15, No Iterations 5
DILUPBiCGStab:  Solving for Uy, Initial residual = 0.148685, Final residual = 5.50697e-15, No Iterations 5
DILUPBiCGStab:  Solving for Uz, Initial residual = 0.331499, Final residual = 2.63474e-14, No Iterations 5
linear solve U 1970
[OGL LOG] init_host_sparsity_pattern : 0 ms
[OGL LOG] matrix not stored update host matrix
[OGL LOG] update_host_mtx : 0 ms
[OGL LOG] matrix is not yet sorted, sorting host matrix
[OGL LOG] sort_host_mtx_sparsity_pattern : 0 ms
[OGL LOG] sort_host_mtx : 0 ms
[OGL LOG] init_preconditioner : 0 ms
[OGL LOG] solve : 12 ms
noneompGKOBiCGStab:  Solving for p, Initial residual = 0.0790366, Final residual = 6.98897e-05, No Iterations 84
linear solve p 15550
time step continuity errors : sum local = 9.85695e-07, global = 2.95808e-20, cumulative = 3.76489e-20
[OGL LOG] init_host_sparsity_pattern : 0 ms
[OGL LOG] matrix not stored update host matrix
[OGL LOG] update_host_mtx : 0 ms
[OGL LOG] matrix is not yet sorted, sorting host matrix
[OGL LOG] sort_host_mtx_sparsity_pattern : 0 ms
[OGL LOG] sort_host_mtx : 0 ms
[OGL LOG] init_preconditioner : 0 ms
[OGL LOG] solve : 5 ms
noneompGKOBiCGStab:  Solving for p, Initial residual = 0.0353839, Final residual = 9.50637e-05, No Iterations 37
linear solve p 8560
time step continuity errors : sum local = 1.04117e-07, global = 1.10118e-20, cumulative = 4.86608e-20
ExecutionTime = 0.4 s  ClockTime = 0 s

Time = 0.004

Courant Number mean: 0.0121906 max: 0.073727
DILUPBiCGStab:  Solving for Ux, Initial residual = 0.0723261, Final residual = 2.9901e-15, No Iterations 5
DILUPBiCGStab:  Solving for Uy, Initial residual = 0.0916734, Final residual = 3.0247e-15, No Iterations 5
DILUPBiCGStab:  Solving for Uz, Initial residual = 0.183515, Final residual = 8.36145e-15, No Iterations 5
linear solve U 1971
[OGL LOG] init_host_sparsity_pattern : 0 ms
[OGL LOG] matrix not stored update host matrix
[OGL LOG] update_host_mtx : 0 ms
[OGL LOG] matrix is not yet sorted, sorting host matrix
[OGL LOG] sort_host_mtx_sparsity_pattern : 0 ms
[OGL LOG] sort_host_mtx : 0 ms
[OGL LOG] init_preconditioner : 0 ms
[OGL LOG] solve : 12 ms
noneompGKOBiCGStab:  Solving for p, Initial residual = 0.0495875, Final residual = 9.85381e-05, No Iterations 80
linear solve p 14993
time step continuity errors : sum local = 2.35228e-07, global = -8.37851e-21, cumulative = 4.02822e-20
[OGL LOG] init_host_sparsity_pattern : 0 ms
[OGL LOG] matrix not stored update host matrix
[OGL LOG] update_host_mtx : 0 ms
[OGL LOG] matrix is not yet sorted, sorting host matrix
[OGL LOG] sort_host_mtx_sparsity_pattern : 0 ms
[OGL LOG] sort_host_mtx : 0 ms
[OGL LOG] init_preconditioner : 0 ms
[OGL LOG] solve : 4 ms
noneompGKOBiCGStab:  Solving for p, Initial residual = 0.0222774, Final residual = 9.89422e-05, No Iterations 32
linear solve p 7745
time step continuity errors : sum local = 1.1707e-07, global = 1.411e-20, cumulative = 5.43923e-20
ExecutionTime = 0.51 s  ClockTime = 0 s

Time = 0.005

Courant Number mean: 0.0143062 max: 0.0838052
DILUPBiCGStab:  Solving for Ux, Initial residual = 0.0485568, Final residual = 1.79937e-15, No Iterations 5
DILUPBiCGStab:  Solving for Uy, Initial residual = 0.0627508, Final residual = 1.74901e-15, No Iterations 5
DILUPBiCGStab:  Solving for Uz, Initial residual = 0.129701, Final residual = 5.67746e-15, No Iterations 5
linear solve U 1967
[OGL LOG] init_host_sparsity_pattern : 0 ms
[OGL LOG] matrix not stored update host matrix
[OGL LOG] update_host_mtx : 0 ms
[OGL LOG] matrix is not yet sorted, sorting host matrix
[OGL LOG] sort_host_mtx_sparsity_pattern : 0 ms
[OGL LOG] sort_host_mtx : 0 ms
[OGL LOG] init_preconditioner : 0 ms
[OGL LOG] solve : 9 ms
noneompGKOBiCGStab:  Solving for p, Initial residual = 0.0359842, Final residual = 9.2404e-05, No Iterations 66
linear solve p 12837
time step continuity errors : sum local = 1.5247e-07, global = -1.9385e-20, cumulative = 3.50073e-20
[OGL LOG] init_host_sparsity_pattern : 0 ms
[OGL LOG] matrix not stored update host matrix
[OGL LOG] update_host_mtx : 0 ms
[OGL LOG] matrix is not yet sorted, sorting host matrix
[OGL LOG] sort_host_mtx_sparsity_pattern : 0 ms
[OGL LOG] sort_host_mtx : 0 ms
[OGL LOG] init_preconditioner : 0 ms
[OGL LOG] solve : 4 ms
noneompGKOBiCGStab:  Solving for p, Initial residual = 0.0152759, Final residual = 8.7311e-05, No Iterations 30
linear solve p 7506
time step continuity errors : sum local = 1.20584e-07, global = -2.69326e-20, cumulative = 8.07473e-21
ExecutionTime = 0.6 s  ClockTime = 0 s

Time = 0.006

Courant Number mean: 0.0159485 max: 0.0908032
DILUPBiCGStab:  Solving for Ux, Initial residual = 0.0353413, Final residual = 1.17488e-15, No Iterations 5
DILUPBiCGStab:  Solving for Uy, Initial residual = 0.046113, Final residual = 1.06333e-15, No Iterations 5
DILUPBiCGStab:  Solving for Uz, Initial residual = 0.0994729, Final residual = 4.1236e-15, No Iterations 5
linear solve U 1967
[OGL LOG] init_host_sparsity_pattern : 0 ms
[OGL LOG] matrix not stored update host matrix
[OGL LOG] update_host_mtx : 0 ms
[OGL LOG] matrix is not yet sorted, sorting host matrix
[OGL LOG] sort_host_mtx_sparsity_pattern : 0 ms
[OGL LOG] sort_host_mtx : 0 ms
[OGL LOG] init_preconditioner : 0 ms
[OGL LOG] solve : 5 ms
noneompGKOBiCGStab:  Solving for p, Initial residual = 0.0288918, Final residual = 9.95388e-05, No Iterations 35
linear solve p 8237
time step continuity errors : sum local = 1.73216e-07, global = 1.65726e-21, cumulative = 9.73198e-21
[OGL LOG] init_host_sparsity_pattern : 0 ms
[OGL LOG] matrix not stored update host matrix
[OGL LOG] update_host_mtx : 0 ms
[OGL LOG] matrix is not yet sorted, sorting host matrix
[OGL LOG] sort_host_mtx_sparsity_pattern : 0 ms
[OGL LOG] sort_host_mtx : 0 ms
[OGL LOG] init_preconditioner : 0 ms
[OGL LOG] solve : 4 ms
noneompGKOBiCGStab:  Solving for p, Initial residual = 0.0111051, Final residual = 8.93652e-05, No Iterations 29
linear solve p 7340
time step continuity errors : sum local = 1.52261e-07, global = -6.8292e-21, cumulative = 2.90278e-21
ExecutionTime = 0.67 s  ClockTime = 0 s

Time = 0.007

Courant Number mean: 0.0172721 max: 0.0958252
DILUPBiCGStab:  Solving for Ux, Initial residual = 0.0271601, Final residual = 8.7099e-16, No Iterations 5
DILUPBiCGStab:  Solving for Uy, Initial residual = 0.0356318, Final residual = 7.4102e-16, No Iterations 5
DILUPBiCGStab:  Solving for Uz, Initial residual = 0.0795325, Final residual = 3.00344e-15, No Iterations 5
linear solve U 1976
[OGL LOG] init_host_sparsity_pattern : 0 ms
[OGL LOG] matrix not stored update host matrix
[OGL LOG] update_host_mtx : 0 ms
[OGL LOG] matrix is not yet sorted, sorting host matrix
[OGL LOG] sort_host_mtx_sparsity_pattern : 0 ms
[OGL LOG] sort_host_mtx : 0 ms
[OGL LOG] init_preconditioner : 0 ms
[OGL LOG] solve : 10 ms
noneompGKOBiCGStab:  Solving for p, Initial residual = 0.0217984, Final residual = 9.11254e-05, No Iterations 69
linear solve p 13240
time step continuity errors : sum local = 5.23023e-07, global = 6.57444e-21, cumulative = 9.47722e-21
[OGL LOG] init_host_sparsity_pattern : 0 ms
[OGL LOG] matrix not stored update host matrix
[OGL LOG] update_host_mtx : 0 ms
[OGL LOG] matrix is not yet sorted, sorting host matrix
[OGL LOG] sort_host_mtx_sparsity_pattern : 0 ms
[OGL LOG] sort_host_mtx : 0 ms
[OGL LOG] init_preconditioner : 0 ms
[OGL LOG] solve : 4 ms
noneompGKOBiCGStab:  Solving for p, Initial residual = 0.00897022, Final residual = 9.138e-05, No Iterations 30
linear solve p 7467
time step continuity errors : sum local = 1.73889e-07, global = -1.42035e-20, cumulative = -4.72631e-21
ExecutionTime = 0.76 s  ClockTime = 0 s

Time = 0.008

Courant Number mean: 0.0183558 max: 0.0995502
DILUPBiCGStab:  Solving for Ux, Initial residual = 0.021654, Final residual = 6.38882e-16, No Iterations 5
DILUPBiCGStab:  Solving for Uy, Initial residual = 0.0286208, Final residual = 5.78907e-16, No Iterations 5
DILUPBiCGStab:  Solving for Uz, Initial residual = 0.0649426, Final residual = 2.4705e-15, No Iterations 5
linear solve U 1977
[OGL LOG] init_host_sparsity_pattern : 0 ms
[OGL LOG] matrix not stored update host matrix
[OGL LOG] update_host_mtx : 0 ms
[OGL LOG] matrix is not yet sorted, sorting host matrix
[OGL LOG] sort_host_mtx_sparsity_pattern : 0 ms
[OGL LOG] sort_host_mtx : 0 ms
[OGL LOG] init_preconditioner : 0 ms
[OGL LOG] solve : 9 ms
noneompGKOBiCGStab:  Solving for p, Initial residual = 0.0163326, Final residual = 9.94547e-05, No Iterations 63
linear solve p 12365
time step continuity errors : sum local = 1.88924e-07, global = 4.78954e-20, cumulative = 4.31691e-20
[OGL LOG] init_host_sparsity_pattern : 0 ms
[OGL LOG] matrix not stored update host matrix
[OGL LOG] update_host_mtx : 0 ms
[OGL LOG] matrix is not yet sorted, sorting host matrix
[OGL LOG] sort_host_mtx_sparsity_pattern : 0 ms
[OGL LOG] sort_host_mtx : 0 ms
[OGL LOG] init_preconditioner : 0 ms
[OGL LOG] solve : 4 ms
noneompGKOBiCGStab:  Solving for p, Initial residual = 0.00664693, Final residual = 9.49515e-05, No Iterations 26
linear solve p 6972
time step continuity errors : sum local = 1.93433e-07, global = -4.32971e-20, cumulative = -1.28008e-22
ExecutionTime = 0.85 s  ClockTime = 0 s

Time = 0.009

Courant Number mean: 0.0192556 max: 0.102395
DILUPBiCGStab:  Solving for Ux, Initial residual = 0.0176726, Final residual = 4.37175e-16, No Iterations 5
DILUPBiCGStab:  Solving for Uy, Initial residual = 0.0236386, Final residual = 4.82382e-16, No Iterations 5
DILUPBiCGStab:  Solving for Uz, Initial residual = 0.0545076, Final residual = 1.98404e-15, No Iterations 5
linear solve U 1974
[OGL LOG] init_host_sparsity_pattern : 0 ms
[OGL LOG] matrix not stored update host matrix
[OGL LOG] update_host_mtx : 0 ms
[OGL LOG] matrix is not yet sorted, sorting host matrix
[OGL LOG] sort_host_mtx_sparsity_pattern : 0 ms
[OGL LOG] sort_host_mtx : 0 ms
[OGL LOG] init_preconditioner : 0 ms
[OGL LOG] solve : 7 ms
noneompGKOBiCGStab:  Solving for p, Initial residual = 0.0132844, Final residual = 9.96292e-05, No Iterations 51
linear solve p 10677
time step continuity errors : sum local = 2.19091e-07, global = 4.7902e-21, cumulative = 4.66219e-21
[OGL LOG] init_host_sparsity_pattern : 0 ms
[OGL LOG] matrix not stored update host matrix
[OGL LOG] update_host_mtx : 0 ms
[OGL LOG] matrix is not yet sorted, sorting host matrix
[OGL LOG] sort_host_mtx_sparsity_pattern : 0 ms
[OGL LOG] sort_host_mtx : 0 ms
[OGL LOG] init_preconditioner : 0 ms
[OGL LOG] solve : 4 ms
noneompGKOBiCGStab:  Solving for p, Initial residual = 0.00542647, Final residual = 9.3438e-05, No Iterations 27
linear solve p 7111
time step continuity errors : sum local = 1.93715e-07, global = 3.63174e-20, cumulative = 4.09796e-20
ExecutionTime = 0.92 s  ClockTime = 0 s

Time = 0.01

Courant Number mean: 0.0200147 max: 0.104627
DILUPBiCGStab:  Solving for Ux, Initial residual = 0.0147275, Final residual = 2.84331e-16, No Iterations 5
DILUPBiCGStab:  Solving for Uy, Initial residual = 0.0199342, Final residual = 4.0142e-16, No Iterations 5
DILUPBiCGStab:  Solving for Uz, Initial residual = 0.0462847, Final residual = 1.57086e-15, No Iterations 5
linear solve U 1964
[OGL LOG] init_host_sparsity_pattern : 0 ms
[OGL LOG] matrix not stored update host matrix
[OGL LOG] update_host_mtx : 0 ms
[OGL LOG] matrix is not yet sorted, sorting host matrix
[OGL LOG] sort_host_mtx_sparsity_pattern : 0 ms
[OGL LOG] sort_host_mtx : 0 ms
[OGL LOG] init_preconditioner : 0 ms
[OGL LOG] solve : 8 ms
noneompGKOBiCGStab:  Solving for p, Initial residual = 0.0111427, Final residual = 9.77009e-05, No Iterations 58
linear solve p 11686
time step continuity errors : sum local = 3.81763e-07, global = 2.36218e-20, cumulative = 6.46014e-20
[OGL LOG] init_host_sparsity_pattern : 0 ms
[OGL LOG] matrix not stored update host matrix
[OGL LOG] update_host_mtx : 0 ms
[OGL LOG] matrix is not yet sorted, sorting host matrix
[OGL LOG] sort_host_mtx_sparsity_pattern : 0 ms
[OGL LOG] sort_host_mtx : 0 ms
[OGL LOG] init_preconditioner : 0 ms
[OGL LOG] solve : 4 ms
noneompGKOBiCGStab:  Solving for p, Initial residual = 0.00467446, Final residual = 9.62576e-05, No Iterations 28
linear solve p 7200
time step continuity errors : sum local = 2.01995e-07, global = -1.19982e-20, cumulative = 5.26031e-20
ExecutionTime = 1.01 s  ClockTime = 1 s

End

