/*---------------------------------------------------------------------------*\
  =========                 |
  \\      /  F ield         | OpenFOAM: The Open Source CFD Toolbox
   \\    /   O peration     | Website:  https://openfoam.org
    \\  /    A nd           | Version:  8
     \\/     M anipulation  |
\*---------------------------------------------------------------------------*/
Build  : 8-14d69e1ee166
Exec   : icoFoam
Date   : Jul 29 2021
Time   : 06:43:27
Host   : "guyot.icl.utk.edu"
PID    : 180292
I/O    : uncollated
Case   : /home/greole/code/OBR/lidDrivenCavity3D/Variation_mesh/80/Variation_matrix_solver/IR_NoPrecond_CUDA/base
nProcs : 1
sigFpe : Enabling floating point exception trapping (FOAM_SIGFPE).
fileModificationChecking : Monitoring run-time modified files using timeStampMaster (fileModificationSkew 10)
allowSystemOperations : Allowing user-supplied system call operations

// * * * * * * * * * * * * * * * * * * * * * * * * * * * * * * * * * * * * * //
Create time

Create mesh for time = 0

Reading transportProperties

Reading field p

Reading field U

Reading/calculating face flux field phi


Starting time loop

Time = 0.001

Courant Number mean: 0 max: 0
DILUPBiCGStab:  Solving for Ux, Initial residual = 1, Final residual = 0.00289442, No Iterations 5
DILUPBiCGStab:  Solving for Uy:  solution singularity
DILUPBiCGStab:  Solving for Uz:  solution singularity
linear solve U 196837
[OGL LOG] init_host_sparsity_pattern : 232 ms
[OGL LOG] matrix not stored update host matrix
[OGL LOG] update_host_mtx : 113 ms
[OGL LOG] matrix is not yet sorted, compute sorting idxs
[OGL LOG] compute_sort : 5254 ms
[OGL LOG] matrix is not yet sorted, sorting host matrix
[OGL LOG] sort_host_mtx_sparsity_pattern : 100 ms
[OGL LOG] sort_host_mtx : 59 ms
[OGL LOG] init_preconditioner : 0 ms
[OGL LOG] solve : 223 ms
nonecudaGKOIR:  Solving for p, Initial residual = 1, Final residual = 1.1603e-05, No Iterations 3
linear solve p 7683312
time step continuity errors : sum local = 6.83946e-09, global = 1.50189e-20, cumulative = 1.50189e-20
[OGL LOG] init_host_sparsity_pattern : 228 ms
[OGL LOG] matrix not stored update host matrix
[OGL LOG] update_host_mtx : 113 ms
[OGL LOG] matrix is not yet sorted, sorting host matrix
[OGL LOG] sort_host_mtx_sparsity_pattern : 92 ms
[OGL LOG] sort_host_mtx : 58 ms
[OGL LOG] init_preconditioner : 0 ms
[OGL LOG] solve : 193 ms
nonecudaGKOIR:  Solving for p, Initial residual = 0.745935, Final residual = 6.86725e-06, No Iterations 3
linear solve p 719566
time step continuity errors : sum local = 5.26315e-09, global = -1.01702e-20, cumulative = 4.8487e-21
ExecutionTime = 10.87 s  ClockTime = 11 s

Time = 0.002

Courant Number mean: 0.0451638 max: 0.613749
DILUPBiCGStab:  Solving for Ux, Initial residual = 0.146312, Final residual = 0.00105951, No Iterations 5
DILUPBiCGStab:  Solving for Uy, Initial residual = 0.385221, Final residual = 0.0024658, No Iterations 5
DILUPBiCGStab:  Solving for Uz, Initial residual = 0.987353, Final residual = 0.00713042, No Iterations 5
linear solve U 428629
[OGL LOG] init_host_sparsity_pattern : 228 ms
[OGL LOG] matrix not stored update host matrix
[OGL LOG] update_host_mtx : 113 ms
[OGL LOG] matrix is not yet sorted, sorting host matrix
[OGL LOG] sort_host_mtx_sparsity_pattern : 93 ms
[OGL LOG] sort_host_mtx : 57 ms
[OGL LOG] init_preconditioner : 0 ms
[OGL LOG] solve : 194 ms
nonecudaGKOIR:  Solving for p, Initial residual = 0.724025, Final residual = 3.68226e-06, No Iterations 3
linear solve p 722498
time step continuity errors : sum local = 3.34133e-09, global = -5.29907e-21, cumulative = -4.50369e-22
[OGL LOG] init_host_sparsity_pattern : 229 ms
[OGL LOG] matrix not stored update host matrix
[OGL LOG] update_host_mtx : 113 ms
[OGL LOG] matrix is not yet sorted, sorting host matrix
[OGL LOG] sort_host_mtx_sparsity_pattern : 93 ms
[OGL LOG] sort_host_mtx : 59 ms
[OGL LOG] init_preconditioner : 0 ms
[OGL LOG] solve : 195 ms
nonecudaGKOIR:  Solving for p, Initial residual = 0.656876, Final residual = 3.13784e-06, No Iterations 3
linear solve p 726295
time step continuity errors : sum local = 2.90714e-09, global = -6.5854e-21, cumulative = -7.03577e-21
ExecutionTime = 13.04 s  ClockTime = 13 s

Time = 0.003

Courant Number mean: 0.067925 max: 0.721702
DILUPBiCGStab:  Solving for Ux, Initial residual = 0.0559028, Final residual = 0.000353234, No Iterations 5
DILUPBiCGStab:  Solving for Uy, Initial residual = 0.144773, Final residual = 0.000951872, No Iterations 5
DILUPBiCGStab:  Solving for Uz, Initial residual = 0.68648, Final residual = 0.00456453, No Iterations 5
linear solve U 417880
[OGL LOG] init_host_sparsity_pattern : 228 ms
[OGL LOG] matrix not stored update host matrix
[OGL LOG] update_host_mtx : 113 ms
[OGL LOG] matrix is not yet sorted, sorting host matrix
[OGL LOG] sort_host_mtx_sparsity_pattern : 91 ms
[OGL LOG] sort_host_mtx : 55 ms
[OGL LOG] init_preconditioner : 0 ms
[OGL LOG] solve : 207 ms
nonecudaGKOIR:  Solving for p, Initial residual = 0.705334, Final residual = 2.77162e-06, No Iterations 3
linear solve p 730878
time step continuity errors : sum local = 1.94711e-09, global = -1.17284e-20, cumulative = -1.87641e-20
[OGL LOG] init_host_sparsity_pattern : 229 ms
[OGL LOG] matrix not stored update host matrix
[OGL LOG] update_host_mtx : 113 ms
[OGL LOG] matrix is not yet sorted, sorting host matrix
[OGL LOG] sort_host_mtx_sparsity_pattern : 97 ms
[OGL LOG] sort_host_mtx : 57 ms
[OGL LOG] init_preconditioner : 0 ms
[OGL LOG] solve : 206 ms
nonecudaGKOIR:  Solving for p, Initial residual = 0.663579, Final residual = 2.26713e-06, No Iterations 3
linear solve p 739182
time step continuity errors : sum local = 1.5464e-09, global = -1.54122e-20, cumulative = -3.41763e-20
ExecutionTime = 15.21 s  ClockTime = 16 s

Time = 0.004

Courant Number mean: 0.0793945 max: 0.728862
DILUPBiCGStab:  Solving for Ux, Initial residual = 0.0296099, Final residual = 0.000182368, No Iterations 5
DILUPBiCGStab:  Solving for Uy, Initial residual = 0.100073, Final residual = 0.000584133, No Iterations 5
DILUPBiCGStab:  Solving for Uz, Initial residual = 0.389261, Final residual = 0.00213261, No Iterations 5
linear solve U 417931
[OGL LOG] init_host_sparsity_pattern : 228 ms
[OGL LOG] matrix not stored update host matrix
[OGL LOG] update_host_mtx : 113 ms
[OGL LOG] matrix is not yet sorted, sorting host matrix
[OGL LOG] sort_host_mtx_sparsity_pattern : 92 ms
[OGL LOG] sort_host_mtx : 55 ms
[OGL LOG] init_preconditioner : 0 ms
[OGL LOG] solve : 197 ms
nonecudaGKOIR:  Solving for p, Initial residual = 0.526947, Final residual = 1.79998e-06, No Iterations 3
linear solve p 720215
time step continuity errors : sum local = 1.07267e-09, global = -2.05549e-20, cumulative = -5.47313e-20
[OGL LOG] init_host_sparsity_pattern : 229 ms
[OGL LOG] matrix not stored update host matrix
[OGL LOG] update_host_mtx : 113 ms
[OGL LOG] matrix is not yet sorted, sorting host matrix
[OGL LOG] sort_host_mtx_sparsity_pattern : 92 ms
[OGL LOG] sort_host_mtx : 58 ms
[OGL LOG] init_preconditioner : 0 ms
[OGL LOG] solve : 197 ms
nonecudaGKOIR:  Solving for p, Initial residual = 0.463163, Final residual = 1.54251e-06, No Iterations 3
linear solve p 725471
time step continuity errors : sum local = 9.30622e-10, global = 1.45974e-20, cumulative = -4.01338e-20
ExecutionTime = 17.36 s  ClockTime = 18 s

Time = 0.005

Courant Number mean: 0.088934 max: 0.739428
DILUPBiCGStab:  Solving for Ux, Initial residual = 0.0218889, Final residual = 0.000116408, No Iterations 5
DILUPBiCGStab:  Solving for Uy, Initial residual = 0.0522766, Final residual = 0.000204303, No Iterations 5
DILUPBiCGStab:  Solving for Uz, Initial residual = 0.181067, Final residual = 0.00111442, No Iterations 5
linear solve U 416672
[OGL LOG] init_host_sparsity_pattern : 228 ms
[OGL LOG] matrix not stored update host matrix
[OGL LOG] update_host_mtx : 113 ms
[OGL LOG] matrix is not yet sorted, sorting host matrix
[OGL LOG] sort_host_mtx_sparsity_pattern : 98 ms
[OGL LOG] sort_host_mtx : 58 ms
[OGL LOG] init_preconditioner : 0 ms
[OGL LOG] solve : 186 ms
nonecudaGKOIR:  Solving for p, Initial residual = 0.461915, Final residual = 1.44572e-06, No Iterations 3
linear solve p 720064
time step continuity errors : sum local = 6.79746e-10, global = -6.52332e-21, cumulative = -4.66571e-20
[OGL LOG] init_host_sparsity_pattern : 230 ms
[OGL LOG] matrix not stored update host matrix
[OGL LOG] update_host_mtx : 113 ms
[OGL LOG] matrix is not yet sorted, sorting host matrix
[OGL LOG] sort_host_mtx_sparsity_pattern : 98 ms
[OGL LOG] sort_host_mtx : 57 ms
[OGL LOG] init_preconditioner : 0 ms
[OGL LOG] solve : 186 ms
nonecudaGKOIR:  Solving for p, Initial residual = 0.40935, Final residual = 1.17865e-06, No Iterations 3
linear solve p 720078
time step continuity errors : sum local = 5.48519e-10, global = -1.45688e-20, cumulative = -6.1226e-20
ExecutionTime = 19.51 s  ClockTime = 20 s

Time = 0.006

Courant Number mean: 0.0960652 max: 0.74515
DILUPBiCGStab:  Solving for Ux, Initial residual = 0.0146587, Final residual = 6.87938e-05, No Iterations 5
DILUPBiCGStab:  Solving for Uy, Initial residual = 0.041725, Final residual = 0.000169461, No Iterations 5
DILUPBiCGStab:  Solving for Uz, Initial residual = 0.138553, Final residual = 0.000805902, No Iterations 5
linear solve U 419480
[OGL LOG] init_host_sparsity_pattern : 228 ms
[OGL LOG] matrix not stored update host matrix
[OGL LOG] update_host_mtx : 113 ms
[OGL LOG] matrix is not yet sorted, sorting host matrix
[OGL LOG] sort_host_mtx_sparsity_pattern : 92 ms
[OGL LOG] sort_host_mtx : 55 ms
[OGL LOG] init_preconditioner : 0 ms
[OGL LOG] solve : 96 ms
nonecudaGKOIR:  Solving for p, Initial residual = 0.316714, Final residual = 7.93288e-05, No Iterations 2
linear solve p 620693
time step continuity errors : sum local = 4.16885e-08, global = -3.05872e-22, cumulative = -6.15318e-20
[OGL LOG] init_host_sparsity_pattern : 230 ms
[OGL LOG] matrix not stored update host matrix
[OGL LOG] update_host_mtx : 114 ms
[OGL LOG] matrix is not yet sorted, sorting host matrix
[OGL LOG] sort_host_mtx_sparsity_pattern : 95 ms
[OGL LOG] sort_host_mtx : 57 ms
[OGL LOG] init_preconditioner : 0 ms
[OGL LOG] solve : 94 ms
nonecudaGKOIR:  Solving for p, Initial residual = 0.272142, Final residual = 6.95917e-05, No Iterations 2
linear solve p 624947
time step continuity errors : sum local = 3.30458e-08, global = 1.26934e-20, cumulative = -4.88385e-20
ExecutionTime = 21.46 s  ClockTime = 22 s

Time = 0.007

Courant Number mean: 0.102039 max: 0.748857
DILUPBiCGStab:  Solving for Ux, Initial residual = 0.0119933, Final residual = 4.82655e-05, No Iterations 5
DILUPBiCGStab:  Solving for Uy, Initial residual = 0.0289881, Final residual = 7.92117e-05, No Iterations 5
DILUPBiCGStab:  Solving for Uz, Initial residual = 0.0735921, Final residual = 0.000390362, No Iterations 5
linear solve U 417518
[OGL LOG] init_host_sparsity_pattern : 228 ms
[OGL LOG] matrix not stored update host matrix
[OGL LOG] update_host_mtx : 113 ms
[OGL LOG] matrix is not yet sorted, sorting host matrix
[OGL LOG] sort_host_mtx_sparsity_pattern : 91 ms
[OGL LOG] sort_host_mtx : 55 ms
[OGL LOG] init_preconditioner : 0 ms
[OGL LOG] solve : 92 ms
nonecudaGKOIR:  Solving for p, Initial residual = 0.254379, Final residual = 7.01361e-05, No Iterations 2
linear solve p 617174
time step continuity errors : sum local = 3.01028e-08, global = 4.12652e-21, cumulative = -4.4712e-20
[OGL LOG] init_host_sparsity_pattern : 230 ms
[OGL LOG] matrix not stored update host matrix
[OGL LOG] update_host_mtx : 113 ms
[OGL LOG] matrix is not yet sorted, sorting host matrix
[OGL LOG] sort_host_mtx_sparsity_pattern : 91 ms
[OGL LOG] sort_host_mtx : 58 ms
[OGL LOG] init_preconditioner : 0 ms
[OGL LOG] solve : 92 ms
nonecudaGKOIR:  Solving for p, Initial residual = 0.217909, Final residual = 5.78143e-05, No Iterations 2
linear solve p 620606
time step continuity errors : sum local = 2.35038e-08, global = 5.32733e-21, cumulative = -3.93846e-20
ExecutionTime = 23.4 s  ClockTime = 24 s

Time = 0.008

Courant Number mean: 0.10702 max: 0.752036
DILUPBiCGStab:  Solving for Ux, Initial residual = 0.00935786, Final residual = 3.4128e-05, No Iterations 5
DILUPBiCGStab:  Solving for Uy, Initial residual = 0.0242823, Final residual = 6.41338e-05, No Iterations 5
DILUPBiCGStab:  Solving for Uz, Initial residual = 0.0628798, Final residual = 0.000332604, No Iterations 5
linear solve U 419222
[OGL LOG] init_host_sparsity_pattern : 228 ms
[OGL LOG] matrix not stored update host matrix
[OGL LOG] update_host_mtx : 113 ms
[OGL LOG] matrix is not yet sorted, sorting host matrix
[OGL LOG] sort_host_mtx_sparsity_pattern : 98 ms
[OGL LOG] sort_host_mtx : 55 ms
[OGL LOG] init_preconditioner : 0 ms
[OGL LOG] solve : 170 ms
nonecudaGKOIR:  Solving for p, Initial residual = 0.177682, Final residual = 4.45286e-05, No Iterations 2
linear solve p 701038
time step continuity errors : sum local = 1.73117e-08, global = -2.74534e-22, cumulative = -3.96592e-20
[OGL LOG] init_host_sparsity_pattern : 230 ms
[OGL LOG] matrix not stored update host matrix
[OGL LOG] update_host_mtx : 113 ms
[OGL LOG] matrix is not yet sorted, sorting host matrix
[OGL LOG] sort_host_mtx_sparsity_pattern : 99 ms
[OGL LOG] sort_host_mtx : 58 ms
[OGL LOG] init_preconditioner : 0 ms
[OGL LOG] solve : 153 ms
nonecudaGKOIR:  Solving for p, Initial residual = 0.1497, Final residual = 3.49933e-05, No Iterations 2
linear solve p 688959
time step continuity errors : sum local = 1.35893e-08, global = 3.02718e-20, cumulative = -9.38741e-21
ExecutionTime = 25.49 s  ClockTime = 26 s

Time = 0.009

Courant Number mean: 0.111296 max: 0.754179
DILUPBiCGStab:  Solving for Ux, Initial residual = 0.00787405, Final residual = 2.31227e-05, No Iterations 5
DILUPBiCGStab:  Solving for Uy, Initial residual = 0.019394, Final residual = 4.04539e-05, No Iterations 5
DILUPBiCGStab:  Solving for Uz, Initial residual = 0.0416539, Final residual = 0.000135652, No Iterations 5
linear solve U 417627
[OGL LOG] init_host_sparsity_pattern : 228 ms
[OGL LOG] matrix not stored update host matrix
[OGL LOG] update_host_mtx : 113 ms
[OGL LOG] matrix is not yet sorted, sorting host matrix
[OGL LOG] sort_host_mtx_sparsity_pattern : 92 ms
[OGL LOG] sort_host_mtx : 56 ms
[OGL LOG] init_preconditioner : 0 ms
[OGL LOG] solve : 95 ms
nonecudaGKOIR:  Solving for p, Initial residual = 0.137224, Final residual = 2.93387e-05, No Iterations 2
linear solve p 620444
time step continuity errors : sum local = 1.12564e-08, global = -4.68084e-21, cumulative = -1.40682e-20
[OGL LOG] init_host_sparsity_pattern : 229 ms
[OGL LOG] matrix not stored update host matrix
[OGL LOG] update_host_mtx : 113 ms
[OGL LOG] matrix is not yet sorted, sorting host matrix
[OGL LOG] sort_host_mtx_sparsity_pattern : 91 ms
[OGL LOG] sort_host_mtx : 57 ms
[OGL LOG] init_preconditioner : 0 ms
[OGL LOG] solve : 94 ms
nonecudaGKOIR:  Solving for p, Initial residual = 0.115787, Final residual = 2.4055e-05, No Iterations 2
linear solve p 620570
time step continuity errors : sum local = 9.31478e-09, global = -7.14157e-21, cumulative = -2.12098e-20
ExecutionTime = 27.44 s  ClockTime = 28 s

Time = 0.01

Courant Number mean: 0.115011 max: 0.756137
DILUPBiCGStab:  Solving for Ux, Initial residual = 0.00662555, Final residual = 1.77851e-05, No Iterations 5
DILUPBiCGStab:  Solving for Uy, Initial residual = 0.0166902, Final residual = 3.21914e-05, No Iterations 5
DILUPBiCGStab:  Solving for Uz, Initial residual = 0.0372463, Final residual = 0.000141044, No Iterations 5
linear solve U 418850
[OGL LOG] init_host_sparsity_pattern : 228 ms
[OGL LOG] matrix not stored update host matrix
[OGL LOG] update_host_mtx : 113 ms
[OGL LOG] matrix is not yet sorted, sorting host matrix
[OGL LOG] sort_host_mtx_sparsity_pattern : 91 ms
[OGL LOG] sort_host_mtx : 57 ms
[OGL LOG] init_preconditioner : 0 ms
[OGL LOG] solve : 167 ms
nonecudaGKOIR:  Solving for p, Initial residual = 0.0982777, Final residual = 2.28877e-05, No Iterations 2
linear solve p 694526
time step continuity errors : sum local = 8.40346e-09, global = 4.19948e-21, cumulative = -1.70103e-20
[OGL LOG] init_host_sparsity_pattern : 230 ms
[OGL LOG] matrix not stored update host matrix
[OGL LOG] update_host_mtx : 113 ms
[OGL LOG] matrix is not yet sorted, sorting host matrix
[OGL LOG] sort_host_mtx_sparsity_pattern : 98 ms
[OGL LOG] sort_host_mtx : 55 ms
[OGL LOG] init_preconditioner : 0 ms
[OGL LOG] solve : 149 ms
nonecudaGKOIR:  Solving for p, Initial residual = 0.0820972, Final residual = 1.72374e-05, No Iterations 2
linear solve p 680897
time step continuity errors : sum local = 6.32427e-09, global = 1.45277e-20, cumulative = -2.48268e-21
ExecutionTime = 29.53 s  ClockTime = 30 s

End

