/*---------------------------------------------------------------------------*\
  =========                 |
  \\      /  F ield         | OpenFOAM: The Open Source CFD Toolbox
   \\    /   O peration     | Website:  https://openfoam.org
    \\  /    A nd           | Version:  8
     \\/     M anipulation  |
\*---------------------------------------------------------------------------*/
Build  : 8-40a5a48f630f
Exec   : icoFoam
Date   : Jul 28 2021
Time   : 12:07:01
Host   : "uc2n412.localdomain"
PID    : 4071180
I/O    : uncollated
Case   : /pfs/data5/home/kit/scc/nq7776/code/OBR/lidDrivenCavity3D/Variation_mesh/40/Variation_matrix_solver/BiCGStab_NoPrecond_OMP/base
nProcs : 1
sigFpe : Enabling floating point exception trapping (FOAM_SIGFPE).
fileModificationChecking : Monitoring run-time modified files using timeStampMaster (fileModificationSkew 10)
allowSystemOperations : Allowing user-supplied system call operations

// * * * * * * * * * * * * * * * * * * * * * * * * * * * * * * * * * * * * * //
Create time

Create mesh for time = 0

Reading transportProperties

Reading field p

Reading field U

Reading/calculating face flux field phi


Starting time loop

Time = 0.001

Courant Number mean: 0 max: 0
nonePBiCGStab:  Solving for Ux, Initial residual = 1, Final residual = 0.0197517, No Iterations 5
nonePBiCGStab:  Solving for Uy, Initial residual = 0, Final residual = 0, No Iterations 0
nonePBiCGStab:  Solving for Uz, Initial residual = 0, Final residual = 0, No Iterations 0
linear solve U 14
[OGL LOG] init_host_sparsity_pattern : 18 ms
[OGL LOG] matrix not stored update host matrix
[OGL LOG] update_host_mtx : 9 ms
[OGL LOG] matrix is not yet sorted, compute sorting idxs
[OGL LOG] compute_sort : 482 ms
[OGL LOG] matrix is not yet sorted, sorting host matrix
[OGL LOG] sort_host_mtx_sparsity_pattern : 12 ms
[OGL LOG] sort_host_mtx : 7 ms
[OGL LOG] init_preconditioner : 0 ms
[OGL LOG] solve : 287 ms
noneompGKOBiCGStab:  Solving for p, Initial residual = 1, Final residual = 8.58855e-05, No Iterations 253
linear solve p 831
time step continuity errors : sum local = 1.72737e-07, global = -1.8047e-20, cumulative = -1.8047e-20
[OGL LOG] init_host_sparsity_pattern : 18 ms
[OGL LOG] matrix not stored update host matrix
[OGL LOG] update_host_mtx : 9 ms
[OGL LOG] matrix is not yet sorted, sorting host matrix
[OGL LOG] sort_host_mtx_sparsity_pattern : 12 ms
[OGL LOG] sort_host_mtx : 6 ms
[OGL LOG] init_preconditioner : 0 ms
[OGL LOG] solve : 258 ms
noneompGKOBiCGStab:  Solving for p, Initial residual = 0.598505, Final residual = 9.81978e-05, No Iterations 231
linear solve p 313
time step continuity errors : sum local = 2.12805e-05, global = -5.45732e-21, cumulative = -2.35043e-20
ExecutionTime = 5.34 s  ClockTime = 2 s

Time = 0.002

Courant Number mean: 0.0210413 max: 0.237017
nonePBiCGStab:  Solving for Ux, Initial residual = 0.178159, Final residual = 0.00687377, No Iterations 5
nonePBiCGStab:  Solving for Uy, Initial residual = 0.293975, Final residual = 0.00871867, No Iterations 5
nonePBiCGStab:  Solving for Uz, Initial residual = 0.799916, Final residual = 0.0422095, No Iterations 5
linear solve U 27
[OGL LOG] init_host_sparsity_pattern : 16 ms
[OGL LOG] matrix not stored update host matrix
[OGL LOG] update_host_mtx : 9 ms
[OGL LOG] matrix is not yet sorted, sorting host matrix
[OGL LOG] sort_host_mtx_sparsity_pattern : 12 ms
[OGL LOG] sort_host_mtx : 6 ms
[OGL LOG] init_preconditioner : 0 ms
[OGL LOG] solve : 259 ms
noneompGKOBiCGStab:  Solving for p, Initial residual = 0.470372, Final residual = 7.42342e-05, No Iterations 233
linear solve p 311
time step continuity errors : sum local = 8.4015e-07, global = 2.13195e-20, cumulative = -2.18484e-21
[OGL LOG] init_host_sparsity_pattern : 16 ms
[OGL LOG] matrix not stored update host matrix
[OGL LOG] update_host_mtx : 8 ms
[OGL LOG] matrix is not yet sorted, sorting host matrix
[OGL LOG] sort_host_mtx_sparsity_pattern : 12 ms
[OGL LOG] sort_host_mtx : 6 ms
[OGL LOG] init_preconditioner : 0 ms
[OGL LOG] solve : 262 ms
noneompGKOBiCGStab:  Solving for p, Initial residual = 0.363888, Final residual = 8.69991e-05, No Iterations 231
linear solve p 316
time step continuity errors : sum local = 5.62533e-07, global = -1.12522e-21, cumulative = -3.31007e-21
ExecutionTime = 9.76 s  ClockTime = 2 s

Time = 0.003

Courant Number mean: 0.0320961 max: 0.305893
nonePBiCGStab:  Solving for Ux, Initial residual = 0.0656878, Final residual = 0.0016362, No Iterations 5
nonePBiCGStab:  Solving for Uy, Initial residual = 0.10869, Final residual = 0.00200614, No Iterations 5
nonePBiCGStab:  Solving for Uz, Initial residual = 0.226764, Final residual = 0.0144429, No Iterations 5
linear solve U 27
[OGL LOG] init_host_sparsity_pattern : 17 ms
[OGL LOG] matrix not stored update host matrix
[OGL LOG] update_host_mtx : 9 ms
[OGL LOG] matrix is not yet sorted, sorting host matrix
[OGL LOG] sort_host_mtx_sparsity_pattern : 14 ms
[OGL LOG] sort_host_mtx : 6 ms
[OGL LOG] init_preconditioner : 0 ms
[OGL LOG] solve : 245 ms
noneompGKOBiCGStab:  Solving for p, Initial residual = 0.169817, Final residual = 9.87147e-05, No Iterations 220
linear solve p 302
time step continuity errors : sum local = 1.95243e-07, global = 6.31097e-21, cumulative = 3.00091e-21
[OGL LOG] init_host_sparsity_pattern : 17 ms
[OGL LOG] matrix not stored update host matrix
[OGL LOG] update_host_mtx : 8 ms
[OGL LOG] matrix is not yet sorted, sorting host matrix
[OGL LOG] sort_host_mtx_sparsity_pattern : 13 ms
[OGL LOG] sort_host_mtx : 6 ms
[OGL LOG] init_preconditioner : 0 ms
[OGL LOG] solve : 239 ms
noneompGKOBiCGStab:  Solving for p, Initial residual = 0.132003, Final residual = 9.98729e-05, No Iterations 217
linear solve p 292
time step continuity errors : sum local = 2.9882e-07, global = 1.09132e-20, cumulative = 1.39141e-20
ExecutionTime = 13.89 s  ClockTime = 3 s

Time = 0.004

Courant Number mean: 0.0386603 max: 0.327534
nonePBiCGStab:  Solving for Ux, Initial residual = 0.0390099, Final residual = 0.000745797, No Iterations 5
nonePBiCGStab:  Solving for Uy, Initial residual = 0.0671015, Final residual = 0.000705113, No Iterations 5
nonePBiCGStab:  Solving for Uz, Initial residual = 0.140358, Final residual = 0.00527211, No Iterations 5
linear solve U 27
[OGL LOG] init_host_sparsity_pattern : 17 ms
[OGL LOG] matrix not stored update host matrix
[OGL LOG] update_host_mtx : 9 ms
[OGL LOG] matrix is not yet sorted, sorting host matrix
[OGL LOG] sort_host_mtx_sparsity_pattern : 12 ms
[OGL LOG] sort_host_mtx : 6 ms
[OGL LOG] init_preconditioner : 0 ms
[OGL LOG] solve : 248 ms
noneompGKOBiCGStab:  Solving for p, Initial residual = 0.088557, Final residual = 9.44462e-05, No Iterations 223
linear solve p 302
time step continuity errors : sum local = 7.4215e-08, global = -1.28311e-20, cumulative = 1.08295e-21
[OGL LOG] init_host_sparsity_pattern : 17 ms
[OGL LOG] matrix not stored update host matrix
[OGL LOG] update_host_mtx : 9 ms
[OGL LOG] matrix is not yet sorted, sorting host matrix
[OGL LOG] sort_host_mtx_sparsity_pattern : 13 ms
[OGL LOG] sort_host_mtx : 6 ms
[OGL LOG] init_preconditioner : 0 ms
[OGL LOG] solve : 232 ms
noneompGKOBiCGStab:  Solving for p, Initial residual = 0.0680302, Final residual = 4.06813e-05, No Iterations 208
linear solve p 286
time step continuity errors : sum local = 2.22752e-06, global = 1.18328e-20, cumulative = 1.29158e-20
ExecutionTime = 17.97 s  ClockTime = 4 s

Time = 0.005

Courant Number mean: 0.0434647 max: 0.33785
nonePBiCGStab:  Solving for Ux, Initial residual = 0.0269661, Final residual = 0.000465441, No Iterations 5
nonePBiCGStab:  Solving for Uy, Initial residual = 0.0469612, Final residual = 0.000668646, No Iterations 5
nonePBiCGStab:  Solving for Uz, Initial residual = 0.0971201, Final residual = 0.00348025, No Iterations 5
linear solve U 27
[OGL LOG] init_host_sparsity_pattern : 18 ms
[OGL LOG] matrix not stored update host matrix
[OGL LOG] update_host_mtx : 9 ms
[OGL LOG] matrix is not yet sorted, sorting host matrix
[OGL LOG] sort_host_mtx_sparsity_pattern : 13 ms
[OGL LOG] sort_host_mtx : 6 ms
[OGL LOG] init_preconditioner : 0 ms
[OGL LOG] solve : 225 ms
noneompGKOBiCGStab:  Solving for p, Initial residual = 0.0489349, Final residual = 9.45316e-05, No Iterations 201
linear solve p 280
time step continuity errors : sum local = 3.3045e-07, global = -3.75619e-21, cumulative = 9.15958e-21
[OGL LOG] init_host_sparsity_pattern : 17 ms
[OGL LOG] matrix not stored update host matrix
[OGL LOG] update_host_mtx : 9 ms
[OGL LOG] matrix is not yet sorted, sorting host matrix
[OGL LOG] sort_host_mtx_sparsity_pattern : 12 ms
[OGL LOG] sort_host_mtx : 6 ms
[OGL LOG] init_preconditioner : 0 ms
[OGL LOG] solve : 95 ms
noneompGKOBiCGStab:  Solving for p, Initial residual = 0.0371917, Final residual = 8.37184e-05, No Iterations 85
linear solve p 148
time step continuity errors : sum local = 1.09966e-07, global = 2.42948e-21, cumulative = 1.15891e-20
ExecutionTime = 20.78 s  ClockTime = 4 s

Time = 0.006

Courant Number mean: 0.0471814 max: 0.344006
nonePBiCGStab:  Solving for Ux, Initial residual = 0.0205457, Final residual = 0.00030999, No Iterations 5
nonePBiCGStab:  Solving for Uy, Initial residual = 0.0357017, Final residual = 0.00036027, No Iterations 5
nonePBiCGStab:  Solving for Uz, Initial residual = 0.0743554, Final residual = 0.00244158, No Iterations 5
linear solve U 28
[OGL LOG] init_host_sparsity_pattern : 18 ms
[OGL LOG] matrix not stored update host matrix
[OGL LOG] update_host_mtx : 10 ms
[OGL LOG] matrix is not yet sorted, sorting host matrix
[OGL LOG] sort_host_mtx_sparsity_pattern : 14 ms
[OGL LOG] sort_host_mtx : 6 ms
[OGL LOG] init_preconditioner : 0 ms
[OGL LOG] solve : 243 ms
noneompGKOBiCGStab:  Solving for p, Initial residual = 0.0314703, Final residual = 9.71691e-05, No Iterations 218
linear solve p 302
time step continuity errors : sum local = 1.38952e-07, global = 9.04155e-21, cumulative = 2.06306e-20
[OGL LOG] init_host_sparsity_pattern : 17 ms
[OGL LOG] matrix not stored update host matrix
[OGL LOG] update_host_mtx : 9 ms
[OGL LOG] matrix is not yet sorted, sorting host matrix
[OGL LOG] sort_host_mtx_sparsity_pattern : 13 ms
[OGL LOG] sort_host_mtx : 6 ms
[OGL LOG] init_preconditioner : 0 ms
[OGL LOG] solve : 99 ms
noneompGKOBiCGStab:  Solving for p, Initial residual = 0.0254362, Final residual = 9.55009e-05, No Iterations 90
linear solve p 153
time step continuity errors : sum local = 1.22874e-07, global = 5.47163e-21, cumulative = 2.61022e-20
ExecutionTime = 23.79 s  ClockTime = 5 s

Time = 0.007

Courant Number mean: 0.0502129 max: 0.348236
nonePBiCGStab:  Solving for Ux, Initial residual = 0.0162424, Final residual = 0.000159743, No Iterations 5
nonePBiCGStab:  Solving for Uy, Initial residual = 0.0287477, Final residual = 0.000198485, No Iterations 5
nonePBiCGStab:  Solving for Uz, Initial residual = 0.0613133, Final residual = 0.00160965, No Iterations 5
linear solve U 27
[OGL LOG] init_host_sparsity_pattern : 18 ms
[OGL LOG] matrix not stored update host matrix
[OGL LOG] update_host_mtx : 9 ms
[OGL LOG] matrix is not yet sorted, sorting host matrix
[OGL LOG] sort_host_mtx_sparsity_pattern : 13 ms
[OGL LOG] sort_host_mtx : 6 ms
[OGL LOG] init_preconditioner : 0 ms
[OGL LOG] solve : 221 ms
noneompGKOBiCGStab:  Solving for p, Initial residual = 0.0241056, Final residual = 6.7334e-05, No Iterations 201
linear solve p 276
time step continuity errors : sum local = 4.52478e-08, global = 2.50068e-20, cumulative = 5.1109e-20
[OGL LOG] init_host_sparsity_pattern : 17 ms
[OGL LOG] matrix not stored update host matrix
[OGL LOG] update_host_mtx : 9 ms
[OGL LOG] matrix is not yet sorted, sorting host matrix
[OGL LOG] sort_host_mtx_sparsity_pattern : 12 ms
[OGL LOG] sort_host_mtx : 6 ms
[OGL LOG] init_preconditioner : 0 ms
[OGL LOG] solve : 218 ms
noneompGKOBiCGStab:  Solving for p, Initial residual = 0.0200439, Final residual = 9.95345e-05, No Iterations 197
linear solve p 271
time step continuity errors : sum local = 1.18521e-07, global = -2.83041e-21, cumulative = 4.82786e-20
ExecutionTime = 27.55 s  ClockTime = 5 s

Time = 0.008

Courant Number mean: 0.0527834 max: 0.351354
nonePBiCGStab:  Solving for Ux, Initial residual = 0.0134085, Final residual = 0.000103875, No Iterations 5
nonePBiCGStab:  Solving for Uy, Initial residual = 0.0235363, Final residual = 0.000166778, No Iterations 5
nonePBiCGStab:  Solving for Uz, Initial residual = 0.0479613, Final residual = 0.00104338, No Iterations 5
linear solve U 28
[OGL LOG] init_host_sparsity_pattern : 17 ms
[OGL LOG] matrix not stored update host matrix
[OGL LOG] update_host_mtx : 9 ms
[OGL LOG] matrix is not yet sorted, sorting host matrix
[OGL LOG] sort_host_mtx_sparsity_pattern : 12 ms
[OGL LOG] sort_host_mtx : 6 ms
[OGL LOG] init_preconditioner : 0 ms
[OGL LOG] solve : 182 ms
noneompGKOBiCGStab:  Solving for p, Initial residual = 0.0187095, Final residual = 9.98896e-05, No Iterations 164
linear solve p 236
time step continuity errors : sum local = 1.25518e-07, global = 1.14378e-20, cumulative = 5.97164e-20
[OGL LOG] init_host_sparsity_pattern : 17 ms
[OGL LOG] matrix not stored update host matrix
[OGL LOG] update_host_mtx : 9 ms
[OGL LOG] matrix is not yet sorted, sorting host matrix
[OGL LOG] sort_host_mtx_sparsity_pattern : 12 ms
[OGL LOG] sort_host_mtx : 6 ms
[OGL LOG] init_preconditioner : 0 ms
[OGL LOG] solve : 90 ms
noneompGKOBiCGStab:  Solving for p, Initial residual = 0.0155809, Final residual = 9.1746e-05, No Iterations 80
linear solve p 144
time step continuity errors : sum local = 1.03065e-07, global = -2.5872e-21, cumulative = 5.71292e-20
ExecutionTime = 29.97 s  ClockTime = 6 s

Time = 0.009

Courant Number mean: 0.0549714 max: 0.35377
nonePBiCGStab:  Solving for Ux, Initial residual = 0.0111912, Final residual = 6.71855e-05, No Iterations 5
nonePBiCGStab:  Solving for Uy, Initial residual = 0.0200003, Final residual = 9.26621e-05, No Iterations 5
nonePBiCGStab:  Solving for Uz, Initial residual = 0.0392487, Final residual = 0.00053212, No Iterations 5
linear solve U 27
[OGL LOG] init_host_sparsity_pattern : 17 ms
[OGL LOG] matrix not stored update host matrix
[OGL LOG] update_host_mtx : 9 ms
[OGL LOG] matrix is not yet sorted, sorting host matrix
[OGL LOG] sort_host_mtx_sparsity_pattern : 12 ms
[OGL LOG] sort_host_mtx : 6 ms
[OGL LOG] init_preconditioner : 0 ms
[OGL LOG] solve : 88 ms
noneompGKOBiCGStab:  Solving for p, Initial residual = 0.0156863, Final residual = 8.98072e-05, No Iterations 78
linear solve p 142
time step continuity errors : sum local = 8.1648e-08, global = -1.22469e-20, cumulative = 4.48824e-20
[OGL LOG] init_host_sparsity_pattern : 18 ms
[OGL LOG] matrix not stored update host matrix
[OGL LOG] update_host_mtx : 9 ms
[OGL LOG] matrix is not yet sorted, sorting host matrix
[OGL LOG] sort_host_mtx_sparsity_pattern : 12 ms
[OGL LOG] sort_host_mtx : 6 ms
[OGL LOG] init_preconditioner : 0 ms
[OGL LOG] solve : 86 ms
noneompGKOBiCGStab:  Solving for p, Initial residual = 0.0132007, Final residual = 9.61396e-05, No Iterations 76
linear solve p 140
time step continuity errors : sum local = 9.18094e-08, global = -8.37293e-21, cumulative = 3.65094e-20
ExecutionTime = 31.61 s  ClockTime = 6 s

Time = 0.01

Courant Number mean: 0.0568546 max: 0.355697
nonePBiCGStab:  Solving for Ux, Initial residual = 0.00953928, Final residual = 5.11383e-05, No Iterations 5
nonePBiCGStab:  Solving for Uy, Initial residual = 0.0171299, Final residual = 6.25129e-05, No Iterations 5
nonePBiCGStab:  Solving for Uz, Initial residual = 0.0333193, Final residual = 0.000317894, No Iterations 5
linear solve U 28
[OGL LOG] init_host_sparsity_pattern : 17 ms
[OGL LOG] matrix not stored update host matrix
[OGL LOG] update_host_mtx : 9 ms
[OGL LOG] matrix is not yet sorted, sorting host matrix
[OGL LOG] sort_host_mtx_sparsity_pattern : 12 ms
[OGL LOG] sort_host_mtx : 6 ms
[OGL LOG] init_preconditioner : 0 ms
[OGL LOG] solve : 90 ms
noneompGKOBiCGStab:  Solving for p, Initial residual = 0.0132091, Final residual = 9.52724e-05, No Iterations 82
linear solve p 144
time step continuity errors : sum local = 1.12225e-07, global = 8.97602e-21, cumulative = 4.54855e-20
[OGL LOG] init_host_sparsity_pattern : 17 ms
[OGL LOG] matrix not stored update host matrix
[OGL LOG] update_host_mtx : 9 ms
[OGL LOG] matrix is not yet sorted, sorting host matrix
[OGL LOG] sort_host_mtx_sparsity_pattern : 12 ms
[OGL LOG] sort_host_mtx : 6 ms
[OGL LOG] init_preconditioner : 0 ms
[OGL LOG] solve : 81 ms
noneompGKOBiCGStab:  Solving for p, Initial residual = 0.0112311, Final residual = 9.49702e-05, No Iterations 74
linear solve p 134
time step continuity errors : sum local = 9.225e-08, global = -1.40191e-20, cumulative = 3.14664e-20
ExecutionTime = 33.23 s  ClockTime = 6 s

End

