/*---------------------------------------------------------------------------*\
  =========                 |
  \\      /  F ield         | OpenFOAM: The Open Source CFD Toolbox
   \\    /   O peration     | Website:  https://openfoam.org
    \\  /    A nd           | Version:  8
     \\/     M anipulation  |
\*---------------------------------------------------------------------------*/
Build  : 8-ef60d22ea792
Exec   : icoFoam
Date   : Jul 29 2021
Time   : 07:43:23
Host   : "nla-gpu2.ianm.kit.edu"
PID    : 1961182
I/O    : uncollated
Case   : /home/greole/code/OBR/lidDrivenCavity3D/Variation_mesh/10/Variation_matrix_solver/BiCGStab_BJ_HIP/base
nProcs : 1
sigFpe : Enabling floating point exception trapping (FOAM_SIGFPE).
fileModificationChecking : Monitoring run-time modified files using timeStampMaster (fileModificationSkew 10)
allowSystemOperations : Allowing user-supplied system call operations

// * * * * * * * * * * * * * * * * * * * * * * * * * * * * * * * * * * * * * //
Create time

Create mesh for time = 0

Reading transportProperties

Reading field p

Reading field U

Reading/calculating face flux field phi


Starting time loop

Time = 0.001

Courant Number mean: 0 max: 0
DILUPBiCGStab:  Solving for Ux, Initial residual = 1, Final residual = 8.04173e-19, No Iterations 5
DILUPBiCGStab:  Solving for Uy:  solution singularity
DILUPBiCGStab:  Solving for Uz:  solution singularity
linear solve U 459
[OGL LOG] init_host_sparsity_pattern : 0 ms
[OGL LOG] matrix not stored update host matrix
[OGL LOG] update_host_mtx : 0 ms
[OGL LOG] matrix is not yet sorted, compute sorting idxs
[OGL LOG] compute_sort : 6 ms
[OGL LOG] matrix is not yet sorted, sorting host matrix
[OGL LOG] sort_host_mtx_sparsity_pattern : 0 ms
[OGL LOG] sort_host_mtx : 0 ms
[OGL LOG] init_preconditioner : 48 ms
[OGL LOG] solve : 50 ms
BJhipGKOBiCGStab:  Solving for p, Initial residual = 1, Final residual = 9.45463e-05, No Iterations 41
linear solve p 522353
time step continuity errors : sum local = 3.1649e-08, global = -9.54484e-21, cumulative = -9.54484e-21
[OGL LOG] init_host_sparsity_pattern : 0 ms
[OGL LOG] matrix not stored update host matrix
[OGL LOG] update_host_mtx : 0 ms
[OGL LOG] matrix is not yet sorted, sorting host matrix
[OGL LOG] sort_host_mtx_sparsity_pattern : 0 ms
[OGL LOG] sort_host_mtx : 0 ms
[OGL LOG] init_preconditioner : 0 ms
[OGL LOG] solve : 9 ms
BJhipGKOBiCGStab:  Solving for p, Initial residual = 0.190399, Final residual = 6.65637e-05, No Iterations 33
linear solve p 11271
time step continuity errors : sum local = 8.08361e-08, global = 7.34454e-21, cumulative = -2.2003e-21
ExecutionTime = 0.62 s  ClockTime = 0 s

Time = 0.002

Courant Number mean: 0.00276878 max: 0.0123846
DILUPBiCGStab:  Solving for Ux, Initial residual = 0.271658, Final residual = 6.93021e-20, No Iterations 5
DILUPBiCGStab:  Solving for Uy, Initial residual = 0.305245, Final residual = 9.73343e-20, No Iterations 5
DILUPBiCGStab:  Solving for Uz, Initial residual = 0.479532, Final residual = 1.44252e-19, No Iterations 5
linear solve U 661
[OGL LOG] init_host_sparsity_pattern : 0 ms
[OGL LOG] matrix not stored update host matrix
[OGL LOG] update_host_mtx : 0 ms
[OGL LOG] matrix is not yet sorted, sorting host matrix
[OGL LOG] sort_host_mtx_sparsity_pattern : 0 ms
[OGL LOG] sort_host_mtx : 0 ms
[OGL LOG] init_preconditioner : 0 ms
[OGL LOG] solve : 9 ms
BJhipGKOBiCGStab:  Solving for p, Initial residual = 0.124791, Final residual = 8.15654e-05, No Iterations 33
linear solve p 10915
time step continuity errors : sum local = 1.01451e-07, global = 4.87127e-21, cumulative = 2.67097e-21
[OGL LOG] init_host_sparsity_pattern : 0 ms
[OGL LOG] matrix not stored update host matrix
[OGL LOG] update_host_mtx : 0 ms
[OGL LOG] matrix is not yet sorted, sorting host matrix
[OGL LOG] sort_host_mtx_sparsity_pattern : 0 ms
[OGL LOG] sort_host_mtx : 0 ms
[OGL LOG] init_preconditioner : 0 ms
[OGL LOG] solve : 3 ms
BJhipGKOBiCGStab:  Solving for p, Initial residual = 0.021258, Final residual = 8.57083e-05, No Iterations 12
linear solve p 5148
time step continuity errors : sum local = 8.99717e-08, global = 8.55015e-21, cumulative = 1.12211e-20
ExecutionTime = 0.65 s  ClockTime = 0 s

Time = 0.003

Courant Number mean: 0.00491746 max: 0.0221391
DILUPBiCGStab:  Solving for Ux, Initial residual = 0.137869, Final residual = 3.69939e-20, No Iterations 5
DILUPBiCGStab:  Solving for Uy, Initial residual = 0.166029, Final residual = 4.87378e-20, No Iterations 5
DILUPBiCGStab:  Solving for Uz, Initial residual = 0.29431, Final residual = 1.09656e-19, No Iterations 5
linear solve U 651
[OGL LOG] init_host_sparsity_pattern : 0 ms
[OGL LOG] matrix not stored update host matrix
[OGL LOG] update_host_mtx : 0 ms
[OGL LOG] matrix is not yet sorted, sorting host matrix
[OGL LOG] sort_host_mtx_sparsity_pattern : 0 ms
[OGL LOG] sort_host_mtx : 0 ms
[OGL LOG] init_preconditioner : 0 ms
[OGL LOG] solve : 8 ms
BJhipGKOBiCGStab:  Solving for p, Initial residual = 0.0636377, Final residual = 9.52593e-05, No Iterations 29
linear solve p 9814
time step continuity errors : sum local = 1.36606e-07, global = 2.5899e-21, cumulative = 1.3811e-20
[OGL LOG] init_host_sparsity_pattern : 0 ms
[OGL LOG] matrix not stored update host matrix
[OGL LOG] update_host_mtx : 0 ms
[OGL LOG] matrix is not yet sorted, sorting host matrix
[OGL LOG] sort_host_mtx_sparsity_pattern : 0 ms
[OGL LOG] sort_host_mtx : 0 ms
[OGL LOG] init_preconditioner : 0 ms
[OGL LOG] solve : 3 ms
BJhipGKOBiCGStab:  Solving for p, Initial residual = 0.0132909, Final residual = 9.99409e-05, No Iterations 11
linear solve p 4915
time step continuity errors : sum local = 1.01165e-07, global = 2.10782e-20, cumulative = 3.48892e-20
ExecutionTime = 0.68 s  ClockTime = 0 s

Time = 0.004

Courant Number mean: 0.00660402 max: 0.0298429
DILUPBiCGStab:  Solving for Ux, Initial residual = 0.084401, Final residual = 2.3572e-20, No Iterations 5
DILUPBiCGStab:  Solving for Uy, Initial residual = 0.107795, Final residual = 2.84362e-20, No Iterations 5
DILUPBiCGStab:  Solving for Uz, Initial residual = 0.194253, Final residual = 7.37168e-20, No Iterations 5
linear solve U 644
[OGL LOG] init_host_sparsity_pattern : 0 ms
[OGL LOG] matrix not stored update host matrix
[OGL LOG] update_host_mtx : 0 ms
[OGL LOG] matrix is not yet sorted, sorting host matrix
[OGL LOG] sort_host_mtx_sparsity_pattern : 0 ms
[OGL LOG] sort_host_mtx : 0 ms
[OGL LOG] init_preconditioner : 0 ms
[OGL LOG] solve : 9 ms
BJhipGKOBiCGStab:  Solving for p, Initial residual = 0.0390722, Final residual = 9.98298e-05, No Iterations 33
linear solve p 10698
time step continuity errors : sum local = 8.99013e-08, global = -2.70728e-20, cumulative = 7.81644e-21
[OGL LOG] init_host_sparsity_pattern : 0 ms
[OGL LOG] matrix not stored update host matrix
[OGL LOG] update_host_mtx : 0 ms
[OGL LOG] matrix is not yet sorted, sorting host matrix
[OGL LOG] sort_host_mtx_sparsity_pattern : 0 ms
[OGL LOG] sort_host_mtx : 0 ms
[OGL LOG] init_preconditioner : 0 ms
[OGL LOG] solve : 3 ms
BJhipGKOBiCGStab:  Solving for p, Initial residual = 0.00956787, Final residual = 7.70532e-05, No Iterations 11
linear solve p 4918
time step continuity errors : sum local = 9.93949e-08, global = -1.61165e-20, cumulative = -8.30004e-21
ExecutionTime = 0.71 s  ClockTime = 0 s

Time = 0.005

Courant Number mean: 0.00794433 max: 0.0359758
DILUPBiCGStab:  Solving for Ux, Initial residual = 0.0590201, Final residual = 1.62536e-20, No Iterations 5
DILUPBiCGStab:  Solving for Uy, Initial residual = 0.0764678, Final residual = 1.7832e-20, No Iterations 5
DILUPBiCGStab:  Solving for Uz, Initial residual = 0.151727, Final residual = 6.58718e-20, No Iterations 5
linear solve U 637
[OGL LOG] init_host_sparsity_pattern : 0 ms
[OGL LOG] matrix not stored update host matrix
[OGL LOG] update_host_mtx : 0 ms
[OGL LOG] matrix is not yet sorted, sorting host matrix
[OGL LOG] sort_host_mtx_sparsity_pattern : 0 ms
[OGL LOG] sort_host_mtx : 0 ms
[OGL LOG] init_preconditioner : 0 ms
[OGL LOG] solve : 3 ms
BJhipGKOBiCGStab:  Solving for p, Initial residual = 0.0281896, Final residual = 9.54073e-05, No Iterations 13
linear solve p 5404
time step continuity errors : sum local = 1.16765e-07, global = 2.23091e-20, cumulative = 1.4009e-20
[OGL LOG] init_host_sparsity_pattern : 0 ms
[OGL LOG] matrix not stored update host matrix
[OGL LOG] update_host_mtx : 0 ms
[OGL LOG] matrix is not yet sorted, sorting host matrix
[OGL LOG] sort_host_mtx_sparsity_pattern : 0 ms
[OGL LOG] sort_host_mtx : 0 ms
[OGL LOG] init_preconditioner : 0 ms
[OGL LOG] solve : 3 ms
BJhipGKOBiCGStab:  Solving for p, Initial residual = 0.00739204, Final residual = 6.1608e-05, No Iterations 11
linear solve p 4932
time step continuity errors : sum local = 6.54114e-08, global = 2.80373e-21, cumulative = 1.68128e-20
ExecutionTime = 0.72 s  ClockTime = 0 s

Time = 0.006

Courant Number mean: 0.00902424 max: 0.0408975
DILUPBiCGStab:  Solving for Ux, Initial residual = 0.0444303, Final residual = 1.17402e-20, No Iterations 5
DILUPBiCGStab:  Solving for Uy, Initial residual = 0.0572568, Final residual = 1.17248e-20, No Iterations 5
DILUPBiCGStab:  Solving for Uz, Initial residual = 0.123323, Final residual = 4.95221e-20, No Iterations 5
linear solve U 641
[OGL LOG] init_host_sparsity_pattern : 0 ms
[OGL LOG] matrix not stored update host matrix
[OGL LOG] update_host_mtx : 0 ms
[OGL LOG] matrix is not yet sorted, sorting host matrix
[OGL LOG] sort_host_mtx_sparsity_pattern : 0 ms
[OGL LOG] sort_host_mtx : 0 ms
[OGL LOG] init_preconditioner : 0 ms
[OGL LOG] solve : 8 ms
BJhipGKOBiCGStab:  Solving for p, Initial residual = 0.0228375, Final residual = 9.88118e-05, No Iterations 30
linear solve p 10130
time step continuity errors : sum local = 9.89398e-08, global = -1.88415e-20, cumulative = -2.02877e-21
[OGL LOG] init_host_sparsity_pattern : 0 ms
[OGL LOG] matrix not stored update host matrix
[OGL LOG] update_host_mtx : 0 ms
[OGL LOG] matrix is not yet sorted, sorting host matrix
[OGL LOG] sort_host_mtx_sparsity_pattern : 0 ms
[OGL LOG] sort_host_mtx : 0 ms
[OGL LOG] init_preconditioner : 0 ms
[OGL LOG] solve : 3 ms
BJhipGKOBiCGStab:  Solving for p, Initial residual = 0.00579958, Final residual = 9.08561e-05, No Iterations 10
linear solve p 4492
time step continuity errors : sum local = 9.54539e-08, global = -3.52316e-21, cumulative = -5.55192e-21
ExecutionTime = 0.75 s  ClockTime = 0 s

Time = 0.007

Courant Number mean: 0.00990699 max: 0.04488
DILUPBiCGStab:  Solving for Ux, Initial residual = 0.0349043, Final residual = 8.75695e-21, No Iterations 5
DILUPBiCGStab:  Solving for Uy, Initial residual = 0.0446025, Final residual = 8.05589e-21, No Iterations 5
DILUPBiCGStab:  Solving for Uz, Initial residual = 0.102289, Final residual = 4.291e-20, No Iterations 5
linear solve U 639
[OGL LOG] init_host_sparsity_pattern : 0 ms
[OGL LOG] matrix not stored update host matrix
[OGL LOG] update_host_mtx : 0 ms
[OGL LOG] matrix is not yet sorted, sorting host matrix
[OGL LOG] sort_host_mtx_sparsity_pattern : 0 ms
[OGL LOG] sort_host_mtx : 0 ms
[OGL LOG] init_preconditioner : 0 ms
[OGL LOG] solve : 4 ms
BJhipGKOBiCGStab:  Solving for p, Initial residual = 0.0195371, Final residual = 7.41832e-05, No Iterations 13
linear solve p 5548
time step continuity errors : sum local = 1.05044e-07, global = 1.24973e-20, cumulative = 6.94533e-21
[OGL LOG] init_host_sparsity_pattern : 0 ms
[OGL LOG] matrix not stored update host matrix
[OGL LOG] update_host_mtx : 0 ms
[OGL LOG] matrix is not yet sorted, sorting host matrix
[OGL LOG] sort_host_mtx_sparsity_pattern : 0 ms
[OGL LOG] sort_host_mtx : 0 ms
[OGL LOG] init_preconditioner : 0 ms
[OGL LOG] solve : 3 ms
BJhipGKOBiCGStab:  Solving for p, Initial residual = 0.0047969, Final residual = 9.01088e-05, No Iterations 10
linear solve p 4640
time step continuity errors : sum local = 1.01912e-07, global = 2.44945e-20, cumulative = 3.14398e-20
ExecutionTime = 0.77 s  ClockTime = 0 s

Time = 0.008

Courant Number mean: 0.0106745 max: 0.0481313
DILUPBiCGStab:  Solving for Ux, Initial residual = 0.0282009, Final residual = 6.85057e-21, No Iterations 5
DILUPBiCGStab:  Solving for Uy, Initial residual = 0.0357672, Final residual = 5.92578e-21, No Iterations 5
DILUPBiCGStab:  Solving for Uz, Initial residual = 0.0869158, Final residual = 3.48751e-20, No Iterations 5
linear solve U 637
[OGL LOG] init_host_sparsity_pattern : 0 ms
[OGL LOG] matrix not stored update host matrix
[OGL LOG] update_host_mtx : 0 ms
[OGL LOG] matrix is not yet sorted, sorting host matrix
[OGL LOG] sort_host_mtx_sparsity_pattern : 0 ms
[OGL LOG] sort_host_mtx : 0 ms
[OGL LOG] init_preconditioner : 0 ms
[OGL LOG] solve : 7 ms
BJhipGKOBiCGStab:  Solving for p, Initial residual = 0.0167974, Final residual = 9.95231e-05, No Iterations 27
linear solve p 9128
time step continuity errors : sum local = 1.42128e-07, global = -1.41114e-21, cumulative = 3.00287e-20
[OGL LOG] init_host_sparsity_pattern : 0 ms
[OGL LOG] matrix not stored update host matrix
[OGL LOG] update_host_mtx : 0 ms
[OGL LOG] matrix is not yet sorted, sorting host matrix
[OGL LOG] sort_host_mtx_sparsity_pattern : 0 ms
[OGL LOG] sort_host_mtx : 0 ms
[OGL LOG] init_preconditioner : 0 ms
[OGL LOG] solve : 3 ms
BJhipGKOBiCGStab:  Solving for p, Initial residual = 0.00386111, Final residual = 6.39749e-05, No Iterations 10
linear solve p 4666
time step continuity errors : sum local = 9.21108e-08, global = -4.64181e-20, cumulative = -1.63894e-20
ExecutionTime = 0.79 s  ClockTime = 0 s

Time = 0.009

Courant Number mean: 0.0113439 max: 0.0508022
DILUPBiCGStab:  Solving for Ux, Initial residual = 0.0232033, Final residual = 5.57803e-21, No Iterations 5
DILUPBiCGStab:  Solving for Uy, Initial residual = 0.0293634, Final residual = 4.75313e-21, No Iterations 5
DILUPBiCGStab:  Solving for Uz, Initial residual = 0.0734772, Final residual = 2.9263e-20, No Iterations 5
linear solve U 644
[OGL LOG] init_host_sparsity_pattern : 0 ms
[OGL LOG] matrix not stored update host matrix
[OGL LOG] update_host_mtx : 0 ms
[OGL LOG] matrix is not yet sorted, sorting host matrix
[OGL LOG] sort_host_mtx_sparsity_pattern : 0 ms
[OGL LOG] sort_host_mtx : 0 ms
[OGL LOG] init_preconditioner : 0 ms
[OGL LOG] solve : 4 ms
BJhipGKOBiCGStab:  Solving for p, Initial residual = 0.0150595, Final residual = 9.87706e-05, No Iterations 15
linear solve p 5859
time step continuity errors : sum local = 1.77152e-07, global = 2.38484e-20, cumulative = 7.45903e-21
[OGL LOG] init_host_sparsity_pattern : 0 ms
[OGL LOG] matrix not stored update host matrix
[OGL LOG] update_host_mtx : 0 ms
[OGL LOG] matrix is not yet sorted, sorting host matrix
[OGL LOG] sort_host_mtx_sparsity_pattern : 0 ms
[OGL LOG] sort_host_mtx : 0 ms
[OGL LOG] init_preconditioner : 0 ms
[OGL LOG] solve : 3 ms
BJhipGKOBiCGStab:  Solving for p, Initial residual = 0.00336301, Final residual = 9.741e-05, No Iterations 11
linear solve p 4740
time step continuity errors : sum local = 1.61549e-07, global = 2.49974e-21, cumulative = 9.95877e-21
ExecutionTime = 0.81 s  ClockTime = 0 s

Time = 0.01

Courant Number mean: 0.0119442 max: 0.0530169
DILUPBiCGStab:  Solving for Ux, Initial residual = 0.0193026, Final residual = 4.68957e-21, No Iterations 5
DILUPBiCGStab:  Solving for Uy, Initial residual = 0.024547, Final residual = 4.13283e-21, No Iterations 5
DILUPBiCGStab:  Solving for Uz, Initial residual = 0.0639214, Final residual = 2.56251e-20, No Iterations 5
linear solve U 648
[OGL LOG] init_host_sparsity_pattern : 0 ms
[OGL LOG] matrix not stored update host matrix
[OGL LOG] update_host_mtx : 0 ms
[OGL LOG] matrix is not yet sorted, sorting host matrix
[OGL LOG] sort_host_mtx_sparsity_pattern : 0 ms
[OGL LOG] sort_host_mtx : 0 ms
[OGL LOG] init_preconditioner : 0 ms
[OGL LOG] solve : 7 ms
BJhipGKOBiCGStab:  Solving for p, Initial residual = 0.0134726, Final residual = 5.022e-05, No Iterations 28
linear solve p 9505
time step continuity errors : sum local = 7.46417e-08, global = -3.9794e-20, cumulative = -2.98352e-20
[OGL LOG] init_host_sparsity_pattern : 0 ms
[OGL LOG] matrix not stored update host matrix
[OGL LOG] update_host_mtx : 0 ms
[OGL LOG] matrix is not yet sorted, sorting host matrix
[OGL LOG] sort_host_mtx_sparsity_pattern : 0 ms
[OGL LOG] sort_host_mtx : 0 ms
[OGL LOG] init_preconditioner : 0 ms
[OGL LOG] solve : 3 ms
BJhipGKOBiCGStab:  Solving for p, Initial residual = 0.00273911, Final residual = 9.80523e-05, No Iterations 10
linear solve p 4490
time step continuity errors : sum local = 9.85382e-08, global = 1.33126e-20, cumulative = -1.65226e-20
ExecutionTime = 0.83 s  ClockTime = 0 s

End

