/*---------------------------------------------------------------------------*\
  =========                 |
  \\      /  F ield         | OpenFOAM: The Open Source CFD Toolbox
   \\    /   O peration     | Website:  https://openfoam.org
    \\  /    A nd           | Version:  8
     \\/     M anipulation  |
\*---------------------------------------------------------------------------*/
Build  : 8-14d69e1ee166
Exec   : icoFoam
Date   : Jul 29 2021
Time   : 09:01:11
Host   : "guyot.icl.utk.edu"
PID    : 204821
I/O    : uncollated
Case   : /home/greole/code/OBR/lidDrivenCavity3D/Variation_mesh/70/Variation_matrix_solver/CG_BJ_CUDA/base
nProcs : 1
sigFpe : Enabling floating point exception trapping (FOAM_SIGFPE).
fileModificationChecking : Monitoring run-time modified files using timeStampMaster (fileModificationSkew 10)
allowSystemOperations : Allowing user-supplied system call operations

// * * * * * * * * * * * * * * * * * * * * * * * * * * * * * * * * * * * * * //
Create time

Create mesh for time = 0

Reading transportProperties

Reading field p

Reading field U

Reading/calculating face flux field phi


Starting time loop

Time = 0.001

Courant Number mean: 0 max: 0
DILUPBiCGStab:  Solving for Ux, Initial residual = 1, Final residual = 0.00143011, No Iterations 5
DILUPBiCGStab:  Solving for Uy:  solution singularity
DILUPBiCGStab:  Solving for Uz:  solution singularity
linear solve U 131600
[OGL LOG] init_host_sparsity_pattern : 153 ms
[OGL LOG] matrix not stored update host matrix
[OGL LOG] update_host_mtx : 76 ms
[OGL LOG] matrix is not yet sorted, compute sorting idxs
[OGL LOG] compute_sort : 3503 ms
[OGL LOG] matrix is not yet sorted, sorting host matrix
[OGL LOG] sort_host_mtx_sparsity_pattern : 61 ms
[OGL LOG] sort_host_mtx : 38 ms
[OGL LOG] init_preconditioner : 53 ms
 CG create  precond 
[OGL LOG] solve : 438 ms
BJcudaGKOCG:  Solving for p, Initial residual = 1, Final residual = 9.95369e-05, No Iterations 464
linear solve p 5996496
time step continuity errors : sum local = 5.85427e-08, global = 3.31531e-21, cumulative = 3.31531e-21
[OGL LOG] init_host_sparsity_pattern : 146 ms
[OGL LOG] matrix not stored update host matrix
[OGL LOG] update_host_mtx : 74 ms
[OGL LOG] matrix is not yet sorted, sorting host matrix
[OGL LOG] sort_host_mtx_sparsity_pattern : 59 ms
[OGL LOG] sort_host_mtx : 33 ms
[OGL LOG] init_preconditioner : 0 ms
 CG create  precond 
[OGL LOG] solve : 410 ms
BJcudaGKOCG:  Solving for p, Initial residual = 0.723816, Final residual = 9.65588e-05, No Iterations 447
linear solve p 744449
time step continuity errors : sum local = 7.54958e-08, global = -6.34304e-21, cumulative = -3.02773e-21
ExecutionTime = 8.45 s  ClockTime = 8 s

Time = 0.002

Courant Number mean: 0.0394021 max: 0.518352
DILUPBiCGStab:  Solving for Ux, Initial residual = 0.151291, Final residual = 0.000459808, No Iterations 5
DILUPBiCGStab:  Solving for Uy, Initial residual = 0.361768, Final residual = 0.000929263, No Iterations 5
DILUPBiCGStab:  Solving for Uz, Initial residual = 0.984653, Final residual = 0.0030302, No Iterations 5
linear solve U 251702
[OGL LOG] init_host_sparsity_pattern : 148 ms
[OGL LOG] matrix not stored update host matrix
[OGL LOG] update_host_mtx : 74 ms
[OGL LOG] matrix is not yet sorted, sorting host matrix
[OGL LOG] sort_host_mtx_sparsity_pattern : 59 ms
[OGL LOG] sort_host_mtx : 33 ms
[OGL LOG] init_preconditioner : 0 ms
 CG create  precond 
[OGL LOG] solve : 405 ms
BJcudaGKOCG:  Solving for p, Initial residual = 0.674247, Final residual = 9.44653e-05, No Iterations 441
linear solve p 740433
time step continuity errors : sum local = 8.08239e-08, global = -1.36921e-21, cumulative = -4.39693e-21
[OGL LOG] init_host_sparsity_pattern : 148 ms
[OGL LOG] matrix not stored update host matrix
[OGL LOG] update_host_mtx : 74 ms
[OGL LOG] matrix is not yet sorted, sorting host matrix
[OGL LOG] sort_host_mtx_sparsity_pattern : 57 ms
[OGL LOG] sort_host_mtx : 33 ms
[OGL LOG] init_preconditioner : 0 ms
 CG create  precond 
[OGL LOG] solve : 401 ms
BJcudaGKOCG:  Solving for p, Initial residual = 0.601573, Final residual = 9.67927e-05, No Iterations 438
linear solve p 734410
time step continuity errors : sum local = 8.46901e-08, global = 1.59227e-21, cumulative = -2.80466e-21
ExecutionTime = 10.32 s  ClockTime = 10 s

Time = 0.003

Courant Number mean: 0.059136 max: 0.61629
DILUPBiCGStab:  Solving for Ux, Initial residual = 0.0520837, Final residual = 0.000108122, No Iterations 5
DILUPBiCGStab:  Solving for Uy, Initial residual = 0.118686, Final residual = 0.000223833, No Iterations 5
DILUPBiCGStab:  Solving for Uz, Initial residual = 0.504056, Final residual = 0.00145515, No Iterations 5
linear solve U 250328
[OGL LOG] init_host_sparsity_pattern : 147 ms
[OGL LOG] matrix not stored update host matrix
[OGL LOG] update_host_mtx : 74 ms
[OGL LOG] matrix is not yet sorted, sorting host matrix
[OGL LOG] sort_host_mtx_sparsity_pattern : 56 ms
[OGL LOG] sort_host_mtx : 33 ms
[OGL LOG] init_preconditioner : 0 ms
 CG create  precond 
[OGL LOG] solve : 401 ms
BJcudaGKOCG:  Solving for p, Initial residual = 0.609231, Final residual = 9.07907e-05, No Iterations 436
linear solve p 733661
time step continuity errors : sum local = 5.56617e-08, global = -8.66989e-21, cumulative = -1.14745e-20
[OGL LOG] init_host_sparsity_pattern : 148 ms
[OGL LOG] matrix not stored update host matrix
[OGL LOG] update_host_mtx : 74 ms
[OGL LOG] matrix is not yet sorted, sorting host matrix
[OGL LOG] sort_host_mtx_sparsity_pattern : 56 ms
[OGL LOG] sort_host_mtx : 33 ms
[OGL LOG] init_preconditioner : 0 ms
 CG create  precond 
[OGL LOG] solve : 398 ms
BJcudaGKOCG:  Solving for p, Initial residual = 0.557347, Final residual = 9.99225e-05, No Iterations 434
linear solve p 730398
time step continuity errors : sum local = 5.94779e-08, global = -6.02641e-21, cumulative = -1.7501e-20
ExecutionTime = 12.18 s  ClockTime = 12 s

Time = 0.004

Courant Number mean: 0.0695971 max: 0.629497
DILUPBiCGStab:  Solving for Ux, Initial residual = 0.0286858, Final residual = 5.77619e-05, No Iterations 5
DILUPBiCGStab:  Solving for Uy, Initial residual = 0.0790528, Final residual = 0.000132055, No Iterations 5
DILUPBiCGStab:  Solving for Uz, Initial residual = 0.26212, Final residual = 0.000583209, No Iterations 5
linear solve U 253155
[OGL LOG] init_host_sparsity_pattern : 147 ms
[OGL LOG] matrix not stored update host matrix
[OGL LOG] update_host_mtx : 74 ms
[OGL LOG] matrix is not yet sorted, sorting host matrix
[OGL LOG] sort_host_mtx_sparsity_pattern : 57 ms
[OGL LOG] sort_host_mtx : 36 ms
[OGL LOG] init_preconditioner : 0 ms
 CG create  precond 
[OGL LOG] solve : 395 ms
BJcudaGKOCG:  Solving for p, Initial residual = 0.385806, Final residual = 9.527e-05, No Iterations 428
linear solve p 731987
time step continuity errors : sum local = 5.07918e-08, global = 1.01833e-20, cumulative = -7.31769e-21
[OGL LOG] init_host_sparsity_pattern : 148 ms
[OGL LOG] matrix not stored update host matrix
[OGL LOG] update_host_mtx : 74 ms
[OGL LOG] matrix is not yet sorted, sorting host matrix
[OGL LOG] sort_host_mtx_sparsity_pattern : 58 ms
[OGL LOG] sort_host_mtx : 33 ms
[OGL LOG] init_preconditioner : 0 ms
 CG create  precond 
[OGL LOG] solve : 392 ms
BJcudaGKOCG:  Solving for p, Initial residual = 0.325481, Final residual = 9.57239e-05, No Iterations 426
linear solve p 727968
time step continuity errors : sum local = 5.16666e-08, global = 3.48044e-21, cumulative = -3.83725e-21
ExecutionTime = 14.03 s  ClockTime = 14 s

Time = 0.005

Courant Number mean: 0.0778345 max: 0.639339
DILUPBiCGStab:  Solving for Ux, Initial residual = 0.0206103, Final residual = 3.14e-05, No Iterations 5
DILUPBiCGStab:  Solving for Uy, Initial residual = 0.0456785, Final residual = 6.1053e-05, No Iterations 5
DILUPBiCGStab:  Solving for Uz, Initial residual = 0.0901728, Final residual = 0.000191472, No Iterations 5
linear solve U 252943
[OGL LOG] init_host_sparsity_pattern : 147 ms
[OGL LOG] matrix not stored update host matrix
[OGL LOG] update_host_mtx : 74 ms
[OGL LOG] matrix is not yet sorted, sorting host matrix
[OGL LOG] sort_host_mtx_sparsity_pattern : 55 ms
[OGL LOG] sort_host_mtx : 36 ms
[OGL LOG] init_preconditioner : 0 ms
 CG create  precond 
[OGL LOG] solve : 367 ms
BJcudaGKOCG:  Solving for p, Initial residual = 0.289544, Final residual = 9.81705e-05, No Iterations 397
linear solve p 701709
time step continuity errors : sum local = 4.36908e-08, global = 1.21378e-21, cumulative = -2.62347e-21
[OGL LOG] init_host_sparsity_pattern : 148 ms
[OGL LOG] matrix not stored update host matrix
[OGL LOG] update_host_mtx : 74 ms
[OGL LOG] matrix is not yet sorted, sorting host matrix
[OGL LOG] sort_host_mtx_sparsity_pattern : 56 ms
[OGL LOG] sort_host_mtx : 33 ms
[OGL LOG] init_preconditioner : 0 ms
 CG create  precond 
[OGL LOG] solve : 367 ms
BJcudaGKOCG:  Solving for p, Initial residual = 0.247293, Final residual = 9.78366e-05, No Iterations 396
linear solve p 699700
time step continuity errors : sum local = 4.32057e-08, global = -1.92093e-21, cumulative = -4.54439e-21
ExecutionTime = 15.84 s  ClockTime = 15 s

Time = 0.006

Courant Number mean: 0.0841385 max: 0.645083
DILUPBiCGStab:  Solving for Ux, Initial residual = 0.014895, Final residual = 2.1975e-05, No Iterations 5
DILUPBiCGStab:  Solving for Uy, Initial residual = 0.0354636, Final residual = 3.66459e-05, No Iterations 5
DILUPBiCGStab:  Solving for Uz, Initial residual = 0.0796079, Final residual = 0.000157433, No Iterations 5
linear solve U 251357
[OGL LOG] init_host_sparsity_pattern : 148 ms
[OGL LOG] matrix not stored update host matrix
[OGL LOG] update_host_mtx : 74 ms
[OGL LOG] matrix is not yet sorted, sorting host matrix
[OGL LOG] sort_host_mtx_sparsity_pattern : 55 ms
[OGL LOG] sort_host_mtx : 35 ms
[OGL LOG] init_preconditioner : 0 ms
 CG create  precond 
[OGL LOG] solve : 184 ms
BJcudaGKOCG:  Solving for p, Initial residual = 0.177452, Final residual = 9.27276e-05, No Iterations 197
linear solve p 518701
time step continuity errors : sum local = 4.77927e-08, global = -4.29555e-20, cumulative = -4.74999e-20
[OGL LOG] init_host_sparsity_pattern : 148 ms
[OGL LOG] matrix not stored update host matrix
[OGL LOG] update_host_mtx : 74 ms
[OGL LOG] matrix is not yet sorted, sorting host matrix
[OGL LOG] sort_host_mtx_sparsity_pattern : 57 ms
[OGL LOG] sort_host_mtx : 34 ms
[OGL LOG] init_preconditioner : 0 ms
 CG create  precond 
[OGL LOG] solve : 183 ms
BJcudaGKOCG:  Solving for p, Initial residual = 0.146803, Final residual = 8.94435e-05, No Iterations 195
linear solve p 517506
time step continuity errors : sum local = 4.11892e-08, global = 5.43593e-22, cumulative = -4.69563e-20
ExecutionTime = 17.27 s  ClockTime = 17 s

Time = 0.007

Courant Number mean: 0.0893567 max: 0.648975
DILUPBiCGStab:  Solving for Ux, Initial residual = 0.011884, Final residual = 1.23412e-05, No Iterations 5
DILUPBiCGStab:  Solving for Uy, Initial residual = 0.0272429, Final residual = 2.86798e-05, No Iterations 5
DILUPBiCGStab:  Solving for Uz, Initial residual = 0.049756, Final residual = 7.73909e-05, No Iterations 5
linear solve U 251209
[OGL LOG] init_host_sparsity_pattern : 147 ms
[OGL LOG] matrix not stored update host matrix
[OGL LOG] update_host_mtx : 74 ms
[OGL LOG] matrix is not yet sorted, sorting host matrix
[OGL LOG] sort_host_mtx_sparsity_pattern : 59 ms
[OGL LOG] sort_host_mtx : 33 ms
[OGL LOG] init_preconditioner : 0 ms
 CG create  precond 
[OGL LOG] solve : 180 ms
BJcudaGKOCG:  Solving for p, Initial residual = 0.124037, Final residual = 9.60658e-05, No Iterations 194
linear solve p 516711
time step continuity errors : sum local = 3.99189e-08, global = 6.31393e-21, cumulative = -4.06424e-20
[OGL LOG] init_host_sparsity_pattern : 148 ms
[OGL LOG] matrix not stored update host matrix
[OGL LOG] update_host_mtx : 74 ms
[OGL LOG] matrix is not yet sorted, sorting host matrix
[OGL LOG] sort_host_mtx_sparsity_pattern : 55 ms
[OGL LOG] sort_host_mtx : 33 ms
[OGL LOG] init_preconditioner : 0 ms
 CG create  precond 
[OGL LOG] solve : 176 ms
BJcudaGKOCG:  Solving for p, Initial residual = 0.103537, Final residual = 9.8538e-05, No Iterations 189
linear solve p 508784
time step continuity errors : sum local = 4.11592e-08, global = -4.15515e-20, cumulative = -8.21939e-20
ExecutionTime = 18.69 s  ClockTime = 18 s

Time = 0.008

Courant Number mean: 0.0937058 max: 0.652003
DILUPBiCGStab:  Solving for Ux, Initial residual = 0.00969377, Final residual = 1.01163e-05, No Iterations 5
DILUPBiCGStab:  Solving for Uy, Initial residual = 0.0223562, Final residual = 1.32891e-05, No Iterations 5
DILUPBiCGStab:  Solving for Uz, Initial residual = 0.0440588, Final residual = 5.64883e-05, No Iterations 5
linear solve U 252351
[OGL LOG] init_host_sparsity_pattern : 147 ms
[OGL LOG] matrix not stored update host matrix
[OGL LOG] update_host_mtx : 74 ms
[OGL LOG] matrix is not yet sorted, sorting host matrix
[OGL LOG] sort_host_mtx_sparsity_pattern : 56 ms
[OGL LOG] sort_host_mtx : 33 ms
[OGL LOG] init_preconditioner : 0 ms
 CG create  precond 
[OGL LOG] solve : 176 ms
BJcudaGKOCG:  Solving for p, Initial residual = 0.0805663, Final residual = 9.98907e-05, No Iterations 189
linear solve p 508993
time step continuity errors : sum local = 4.89983e-08, global = 1.0512e-20, cumulative = -7.16819e-20
[OGL LOG] init_host_sparsity_pattern : 148 ms
[OGL LOG] matrix not stored update host matrix
[OGL LOG] update_host_mtx : 74 ms
[OGL LOG] matrix is not yet sorted, sorting host matrix
[OGL LOG] sort_host_mtx_sparsity_pattern : 59 ms
[OGL LOG] sort_host_mtx : 35 ms
[OGL LOG] init_preconditioner : 0 ms
 CG create  precond 
[OGL LOG] solve : 169 ms
BJcudaGKOCG:  Solving for p, Initial residual = 0.0665251, Final residual = 9.93964e-05, No Iterations 183
linear solve p 506763
time step continuity errors : sum local = 4.35824e-08, global = 6.93372e-21, cumulative = -6.47482e-20
ExecutionTime = 20.1 s  ClockTime = 20 s

Time = 0.009

Courant Number mean: 0.0974484 max: 0.654263
DILUPBiCGStab:  Solving for Ux, Initial residual = 0.00810224, Final residual = 5.39981e-06, No Iterations 5
DILUPBiCGStab:  Solving for Uy, Initial residual = 0.0188558, Final residual = 1.31747e-05, No Iterations 5
DILUPBiCGStab:  Solving for Uz, Initial residual = 0.0361132, Final residual = 4.39439e-05, No Iterations 5
linear solve U 251027
[OGL LOG] init_host_sparsity_pattern : 147 ms
[OGL LOG] matrix not stored update host matrix
[OGL LOG] update_host_mtx : 74 ms
[OGL LOG] matrix is not yet sorted, sorting host matrix
[OGL LOG] sort_host_mtx_sparsity_pattern : 55 ms
[OGL LOG] sort_host_mtx : 35 ms
[OGL LOG] init_preconditioner : 0 ms
 CG create  precond 
[OGL LOG] solve : 171 ms
BJcudaGKOCG:  Solving for p, Initial residual = 0.0584234, Final residual = 9.69119e-05, No Iterations 183
linear solve p 504735
time step continuity errors : sum local = 4.17354e-08, global = -1.38884e-20, cumulative = -7.86366e-20
[OGL LOG] init_host_sparsity_pattern : 147 ms
[OGL LOG] matrix not stored update host matrix
[OGL LOG] update_host_mtx : 74 ms
[OGL LOG] matrix is not yet sorted, sorting host matrix
[OGL LOG] sort_host_mtx_sparsity_pattern : 58 ms
[OGL LOG] sort_host_mtx : 34 ms
[OGL LOG] init_preconditioner : 0 ms
 CG create  precond 
[OGL LOG] solve : 168 ms
BJcudaGKOCG:  Solving for p, Initial residual = 0.048739, Final residual = 9.36979e-05, No Iterations 181
linear solve p 503360
time step continuity errors : sum local = 3.7862e-08, global = 1.5648e-20, cumulative = -6.29886e-20
ExecutionTime = 21.51 s  ClockTime = 21 s

Time = 0.01

Courant Number mean: 0.100691 max: 0.656135
DILUPBiCGStab:  Solving for Ux, Initial residual = 0.0069496, Final residual = 4.37993e-06, No Iterations 5
DILUPBiCGStab:  Solving for Uy, Initial residual = 0.0160994, Final residual = 6.7309e-06, No Iterations 5
DILUPBiCGStab:  Solving for Uz, Initial residual = 0.0319673, Final residual = 3.22178e-05, No Iterations 5
linear solve U 251470
[OGL LOG] init_host_sparsity_pattern : 147 ms
[OGL LOG] matrix not stored update host matrix
[OGL LOG] update_host_mtx : 74 ms
[OGL LOG] matrix is not yet sorted, sorting host matrix
[OGL LOG] sort_host_mtx_sparsity_pattern : 55 ms
[OGL LOG] sort_host_mtx : 33 ms
[OGL LOG] init_preconditioner : 0 ms
 CG create  precond 
[OGL LOG] solve : 358 ms
BJcudaGKOCG:  Solving for p, Initial residual = 0.0395101, Final residual = 9.13195e-05, No Iterations 389
linear solve p 689887
time step continuity errors : sum local = 3.65428e-08, global = 9.29666e-21, cumulative = -5.36919e-20
[OGL LOG] init_host_sparsity_pattern : 148 ms
[OGL LOG] matrix not stored update host matrix
[OGL LOG] update_host_mtx : 74 ms
[OGL LOG] matrix is not yet sorted, sorting host matrix
[OGL LOG] sort_host_mtx_sparsity_pattern : 57 ms
[OGL LOG] sort_host_mtx : 33 ms
[OGL LOG] init_preconditioner : 0 ms
 CG create  precond 
[OGL LOG] solve : 358 ms
BJcudaGKOCG:  Solving for p, Initial residual = 0.0332935, Final residual = 9.02633e-05, No Iterations 388
linear solve p 691188
time step continuity errors : sum local = 3.61468e-08, global = -3.88405e-20, cumulative = -9.25325e-20
ExecutionTime = 23.29 s  ClockTime = 23 s

End

