/*---------------------------------------------------------------------------*\
  =========                 |
  \\      /  F ield         | OpenFOAM: The Open Source CFD Toolbox
   \\    /   O peration     | Website:  https://openfoam.org
    \\  /    A nd           | Version:  8
     \\/     M anipulation  |
\*---------------------------------------------------------------------------*/
Build  : 8-ef60d22ea792
Exec   : icoFoam
Date   : Jul 29 2021
Time   : 04:14:49
Host   : "uc2n489.localdomain"
PID    : 3426731
I/O    : uncollated
Case   : /pfs/data5/home/kit/scc/nq7776/code/OBR/lidDrivenCavity3D/Variation_mesh/55/Variation_matrix_solver/BiCGStab_BJ_CUDA/base
nProcs : 1
sigFpe : Enabling floating point exception trapping (FOAM_SIGFPE).
fileModificationChecking : Monitoring run-time modified files using timeStampMaster (fileModificationSkew 10)
allowSystemOperations : Allowing user-supplied system call operations

// * * * * * * * * * * * * * * * * * * * * * * * * * * * * * * * * * * * * * //
Create time

Create mesh for time = 0

Reading transportProperties

Reading field p

Reading field U

Reading/calculating face flux field phi


Starting time loop

Time = 0.001

Courant Number mean: 0 max: 0
DILUPBiCGStab:  Solving for Ux, Initial residual = 1, Final residual = 0.000272743, No Iterations 5
DILUPBiCGStab:  Solving for Uy:  solution singularity
DILUPBiCGStab:  Solving for Uz:  solution singularity
linear solve U 77120
[OGL LOG] init_host_sparsity_pattern : 46 ms
[OGL LOG] matrix not stored update host matrix
[OGL LOG] update_host_mtx : 24 ms
[OGL LOG] matrix is not yet sorted, compute sorting idxs
[OGL LOG] compute_sort : 1361 ms
[OGL LOG] matrix is not yet sorted, sorting host matrix
[OGL LOG] sort_host_mtx_sparsity_pattern : 32 ms
[OGL LOG] sort_host_mtx : 16 ms
[OGL LOG] init_preconditioner : 17 ms
[OGL LOG] solve : 211 ms
BJcudaGKOBiCGStab:  Solving for p, Initial residual = 1, Final residual = 8.93345e-05, No Iterations 295
linear solve p 2455986
time step continuity errors : sum local = 0.000103119, global = 8.51268e-20, cumulative = 8.51268e-20
[OGL LOG] init_host_sparsity_pattern : 45 ms
[OGL LOG] matrix not stored update host matrix
[OGL LOG] update_host_mtx : 24 ms
[OGL LOG] matrix is not yet sorted, sorting host matrix
[OGL LOG] sort_host_mtx_sparsity_pattern : 33 ms
[OGL LOG] sort_host_mtx : 16 ms
[OGL LOG] init_preconditioner : 0 ms
[OGL LOG] solve : 183 ms
BJcudaGKOBiCGStab:  Solving for p, Initial residual = 0.724822, Final residual = 8.04073e-05, No Iterations 261
linear solve p 314266
time step continuity errors : sum local = 6.40774e-05, global = -3.90694e-20, cumulative = 4.60574e-20
ExecutionTime = 3.55 s  ClockTime = 4 s

Time = 0.002

Courant Number mean: 0.0305382 max: 0.376341
DILUPBiCGStab:  Solving for Ux, Initial residual = 0.162284, Final residual = 6.90617e-05, No Iterations 5
DILUPBiCGStab:  Solving for Uy, Initial residual = 0.327572, Final residual = 0.000110095, No Iterations 5
DILUPBiCGStab:  Solving for Uz, Initial residual = 0.89749, Final residual = 0.000398647, No Iterations 5
linear solve U 144300
[OGL LOG] init_host_sparsity_pattern : 43 ms
[OGL LOG] matrix not stored update host matrix
[OGL LOG] update_host_mtx : 21 ms
[OGL LOG] matrix is not yet sorted, sorting host matrix
[OGL LOG] sort_host_mtx_sparsity_pattern : 34 ms
[OGL LOG] sort_host_mtx : 16 ms
[OGL LOG] init_preconditioner : 0 ms
[OGL LOG] solve : 178 ms
BJcudaGKOBiCGStab:  Solving for p, Initial residual = 0.674486, Final residual = 9.78274e-05, No Iterations 255
linear solve p 306447
time step continuity errors : sum local = 1.19652e-07, global = 3.65965e-21, cumulative = 4.97171e-20
[OGL LOG] init_host_sparsity_pattern : 43 ms
[OGL LOG] matrix not stored update host matrix
[OGL LOG] update_host_mtx : 21 ms
[OGL LOG] matrix is not yet sorted, sorting host matrix
[OGL LOG] sort_host_mtx_sparsity_pattern : 32 ms
[OGL LOG] sort_host_mtx : 16 ms
[OGL LOG] init_preconditioner : 0 ms
[OGL LOG] solve : 174 ms
BJcudaGKOBiCGStab:  Solving for p, Initial residual = 0.574792, Final residual = 7.88494e-05, No Iterations 249
linear solve p 298681
time step continuity errors : sum local = 9.16414e-08, global = 1.21113e-20, cumulative = 6.18284e-20
ExecutionTime = 4.39 s  ClockTime = 5 s

Time = 0.003

Courant Number mean: 0.04588 max: 0.46123
DILUPBiCGStab:  Solving for Ux, Initial residual = 0.0523717, Final residual = 2.20487e-05, No Iterations 5
DILUPBiCGStab:  Solving for Uy, Initial residual = 0.10012, Final residual = 3.09663e-05, No Iterations 5
DILUPBiCGStab:  Solving for Uz, Initial residual = 0.584192, Final residual = 0.000210002, No Iterations 5
linear solve U 146454
[OGL LOG] init_host_sparsity_pattern : 43 ms
[OGL LOG] matrix not stored update host matrix
[OGL LOG] update_host_mtx : 21 ms
[OGL LOG] matrix is not yet sorted, sorting host matrix
[OGL LOG] sort_host_mtx_sparsity_pattern : 30 ms
[OGL LOG] sort_host_mtx : 16 ms
[OGL LOG] init_preconditioner : 0 ms
[OGL LOG] solve : 76 ms
BJcudaGKOBiCGStab:  Solving for p, Initial residual = 0.527753, Final residual = 8.14316e-05, No Iterations 106
linear solve p 198424
time step continuity errors : sum local = 2.10342e-07, global = 3.86128e-21, cumulative = 6.56897e-20
[OGL LOG] init_host_sparsity_pattern : 43 ms
[OGL LOG] matrix not stored update host matrix
[OGL LOG] update_host_mtx : 21 ms
[OGL LOG] matrix is not yet sorted, sorting host matrix
[OGL LOG] sort_host_mtx_sparsity_pattern : 30 ms
[OGL LOG] sort_host_mtx : 16 ms
[OGL LOG] init_preconditioner : 0 ms
[OGL LOG] solve : 73 ms
BJcudaGKOBiCGStab:  Solving for p, Initial residual = 0.446034, Final residual = 5.18789e-05, No Iterations 102
linear solve p 196026
time step continuity errors : sum local = 7.89329e-07, global = 6.03304e-21, cumulative = 7.17227e-20
ExecutionTime = 5.02 s  ClockTime = 5 s

Time = 0.004

Courant Number mean: 0.054487 max: 0.479456
DILUPBiCGStab:  Solving for Ux, Initial residual = 0.0311657, Final residual = 6.41213e-06, No Iterations 5
DILUPBiCGStab:  Solving for Uy, Initial residual = 0.0648505, Final residual = 1.17233e-05, No Iterations 5
DILUPBiCGStab:  Solving for Uz, Initial residual = 0.370883, Final residual = 9.0752e-05, No Iterations 5
linear solve U 143446
[OGL LOG] init_host_sparsity_pattern : 47 ms
[OGL LOG] matrix not stored update host matrix
[OGL LOG] update_host_mtx : 23 ms
[OGL LOG] matrix is not yet sorted, sorting host matrix
[OGL LOG] sort_host_mtx_sparsity_pattern : 32 ms
[OGL LOG] sort_host_mtx : 16 ms
[OGL LOG] init_preconditioner : 0 ms
[OGL LOG] solve : 71 ms
BJcudaGKOBiCGStab:  Solving for p, Initial residual = 0.330201, Final residual = 9.96576e-05, No Iterations 99
linear solve p 203173
time step continuity errors : sum local = 1.79744e-07, global = -1.14907e-20, cumulative = 6.0232e-20
[OGL LOG] init_host_sparsity_pattern : 43 ms
[OGL LOG] matrix not stored update host matrix
[OGL LOG] update_host_mtx : 21 ms
[OGL LOG] matrix is not yet sorted, sorting host matrix
[OGL LOG] sort_host_mtx_sparsity_pattern : 30 ms
[OGL LOG] sort_host_mtx : 16 ms
[OGL LOG] init_preconditioner : 0 ms
[OGL LOG] solve : 71 ms
BJcudaGKOBiCGStab:  Solving for p, Initial residual = 0.258951, Final residual = 9.94393e-05, No Iterations 100
linear solve p 193915
time step continuity errors : sum local = 7.10968e-08, global = 3.54988e-21, cumulative = 6.37819e-20
ExecutionTime = 5.66 s  ClockTime = 6 s

Time = 0.005

Courant Number mean: 0.0609412 max: 0.489044
DILUPBiCGStab:  Solving for Ux, Initial residual = 0.0218544, Final residual = 5.45477e-06, No Iterations 5
DILUPBiCGStab:  Solving for Uy, Initial residual = 0.044311, Final residual = 7.48937e-06, No Iterations 5
DILUPBiCGStab:  Solving for Uz, Initial residual = 0.212747, Final residual = 4.23842e-05, No Iterations 5
linear solve U 143946
[OGL LOG] init_host_sparsity_pattern : 44 ms
[OGL LOG] matrix not stored update host matrix
[OGL LOG] update_host_mtx : 21 ms
[OGL LOG] matrix is not yet sorted, sorting host matrix
[OGL LOG] sort_host_mtx_sparsity_pattern : 30 ms
[OGL LOG] sort_host_mtx : 16 ms
[OGL LOG] init_preconditioner : 0 ms
[OGL LOG] solve : 68 ms
BJcudaGKOBiCGStab:  Solving for p, Initial residual = 0.209564, Final residual = 9.82415e-05, No Iterations 91
linear solve p 191731
time step continuity errors : sum local = 4.97613e-07, global = -2.04318e-20, cumulative = 4.33501e-20
[OGL LOG] init_host_sparsity_pattern : 43 ms
[OGL LOG] matrix not stored update host matrix
[OGL LOG] update_host_mtx : 21 ms
[OGL LOG] matrix is not yet sorted, sorting host matrix
[OGL LOG] sort_host_mtx_sparsity_pattern : 31 ms
[OGL LOG] sort_host_mtx : 16 ms
[OGL LOG] init_preconditioner : 0 ms
[OGL LOG] solve : 70 ms
BJcudaGKOBiCGStab:  Solving for p, Initial residual = 0.164859, Final residual = 7.06315e-05, No Iterations 97
linear solve p 193520
time step continuity errors : sum local = 2.02601e-07, global = -9.39377e-21, cumulative = 3.39564e-20
ExecutionTime = 6.28 s  ClockTime = 7 s

Time = 0.006

Courant Number mean: 0.0659401 max: 0.494863
DILUPBiCGStab:  Solving for Ux, Initial residual = 0.016649, Final residual = 3.19125e-06, No Iterations 5
DILUPBiCGStab:  Solving for Uy, Initial residual = 0.0338705, Final residual = 2.47424e-06, No Iterations 5
DILUPBiCGStab:  Solving for Uz, Initial residual = 0.135306, Final residual = 2.55888e-05, No Iterations 5
linear solve U 144239
[OGL LOG] init_host_sparsity_pattern : 43 ms
[OGL LOG] matrix not stored update host matrix
[OGL LOG] update_host_mtx : 21 ms
[OGL LOG] matrix is not yet sorted, sorting host matrix
[OGL LOG] sort_host_mtx_sparsity_pattern : 30 ms
[OGL LOG] sort_host_mtx : 16 ms
[OGL LOG] init_preconditioner : 0 ms
[OGL LOG] solve : 68 ms
BJcudaGKOBiCGStab:  Solving for p, Initial residual = 0.131284, Final residual = 9.95894e-05, No Iterations 96
linear solve p 191271
time step continuity errors : sum local = 6.78442e-08, global = 2.35993e-20, cumulative = 5.75557e-20
[OGL LOG] init_host_sparsity_pattern : 43 ms
[OGL LOG] matrix not stored update host matrix
[OGL LOG] update_host_mtx : 21 ms
[OGL LOG] matrix is not yet sorted, sorting host matrix
[OGL LOG] sort_host_mtx_sparsity_pattern : 30 ms
[OGL LOG] sort_host_mtx : 16 ms
[OGL LOG] init_preconditioner : 0 ms
[OGL LOG] solve : 68 ms
BJcudaGKOBiCGStab:  Solving for p, Initial residual = 0.102559, Final residual = 9.09751e-05, No Iterations 91
linear solve p 190530
time step continuity errors : sum local = 1.17955e-07, global = 1.31298e-20, cumulative = 7.06855e-20
ExecutionTime = 6.91 s  ClockTime = 7 s

Time = 0.007

Courant Number mean: 0.0700474 max: 0.498903
DILUPBiCGStab:  Solving for Ux, Initial residual = 0.0132205, Final residual = 1.9611e-06, No Iterations 5
DILUPBiCGStab:  Solving for Uy, Initial residual = 0.0271989, Final residual = 2.50041e-06, No Iterations 5
DILUPBiCGStab:  Solving for Uz, Initial residual = 0.0881821, Final residual = 1.35878e-05, No Iterations 5
linear solve U 143636
[OGL LOG] init_host_sparsity_pattern : 43 ms
[OGL LOG] matrix not stored update host matrix
[OGL LOG] update_host_mtx : 21 ms
[OGL LOG] matrix is not yet sorted, sorting host matrix
[OGL LOG] sort_host_mtx_sparsity_pattern : 30 ms
[OGL LOG] sort_host_mtx : 16 ms
[OGL LOG] init_preconditioner : 0 ms
[OGL LOG] solve : 70 ms
BJcudaGKOBiCGStab:  Solving for p, Initial residual = 0.0827688, Final residual = 6.43083e-05, No Iterations 97
linear solve p 192475
time step continuity errors : sum local = 4.07194e-07, global = -8.68457e-21, cumulative = 6.20009e-20
[OGL LOG] init_host_sparsity_pattern : 43 ms
[OGL LOG] matrix not stored update host matrix
[OGL LOG] update_host_mtx : 21 ms
[OGL LOG] matrix is not yet sorted, sorting host matrix
[OGL LOG] sort_host_mtx_sparsity_pattern : 30 ms
[OGL LOG] sort_host_mtx : 16 ms
[OGL LOG] init_preconditioner : 0 ms
[OGL LOG] solve : 66 ms
BJcudaGKOBiCGStab:  Solving for p, Initial residual = 0.065623, Final residual = 8.68574e-05, No Iterations 92
linear solve p 189413
time step continuity errors : sum local = 1.37411e-07, global = -1.42939e-20, cumulative = 4.7707e-20
ExecutionTime = 7.52 s  ClockTime = 8 s

Time = 0.008

Courant Number mean: 0.0734858 max: 0.501894
DILUPBiCGStab:  Solving for Ux, Initial residual = 0.0109138, Final residual = 1.47014e-06, No Iterations 5
DILUPBiCGStab:  Solving for Uy, Initial residual = 0.022399, Final residual = 1.26587e-06, No Iterations 5
DILUPBiCGStab:  Solving for Uz, Initial residual = 0.0618274, Final residual = 8.70046e-06, No Iterations 5
linear solve U 143638
[OGL LOG] init_host_sparsity_pattern : 45 ms
[OGL LOG] matrix not stored update host matrix
[OGL LOG] update_host_mtx : 22 ms
[OGL LOG] matrix is not yet sorted, sorting host matrix
[OGL LOG] sort_host_mtx_sparsity_pattern : 32 ms
[OGL LOG] sort_host_mtx : 16 ms
[OGL LOG] init_preconditioner : 0 ms
[OGL LOG] solve : 68 ms
BJcudaGKOBiCGStab:  Solving for p, Initial residual = 0.0532799, Final residual = 7.61178e-05, No Iterations 94
linear solve p 195918
time step continuity errors : sum local = 1.99967e-07, global = 3.96902e-21, cumulative = 5.1676e-20
[OGL LOG] init_host_sparsity_pattern : 43 ms
[OGL LOG] matrix not stored update host matrix
[OGL LOG] update_host_mtx : 21 ms
[OGL LOG] matrix is not yet sorted, sorting host matrix
[OGL LOG] sort_host_mtx_sparsity_pattern : 30 ms
[OGL LOG] sort_host_mtx : 16 ms
[OGL LOG] init_preconditioner : 0 ms
[OGL LOG] solve : 65 ms
BJcudaGKOBiCGStab:  Solving for p, Initial residual = 0.0426371, Final residual = 9.61773e-05, No Iterations 90
linear solve p 187354
time step continuity errors : sum local = 8.78113e-08, global = 3.83515e-21, cumulative = 5.55112e-20
ExecutionTime = 8.14 s  ClockTime = 8 s

Time = 0.009

Courant Number mean: 0.0764159 max: 0.504217
DILUPBiCGStab:  Solving for Ux, Initial residual = 0.00916215, Final residual = 6.57934e-07, No Iterations 5
DILUPBiCGStab:  Solving for Uy, Initial residual = 0.0190188, Final residual = 1.32228e-06, No Iterations 5
DILUPBiCGStab:  Solving for Uz, Initial residual = 0.0457893, Final residual = 4.70492e-06, No Iterations 5
linear solve U 143847
[OGL LOG] init_host_sparsity_pattern : 43 ms
[OGL LOG] matrix not stored update host matrix
[OGL LOG] update_host_mtx : 21 ms
[OGL LOG] matrix is not yet sorted, sorting host matrix
[OGL LOG] sort_host_mtx_sparsity_pattern : 30 ms
[OGL LOG] sort_host_mtx : 16 ms
[OGL LOG] init_preconditioner : 0 ms
[OGL LOG] solve : 66 ms
BJcudaGKOBiCGStab:  Solving for p, Initial residual = 0.0367587, Final residual = 5.16918e-05, No Iterations 89
linear solve p 188587
time step continuity errors : sum local = 4.68147e-07, global = -1.98513e-21, cumulative = 5.35261e-20
[OGL LOG] init_host_sparsity_pattern : 43 ms
[OGL LOG] matrix not stored update host matrix
[OGL LOG] update_host_mtx : 21 ms
[OGL LOG] matrix is not yet sorted, sorting host matrix
[OGL LOG] sort_host_mtx_sparsity_pattern : 30 ms
[OGL LOG] sort_host_mtx : 19 ms
[OGL LOG] init_preconditioner : 0 ms
[OGL LOG] solve : 68 ms
BJcudaGKOBiCGStab:  Solving for p, Initial residual = 0.0301611, Final residual = 9.67289e-05, No Iterations 93
linear solve p 194545
time step continuity errors : sum local = 1.18323e-07, global = -5.27891e-21, cumulative = 4.82471e-20
ExecutionTime = 8.76 s  ClockTime = 9 s

Time = 0.01

Courant Number mean: 0.0789754 max: 0.506075
DILUPBiCGStab:  Solving for Ux, Initial residual = 0.00787398, Final residual = 5.15399e-07, No Iterations 5
DILUPBiCGStab:  Solving for Uy, Initial residual = 0.016304, Final residual = 9.67662e-07, No Iterations 5
DILUPBiCGStab:  Solving for Uz, Initial residual = 0.036626, Final residual = 4.86304e-06, No Iterations 5
linear solve U 144281
[OGL LOG] init_host_sparsity_pattern : 43 ms
[OGL LOG] matrix not stored update host matrix
[OGL LOG] update_host_mtx : 21 ms
[OGL LOG] matrix is not yet sorted, sorting host matrix
[OGL LOG] sort_host_mtx_sparsity_pattern : 31 ms
[OGL LOG] sort_host_mtx : 16 ms
[OGL LOG] init_preconditioner : 0 ms
[OGL LOG] solve : 70 ms
BJcudaGKOBiCGStab:  Solving for p, Initial residual = 0.0256587, Final residual = 8.73084e-05, No Iterations 96
linear solve p 194507
time step continuity errors : sum local = 1.04065e-07, global = 8.88022e-21, cumulative = 5.71274e-20
[OGL LOG] init_host_sparsity_pattern : 43 ms
[OGL LOG] matrix not stored update host matrix
[OGL LOG] update_host_mtx : 21 ms
[OGL LOG] matrix is not yet sorted, sorting host matrix
[OGL LOG] sort_host_mtx_sparsity_pattern : 30 ms
[OGL LOG] sort_host_mtx : 16 ms
[OGL LOG] init_preconditioner : 0 ms
[OGL LOG] solve : 64 ms
BJcudaGKOBiCGStab:  Solving for p, Initial residual = 0.0215222, Final residual = 9.8805e-05, No Iterations 87
linear solve p 187165
time step continuity errors : sum local = 6.36415e-08, global = -2.77451e-21, cumulative = 5.43529e-20
ExecutionTime = 9.38 s  ClockTime = 10 s

End

