/*---------------------------------------------------------------------------*\
  =========                 |
  \\      /  F ield         | OpenFOAM: The Open Source CFD Toolbox
   \\    /   O peration     | Website:  https://openfoam.org
    \\  /    A nd           | Version:  8
     \\/     M anipulation  |
\*---------------------------------------------------------------------------*/
Build  : 8-ef60d22ea792
Exec   : icoFoam
Date   : Jul 29 2021
Time   : 04:11:51
Host   : "uc2n489.localdomain"
PID    : 3426227
I/O    : uncollated
Case   : /pfs/data5/home/kit/scc/nq7776/code/OBR/lidDrivenCavity3D/Variation_mesh/50/Variation_matrix_solver/BiCGStab_BJ_CUDA/base
nProcs : 1
sigFpe : Enabling floating point exception trapping (FOAM_SIGFPE).
fileModificationChecking : Monitoring run-time modified files using timeStampMaster (fileModificationSkew 10)
allowSystemOperations : Allowing user-supplied system call operations

// * * * * * * * * * * * * * * * * * * * * * * * * * * * * * * * * * * * * * //
Create time

Create mesh for time = 0

Reading transportProperties

Reading field p

Reading field U

Reading/calculating face flux field phi


Starting time loop

Time = 0.001

Courant Number mean: 0 max: 0
DILUPBiCGStab:  Solving for Ux, Initial residual = 1, Final residual = 0.000120903, No Iterations 5
DILUPBiCGStab:  Solving for Uy:  solution singularity
DILUPBiCGStab:  Solving for Uz:  solution singularity
linear solve U 56139
[OGL LOG] init_host_sparsity_pattern : 32 ms
[OGL LOG] matrix not stored update host matrix
[OGL LOG] update_host_mtx : 17 ms
[OGL LOG] matrix is not yet sorted, compute sorting idxs
[OGL LOG] compute_sort : 988 ms
[OGL LOG] matrix is not yet sorted, sorting host matrix
[OGL LOG] sort_host_mtx_sparsity_pattern : 24 ms
[OGL LOG] sort_host_mtx : 13 ms
[OGL LOG] init_preconditioner : 16 ms
[OGL LOG] solve : 95 ms
BJcudaGKOBiCGStab:  Solving for p, Initial residual = 1, Final residual = 6.23447e-05, No Iterations 251
linear solve p 1923047
time step continuity errors : sum local = 7.2146e-08, global = -1.60514e-21, cumulative = -1.60514e-21
[OGL LOG] init_host_sparsity_pattern : 33 ms
[OGL LOG] matrix not stored update host matrix
[OGL LOG] update_host_mtx : 18 ms
[OGL LOG] matrix is not yet sorted, sorting host matrix
[OGL LOG] sort_host_mtx_sparsity_pattern : 25 ms
[OGL LOG] sort_host_mtx : 12 ms
[OGL LOG] init_preconditioner : 0 ms
[OGL LOG] solve : 91 ms
BJcudaGKOBiCGStab:  Solving for p, Initial residual = 0.658216, Final residual = 9.1095e-05, No Iterations 245
linear solve p 190356
time step continuity errors : sum local = 1.49069e-07, global = 1.42578e-20, cumulative = 1.26527e-20
ExecutionTime = 2.66 s  ClockTime = 2 s

Time = 0.002

Courant Number mean: 0.0274936 max: 0.329481
DILUPBiCGStab:  Solving for Ux, Initial residual = 0.166966, Final residual = 2.7986e-05, No Iterations 5
DILUPBiCGStab:  Solving for Uy, Initial residual = 0.315443, Final residual = 4.21688e-05, No Iterations 5
DILUPBiCGStab:  Solving for Uz, Initial residual = 0.964234, Final residual = 0.000171752, No Iterations 5
linear solve U 103841
[OGL LOG] init_host_sparsity_pattern : 32 ms
[OGL LOG] matrix not stored update host matrix
[OGL LOG] update_host_mtx : 15 ms
[OGL LOG] matrix is not yet sorted, sorting host matrix
[OGL LOG] sort_host_mtx_sparsity_pattern : 23 ms
[OGL LOG] sort_host_mtx : 12 ms
[OGL LOG] init_preconditioner : 0 ms
[OGL LOG] solve : 56 ms
BJcudaGKOBiCGStab:  Solving for p, Initial residual = 0.543588, Final residual = 9.70265e-05, No Iterations 142
linear solve p 149674
time step continuity errors : sum local = 1.21082e-07, global = 9.35471e-21, cumulative = 2.20074e-20
[OGL LOG] init_host_sparsity_pattern : 32 ms
[OGL LOG] matrix not stored update host matrix
[OGL LOG] update_host_mtx : 15 ms
[OGL LOG] matrix is not yet sorted, sorting host matrix
[OGL LOG] sort_host_mtx_sparsity_pattern : 23 ms
[OGL LOG] sort_host_mtx : 12 ms
[OGL LOG] init_preconditioner : 0 ms
[OGL LOG] solve : 47 ms
BJcudaGKOBiCGStab:  Solving for p, Initial residual = 0.458258, Final residual = 8.82905e-05, No Iterations 125
linear solve p 140834
time step continuity errors : sum local = 1.3596e-07, global = -6.85849e-22, cumulative = 2.13215e-20
ExecutionTime = 3.12 s  ClockTime = 3 s

Time = 0.003

Courant Number mean: 0.041432 max: 0.409637
DILUPBiCGStab:  Solving for Ux, Initial residual = 0.0553809, Final residual = 8.54873e-06, No Iterations 5
DILUPBiCGStab:  Solving for Uy, Initial residual = 0.100228, Final residual = 9.96163e-06, No Iterations 5
DILUPBiCGStab:  Solving for Uz, Initial residual = 0.15521, Final residual = 2.21251e-05, No Iterations 5
linear solve U 103628
[OGL LOG] init_host_sparsity_pattern : 32 ms
[OGL LOG] matrix not stored update host matrix
[OGL LOG] update_host_mtx : 16 ms
[OGL LOG] matrix is not yet sorted, sorting host matrix
[OGL LOG] sort_host_mtx_sparsity_pattern : 22 ms
[OGL LOG] sort_host_mtx : 12 ms
[OGL LOG] init_preconditioner : 0 ms
[OGL LOG] solve : 93 ms
BJcudaGKOBiCGStab:  Solving for p, Initial residual = 0.310286, Final residual = 9.72094e-05, No Iterations 244
linear solve p 186105
time step continuity errors : sum local = 1.12885e-07, global = 1.30565e-20, cumulative = 3.4378e-20
[OGL LOG] init_host_sparsity_pattern : 33 ms
[OGL LOG] matrix not stored update host matrix
[OGL LOG] update_host_mtx : 16 ms
[OGL LOG] matrix is not yet sorted, sorting host matrix
[OGL LOG] sort_host_mtx_sparsity_pattern : 22 ms
[OGL LOG] sort_host_mtx : 12 ms
[OGL LOG] init_preconditioner : 0 ms
[OGL LOG] solve : 87 ms
BJcudaGKOBiCGStab:  Solving for p, Initial residual = 0.259304, Final residual = 8.3725e-05, No Iterations 233
linear solve p 180343
time step continuity errors : sum local = 8.39797e-08, global = 1.75506e-20, cumulative = 5.19286e-20
ExecutionTime = 3.66 s  ClockTime = 3 s

Time = 0.004

Courant Number mean: 0.0493939 max: 0.429157
DILUPBiCGStab:  Solving for Ux, Initial residual = 0.0328841, Final residual = 2.25245e-06, No Iterations 5
DILUPBiCGStab:  Solving for Uy, Initial residual = 0.0646689, Final residual = 4.65099e-06, No Iterations 5
DILUPBiCGStab:  Solving for Uz, Initial residual = 0.13847, Final residual = 2.07745e-05, No Iterations 5
linear solve U 103854
[OGL LOG] init_host_sparsity_pattern : 32 ms
[OGL LOG] matrix not stored update host matrix
[OGL LOG] update_host_mtx : 16 ms
[OGL LOG] matrix is not yet sorted, sorting host matrix
[OGL LOG] sort_host_mtx_sparsity_pattern : 23 ms
[OGL LOG] sort_host_mtx : 12 ms
[OGL LOG] init_preconditioner : 0 ms
[OGL LOG] solve : 78 ms
BJcudaGKOBiCGStab:  Solving for p, Initial residual = 0.14846, Final residual = 9.01879e-05, No Iterations 205
linear solve p 171452
time step continuity errors : sum local = 7.37623e-08, global = -3.1245e-21, cumulative = 4.88041e-20
[OGL LOG] init_host_sparsity_pattern : 33 ms
[OGL LOG] matrix not stored update host matrix
[OGL LOG] update_host_mtx : 17 ms
[OGL LOG] matrix is not yet sorted, sorting host matrix
[OGL LOG] sort_host_mtx_sparsity_pattern : 24 ms
[OGL LOG] sort_host_mtx : 12 ms
[OGL LOG] init_preconditioner : 0 ms
[OGL LOG] solve : 78 ms
BJcudaGKOBiCGStab:  Solving for p, Initial residual = 0.118435, Final residual = 9.82037e-05, No Iterations 209
linear solve p 173875
time step continuity errors : sum local = 1.0973e-07, global = -6.89909e-21, cumulative = 4.1905e-20
ExecutionTime = 4.18 s  ClockTime = 4 s

Time = 0.005

Courant Number mean: 0.0552661 max: 0.438885
DILUPBiCGStab:  Solving for Ux, Initial residual = 0.0231074, Final residual = 1.14676e-06, No Iterations 5
DILUPBiCGStab:  Solving for Uy, Initial residual = 0.0446471, Final residual = 2.68024e-06, No Iterations 5
DILUPBiCGStab:  Solving for Uz, Initial residual = 0.0898949, Final residual = 1.05235e-05, No Iterations 5
linear solve U 103370
[OGL LOG] init_host_sparsity_pattern : 32 ms
[OGL LOG] matrix not stored update host matrix
[OGL LOG] update_host_mtx : 15 ms
[OGL LOG] matrix is not yet sorted, sorting host matrix
[OGL LOG] sort_host_mtx_sparsity_pattern : 23 ms
[OGL LOG] sort_host_mtx : 13 ms
[OGL LOG] init_preconditioner : 0 ms
[OGL LOG] solve : 79 ms
BJcudaGKOBiCGStab:  Solving for p, Initial residual = 0.0753326, Final residual = 9.98902e-05, No Iterations 204
linear solve p 173495
time step continuity errors : sum local = 9.56404e-08, global = 1.11568e-20, cumulative = 5.30618e-20
[OGL LOG] init_host_sparsity_pattern : 32 ms
[OGL LOG] matrix not stored update host matrix
[OGL LOG] update_host_mtx : 15 ms
[OGL LOG] matrix is not yet sorted, sorting host matrix
[OGL LOG] sort_host_mtx_sparsity_pattern : 23 ms
[OGL LOG] sort_host_mtx : 12 ms
[OGL LOG] init_preconditioner : 0 ms
[OGL LOG] solve : 31 ms
BJcudaGKOBiCGStab:  Solving for p, Initial residual = 0.0620924, Final residual = 9.95119e-05, No Iterations 81
linear solve p 124932
time step continuity errors : sum local = 5.49633e-08, global = -3.31864e-20, cumulative = 1.98754e-20
ExecutionTime = 4.66 s  ClockTime = 4 s

Time = 0.006

Courant Number mean: 0.0598387 max: 0.444774
DILUPBiCGStab:  Solving for Ux, Initial residual = 0.0176526, Final residual = 7.77005e-07, No Iterations 5
DILUPBiCGStab:  Solving for Uy, Initial residual = 0.034009, Final residual = 1.23559e-06, No Iterations 5
DILUPBiCGStab:  Solving for Uz, Initial residual = 0.0681079, Final residual = 6.63317e-06, No Iterations 5
linear solve U 103447
[OGL LOG] init_host_sparsity_pattern : 32 ms
[OGL LOG] matrix not stored update host matrix
[OGL LOG] update_host_mtx : 15 ms
[OGL LOG] matrix is not yet sorted, sorting host matrix
[OGL LOG] sort_host_mtx_sparsity_pattern : 23 ms
[OGL LOG] sort_host_mtx : 12 ms
[OGL LOG] init_preconditioner : 0 ms
[OGL LOG] solve : 84 ms
BJcudaGKOBiCGStab:  Solving for p, Initial residual = 0.04764, Final residual = 8.95431e-05, No Iterations 226
linear solve p 177024
time step continuity errors : sum local = 4.94176e-08, global = 2.32662e-20, cumulative = 4.31417e-20
[OGL LOG] init_host_sparsity_pattern : 32 ms
[OGL LOG] matrix not stored update host matrix
[OGL LOG] update_host_mtx : 18 ms
[OGL LOG] matrix is not yet sorted, sorting host matrix
[OGL LOG] sort_host_mtx_sparsity_pattern : 23 ms
[OGL LOG] sort_host_mtx : 12 ms
[OGL LOG] init_preconditioner : 0 ms
[OGL LOG] solve : 69 ms
BJcudaGKOBiCGStab:  Solving for p, Initial residual = 0.0394024, Final residual = 8.60298e-05, No Iterations 186
linear solve p 165261
time step continuity errors : sum local = 7.15526e-08, global = 6.29907e-21, cumulative = 4.94408e-20
ExecutionTime = 5.17 s  ClockTime = 5 s

Time = 0.007

Courant Number mean: 0.0635828 max: 0.448842
DILUPBiCGStab:  Solving for Ux, Initial residual = 0.014044, Final residual = 7.03914e-07, No Iterations 5
DILUPBiCGStab:  Solving for Uy, Initial residual = 0.0273323, Final residual = 8.52742e-07, No Iterations 5
DILUPBiCGStab:  Solving for Uz, Initial residual = 0.0545357, Final residual = 4.48597e-06, No Iterations 5
linear solve U 103540
[OGL LOG] init_host_sparsity_pattern : 32 ms
[OGL LOG] matrix not stored update host matrix
[OGL LOG] update_host_mtx : 15 ms
[OGL LOG] matrix is not yet sorted, sorting host matrix
[OGL LOG] sort_host_mtx_sparsity_pattern : 22 ms
[OGL LOG] sort_host_mtx : 12 ms
[OGL LOG] init_preconditioner : 0 ms
[OGL LOG] solve : 80 ms
BJcudaGKOBiCGStab:  Solving for p, Initial residual = 0.0319843, Final residual = 9.71448e-05, No Iterations 213
linear solve p 172470
time step continuity errors : sum local = 6.63048e-08, global = -1.26512e-20, cumulative = 3.67896e-20
[OGL LOG] init_host_sparsity_pattern : 32 ms
[OGL LOG] matrix not stored update host matrix
[OGL LOG] update_host_mtx : 16 ms
[OGL LOG] matrix is not yet sorted, sorting host matrix
[OGL LOG] sort_host_mtx_sparsity_pattern : 23 ms
[OGL LOG] sort_host_mtx : 12 ms
[OGL LOG] init_preconditioner : 0 ms
[OGL LOG] solve : 32 ms
BJcudaGKOBiCGStab:  Solving for p, Initial residual = 0.0273866, Final residual = 9.5764e-05, No Iterations 77
linear solve p 124635
time step continuity errors : sum local = 7.0381e-08, global = 8.09229e-21, cumulative = 4.48819e-20
ExecutionTime = 5.64 s  ClockTime = 5 s

Time = 0.008

Courant Number mean: 0.066697 max: 0.451857
DILUPBiCGStab:  Solving for Ux, Initial residual = 0.0115947, Final residual = 6.48442e-07, No Iterations 5
DILUPBiCGStab:  Solving for Uy, Initial residual = 0.0225494, Final residual = 6.959e-07, No Iterations 5
DILUPBiCGStab:  Solving for Uz, Initial residual = 0.0457469, Final residual = 3.66046e-06, No Iterations 5
linear solve U 103447
[OGL LOG] init_host_sparsity_pattern : 33 ms
[OGL LOG] matrix not stored update host matrix
[OGL LOG] update_host_mtx : 17 ms
[OGL LOG] matrix is not yet sorted, sorting host matrix
[OGL LOG] sort_host_mtx_sparsity_pattern : 24 ms
[OGL LOG] sort_host_mtx : 12 ms
[OGL LOG] init_preconditioner : 0 ms
[OGL LOG] solve : 78 ms
BJcudaGKOBiCGStab:  Solving for p, Initial residual = 0.0232711, Final residual = 9.45419e-05, No Iterations 209
linear solve p 174145
time step continuity errors : sum local = 5.33698e-08, global = 1.35674e-20, cumulative = 5.84493e-20
[OGL LOG] init_host_sparsity_pattern : 32 ms
[OGL LOG] matrix not stored update host matrix
[OGL LOG] update_host_mtx : 15 ms
[OGL LOG] matrix is not yet sorted, sorting host matrix
[OGL LOG] sort_host_mtx_sparsity_pattern : 22 ms
[OGL LOG] sort_host_mtx : 12 ms
[OGL LOG] init_preconditioner : 0 ms
[OGL LOG] solve : 31 ms
BJcudaGKOBiCGStab:  Solving for p, Initial residual = 0.0202922, Final residual = 9.84643e-05, No Iterations 81
linear solve p 123994
time step continuity errors : sum local = 9.91468e-08, global = 7.76115e-22, cumulative = 5.92254e-20
ExecutionTime = 6.11 s  ClockTime = 6 s

Time = 0.009

Courant Number mean: 0.0693801 max: 0.454188
DILUPBiCGStab:  Solving for Ux, Initial residual = 0.00969814, Final residual = 4.3666e-07, No Iterations 5
DILUPBiCGStab:  Solving for Uy, Initial residual = 0.0192967, Final residual = 4.90872e-07, No Iterations 5
DILUPBiCGStab:  Solving for Uz, Initial residual = 0.0420541, Final residual = 4.32914e-06, No Iterations 5
linear solve U 103391
[OGL LOG] init_host_sparsity_pattern : 35 ms
[OGL LOG] matrix not stored update host matrix
[OGL LOG] update_host_mtx : 16 ms
[OGL LOG] matrix is not yet sorted, sorting host matrix
[OGL LOG] sort_host_mtx_sparsity_pattern : 23 ms
[OGL LOG] sort_host_mtx : 12 ms
[OGL LOG] init_preconditioner : 0 ms
[OGL LOG] solve : 65 ms
BJcudaGKOBiCGStab:  Solving for p, Initial residual = 0.0196881, Final residual = 9.98295e-05, No Iterations 174
linear solve p 161700
time step continuity errors : sum local = 7.18429e-08, global = -9.87001e-21, cumulative = 4.93554e-20
[OGL LOG] init_host_sparsity_pattern : 32 ms
[OGL LOG] matrix not stored update host matrix
[OGL LOG] update_host_mtx : 15 ms
[OGL LOG] matrix is not yet sorted, sorting host matrix
[OGL LOG] sort_host_mtx_sparsity_pattern : 23 ms
[OGL LOG] sort_host_mtx : 12 ms
[OGL LOG] init_preconditioner : 0 ms
[OGL LOG] solve : 33 ms
BJcudaGKOBiCGStab:  Solving for p, Initial residual = 0.017442, Final residual = 9.76147e-05, No Iterations 86
linear solve p 125586
time step continuity errors : sum local = 9.6575e-08, global = 6.09719e-21, cumulative = 5.54526e-20
ExecutionTime = 6.56 s  ClockTime = 6 s

Time = 0.01

Courant Number mean: 0.0717125 max: 0.456059
DILUPBiCGStab:  Solving for Ux, Initial residual = 0.00844523, Final residual = 2.03137e-07, No Iterations 5
DILUPBiCGStab:  Solving for Uy, Initial residual = 0.0163994, Final residual = 2.99962e-07, No Iterations 5
DILUPBiCGStab:  Solving for Uz, Initial residual = 0.0391733, Final residual = 4.3502e-06, No Iterations 5
linear solve U 104091
[OGL LOG] init_host_sparsity_pattern : 32 ms
[OGL LOG] matrix not stored update host matrix
[OGL LOG] update_host_mtx : 15 ms
[OGL LOG] matrix is not yet sorted, sorting host matrix
[OGL LOG] sort_host_mtx_sparsity_pattern : 23 ms
[OGL LOG] sort_host_mtx : 12 ms
[OGL LOG] init_preconditioner : 0 ms
[OGL LOG] solve : 76 ms
BJcudaGKOBiCGStab:  Solving for p, Initial residual = 0.0168069, Final residual = 9.03752e-05, No Iterations 205
linear solve p 169464
time step continuity errors : sum local = 5.23117e-08, global = -1.54364e-20, cumulative = 4.00161e-20
[OGL LOG] init_host_sparsity_pattern : 32 ms
[OGL LOG] matrix not stored update host matrix
[OGL LOG] update_host_mtx : 15 ms
[OGL LOG] matrix is not yet sorted, sorting host matrix
[OGL LOG] sort_host_mtx_sparsity_pattern : 25 ms
[OGL LOG] sort_host_mtx : 12 ms
[OGL LOG] init_preconditioner : 0 ms
[OGL LOG] solve : 77 ms
BJcudaGKOBiCGStab:  Solving for p, Initial residual = 0.0151014, Final residual = 9.33662e-05, No Iterations 206
linear solve p 173020
time step continuity errors : sum local = 5.22707e-08, global = -3.05002e-20, cumulative = 9.51593e-21
ExecutionTime = 7.08 s  ClockTime = 7 s

End

