/*---------------------------------------------------------------------------*\
  =========                 |
  \\      /  F ield         | OpenFOAM: The Open Source CFD Toolbox
   \\    /   O peration     | Website:  https://openfoam.org
    \\  /    A nd           | Version:  8
     \\/     M anipulation  |
\*---------------------------------------------------------------------------*/
Build  : 8-ef60d22ea792
Exec   : icoFoam
Date   : Jul 29 2021
Time   : 08:31:15
Host   : "nla-gpu2.ianm.kit.edu"
PID    : 1984443
I/O    : uncollated
Case   : /home/greole/code/OBR/lidDrivenCavity3D/Variation_mesh/70/Variation_matrix_solver/BiCGStab_NoPrecond_Serial/base
nProcs : 1
sigFpe : Enabling floating point exception trapping (FOAM_SIGFPE).
fileModificationChecking : Monitoring run-time modified files using timeStampMaster (fileModificationSkew 10)
allowSystemOperations : Allowing user-supplied system call operations

// * * * * * * * * * * * * * * * * * * * * * * * * * * * * * * * * * * * * * //
Create time

Create mesh for time = 0

Reading transportProperties

Reading field p

Reading field U

Reading/calculating face flux field phi


Starting time loop

Time = 0.001

Courant Number mean: 0 max: 0
DILUPBiCGStab:  Solving for Ux, Initial residual = 1, Final residual = 0.00143011, No Iterations 5
DILUPBiCGStab:  Solving for Uy:  solution singularity
DILUPBiCGStab:  Solving for Uz:  solution singularity
linear solve U 137418
nonePBiCGStab:  Solving for p, Initial residual = 1, Final residual = 2.55408e-05, No Iterations 447
linear solve p 3516416
time step continuity errors : sum local = 3.0043e-08, global = 2.44256e-21, cumulative = 2.44256e-21
nonePBiCGStab:  Solving for p, Initial residual = 0.72377, Final residual = 5.6588e-05, No Iterations 441
linear solve p 3497656
time step continuity errors : sum local = 8.39174e-08, global = -8.78375e-22, cumulative = 1.56419e-21
ExecutionTime = 8.81 s  ClockTime = 9 s

Time = 0.002

Courant Number mean: 0.0394025 max: 0.518352
DILUPBiCGStab:  Solving for Ux, Initial residual = 0.151223, Final residual = 0.000459644, No Iterations 5
DILUPBiCGStab:  Solving for Uy, Initial residual = 0.361856, Final residual = 0.000929249, No Iterations 5
DILUPBiCGStab:  Solving for Uz, Initial residual = 0.980259, Final residual = 0.0030319, No Iterations 5
linear solve U 265799
nonePBiCGStab:  Solving for p, Initial residual = 0.674473, Final residual = 9.96668e-05, No Iterations 212
linear solve p 1685807
time step continuity errors : sum local = 1.5565e-07, global = -5.07953e-21, cumulative = -3.51534e-21
nonePBiCGStab:  Solving for p, Initial residual = 0.602644, Final residual = 9.8691e-05, No Iterations 195
linear solve p 1533901
time step continuity errors : sum local = 1.0887e-07, global = 4.11109e-21, cumulative = 5.95751e-22
ExecutionTime = 12.43 s  ClockTime = 13 s

Time = 0.003

Courant Number mean: 0.0591401 max: 0.616284
DILUPBiCGStab:  Solving for Ux, Initial residual = 0.0519002, Final residual = 0.000107394, No Iterations 5
DILUPBiCGStab:  Solving for Uy, Initial residual = 0.119363, Final residual = 0.00022453, No Iterations 5
DILUPBiCGStab:  Solving for Uz, Initial residual = 0.518869, Final residual = 0.00155841, No Iterations 5
linear solve U 265190
nonePBiCGStab:  Solving for p, Initial residual = 0.610244, Final residual = 8.90823e-05, No Iterations 422
linear solve p 3347488
time step continuity errors : sum local = 7.89756e-08, global = 6.57647e-22, cumulative = 1.2534e-21
nonePBiCGStab:  Solving for p, Initial residual = 0.558282, Final residual = 9.39968e-05, No Iterations 193
linear solve p 1522028
time step continuity errors : sum local = 9.51698e-08, global = -1.92046e-21, cumulative = -6.67061e-22
ExecutionTime = 17.7 s  ClockTime = 18 s

Time = 0.004

Courant Number mean: 0.0696008 max: 0.629501
DILUPBiCGStab:  Solving for Ux, Initial residual = 0.0288986, Final residual = 5.83131e-05, No Iterations 5
DILUPBiCGStab:  Solving for Uy, Initial residual = 0.0790551, Final residual = 0.000132352, No Iterations 5
DILUPBiCGStab:  Solving for Uz, Initial residual = 0.285278, Final residual = 0.000749214, No Iterations 5
linear solve U 264351
nonePBiCGStab:  Solving for p, Initial residual = 0.38763, Final residual = 9.88195e-05, No Iterations 384
linear solve p 3045534
time step continuity errors : sum local = 5.30316e-08, global = -1.53151e-21, cumulative = -2.19857e-21
nonePBiCGStab:  Solving for p, Initial residual = 0.327001, Final residual = 9.29275e-05, No Iterations 414
linear solve p 3273468
time step continuity errors : sum local = 1.00798e-07, global = -8.96783e-21, cumulative = -1.11664e-20
ExecutionTime = 24.42 s  ClockTime = 25 s

Time = 0.005

Courant Number mean: 0.0778399 max: 0.639376
DILUPBiCGStab:  Solving for Ux, Initial residual = 0.0206062, Final residual = 3.14009e-05, No Iterations 5
DILUPBiCGStab:  Solving for Uy, Initial residual = 0.0463637, Final residual = 6.18694e-05, No Iterations 5
DILUPBiCGStab:  Solving for Uz, Initial residual = 0.123271, Final residual = 0.000340056, No Iterations 5
linear solve U 266507
nonePBiCGStab:  Solving for p, Initial residual = 0.292992, Final residual = 5.05113e-05, No Iterations 352
linear solve p 2817657
time step continuity errors : sum local = 3.83147e-08, global = -9.57049e-21, cumulative = -2.07369e-20
nonePBiCGStab:  Solving for p, Initial residual = 0.250417, Final residual = 9.72964e-05, No Iterations 371
linear solve p 2939973
time step continuity errors : sum local = 5.00596e-08, global = 7.80689e-21, cumulative = -1.293e-20
ExecutionTime = 30.58 s  ClockTime = 31 s

Time = 0.006

Courant Number mean: 0.0841422 max: 0.64509
DILUPBiCGStab:  Solving for Ux, Initial residual = 0.0150041, Final residual = 2.20161e-05, No Iterations 5
DILUPBiCGStab:  Solving for Uy, Initial residual = 0.0356369, Final residual = 3.79581e-05, No Iterations 5
DILUPBiCGStab:  Solving for Uz, Initial residual = 0.0980785, Final residual = 0.000233083, No Iterations 5
linear solve U 267233
nonePBiCGStab:  Solving for p, Initial residual = 0.180384, Final residual = 9.50555e-05, No Iterations 419
linear solve p 3343737
time step continuity errors : sum local = 5.44536e-08, global = 8.96749e-21, cumulative = -3.9625e-21
nonePBiCGStab:  Solving for p, Initial residual = 0.149429, Final residual = 8.17402e-05, No Iterations 393
linear solve p 3087676
time step continuity errors : sum local = 4.82681e-08, global = -8.16029e-21, cumulative = -1.21228e-20
ExecutionTime = 37.4 s  ClockTime = 38 s

Time = 0.007

Courant Number mean: 0.0893581 max: 0.648977
DILUPBiCGStab:  Solving for Ux, Initial residual = 0.0119135, Final residual = 1.23965e-05, No Iterations 5
DILUPBiCGStab:  Solving for Uy, Initial residual = 0.0275602, Final residual = 2.90967e-05, No Iterations 5
DILUPBiCGStab:  Solving for Uz, Initial residual = 0.0674173, Final residual = 0.000130633, No Iterations 5
linear solve U 265500
nonePBiCGStab:  Solving for p, Initial residual = 0.126892, Final residual = 9.91641e-05, No Iterations 383
linear solve p 3049728
time step continuity errors : sum local = 4.45095e-08, global = -1.38439e-20, cumulative = -2.59667e-20
nonePBiCGStab:  Solving for p, Initial residual = 0.106118, Final residual = 9.82169e-05, No Iterations 317
linear solve p 2526496
time step continuity errors : sum local = 8.17425e-08, global = -9.66094e-21, cumulative = -3.56277e-20
ExecutionTime = 43.37 s  ClockTime = 44 s

Time = 0.008

Courant Number mean: 0.0937082 max: 0.652024
DILUPBiCGStab:  Solving for Ux, Initial residual = 0.00981495, Final residual = 9.92186e-06, No Iterations 5
DILUPBiCGStab:  Solving for Uy, Initial residual = 0.0224372, Final residual = 1.64037e-05, No Iterations 5
DILUPBiCGStab:  Solving for Uz, Initial residual = 0.0585732, Final residual = 0.000130589, No Iterations 5
linear solve U 268267
nonePBiCGStab:  Solving for p, Initial residual = 0.0841508, Final residual = 9.14672e-05, No Iterations 329
linear solve p 2603875
time step continuity errors : sum local = 6.40779e-08, global = 8.95328e-21, cumulative = -2.66744e-20
nonePBiCGStab:  Solving for p, Initial residual = 0.069856, Final residual = 9.86447e-05, No Iterations 373
linear solve p 2970346
time step continuity errors : sum local = 5.45089e-08, global = 1.1513e-20, cumulative = -1.51614e-20
ExecutionTime = 49.35 s  ClockTime = 50 s

Time = 0.009

Courant Number mean: 0.0974506 max: 0.654265
DILUPBiCGStab:  Solving for Ux, Initial residual = 0.00814075, Final residual = 5.85002e-06, No Iterations 5
DILUPBiCGStab:  Solving for Uy, Initial residual = 0.0192976, Final residual = 1.53882e-05, No Iterations 5
DILUPBiCGStab:  Solving for Uz, Initial residual = 0.0545343, Final residual = 0.000123657, No Iterations 5
linear solve U 270667
nonePBiCGStab:  Solving for p, Initial residual = 0.0624458, Final residual = 9.43684e-05, No Iterations 344
linear solve p 2719215
time step continuity errors : sum local = 5.30634e-08, global = -1.7505e-20, cumulative = -3.26664e-20
nonePBiCGStab:  Solving for p, Initial residual = 0.0524239, Final residual = 6.56367e-05, No Iterations 318
linear solve p 2534466
time step continuity errors : sum local = 3.23875e-08, global = 4.76061e-21, cumulative = -2.79058e-20
ExecutionTime = 55 s  ClockTime = 56 s

Time = 0.01

Courant Number mean: 0.100693 max: 0.65616
DILUPBiCGStab:  Solving for Ux, Initial residual = 0.00704958, Final residual = 4.30766e-06, No Iterations 5
DILUPBiCGStab:  Solving for Uy, Initial residual = 0.0162632, Final residual = 8.38134e-06, No Iterations 5
DILUPBiCGStab:  Solving for Uz, Initial residual = 0.0439018, Final residual = 7.93067e-05, No Iterations 5
linear solve U 267705
nonePBiCGStab:  Solving for p, Initial residual = 0.0430497, Final residual = 8.88663e-05, No Iterations 384
linear solve p 3038873
time step continuity errors : sum local = 3.79562e-08, global = 6.74294e-21, cumulative = -2.11629e-20
nonePBiCGStab:  Solving for p, Initial residual = 0.0364582, Final residual = 9.98156e-05, No Iterations 311
linear solve p 2477651
time step continuity errors : sum local = 8.02611e-08, global = 1.69418e-20, cumulative = -4.22106e-21
ExecutionTime = 60.92 s  ClockTime = 62 s

End

