/*---------------------------------------------------------------------------*\
  =========                 |
  \\      /  F ield         | OpenFOAM: The Open Source CFD Toolbox
   \\    /   O peration     | Website:  https://openfoam.org
    \\  /    A nd           | Version:  8
     \\/     M anipulation  |
\*---------------------------------------------------------------------------*/
Build  : 8-ef60d22ea792
Exec   : icoFoam
Date   : Jul 29 2021
Time   : 07:48:26
Host   : "nla-gpu2.ianm.kit.edu"
PID    : 1964290
I/O    : uncollated
Case   : /home/greole/code/OBR/lidDrivenCavity3D/Variation_mesh/45/Variation_matrix_solver/CG_DIC_Serial/base
nProcs : 1
sigFpe : Enabling floating point exception trapping (FOAM_SIGFPE).
fileModificationChecking : Monitoring run-time modified files using timeStampMaster (fileModificationSkew 10)
allowSystemOperations : Allowing user-supplied system call operations

// * * * * * * * * * * * * * * * * * * * * * * * * * * * * * * * * * * * * * //
Create time

Create mesh for time = 0

Reading transportProperties

Reading field p

Reading field U

Reading/calculating face flux field phi


Starting time loop

Time = 0.001

Courant Number mean: 0 max: 0
DILUPBiCGStab:  Solving for Ux, Initial residual = 1, Final residual = 4.36896e-05, No Iterations 5
DILUPBiCGStab:  Solving for Uy:  solution singularity
DILUPBiCGStab:  Solving for Uz:  solution singularity
linear solve U 35088
DICPCG:  Solving for p, Initial residual = 1, Final residual = 8.53811e-05, No Iterations 112
linear solve p 188773
time step continuity errors : sum local = 4.89058e-08, global = 4.59594e-21, cumulative = 4.59594e-21
DICPCG:  Solving for p, Initial residual = 0.634895, Final residual = 6.89104e-05, No Iterations 111
linear solve p 192272
time step continuity errors : sum local = 5.69898e-08, global = 5.15441e-21, cumulative = 9.75036e-21
ExecutionTime = 0.9 s  ClockTime = 1 s

Time = 0.002

Courant Number mean: 0.024462 max: 0.283008
DILUPBiCGStab:  Solving for Ux, Initial residual = 0.172563, Final residual = 9.21352e-06, No Iterations 5
DILUPBiCGStab:  Solving for Uy, Initial residual = 0.303006, Final residual = 1.34753e-05, No Iterations 5
DILUPBiCGStab:  Solving for Uz, Initial residual = 0.966861, Final residual = 5.39023e-05, No Iterations 5
linear solve U 63640
DICPCG:  Solving for p, Initial residual = 0.502466, Final residual = 8.26387e-05, No Iterations 108
linear solve p 186063
time step continuity errors : sum local = 6.60162e-08, global = -6.77697e-22, cumulative = 9.07266e-21
DICPCG:  Solving for p, Initial residual = 0.411865, Final residual = 8.37066e-05, No Iterations 107
linear solve p 186245
time step continuity errors : sum local = 6.9357e-08, global = -1.84357e-20, cumulative = -9.36301e-21
ExecutionTime = 1.38 s  ClockTime = 2 s

Time = 0.003

Courant Number mean: 0.0369602 max: 0.358122
DILUPBiCGStab:  Solving for Ux, Initial residual = 0.0596418, Final residual = 3.42622e-06, No Iterations 5
DILUPBiCGStab:  Solving for Uy, Initial residual = 0.101744, Final residual = 2.38983e-06, No Iterations 5
DILUPBiCGStab:  Solving for Uz, Initial residual = 0.132055, Final residual = 6.30176e-06, No Iterations 5
linear solve U 63946
DICPCG:  Solving for p, Initial residual = 0.230497, Final residual = 8.01651e-05, No Iterations 101
linear solve p 169508
time step continuity errors : sum local = 4.86298e-08, global = -4.99236e-21, cumulative = -1.43554e-20
DICPCG:  Solving for p, Initial residual = 0.186025, Final residual = 9.8655e-05, No Iterations 100
linear solve p 168341
time step continuity errors : sum local = 5.9141e-08, global = 1.42072e-21, cumulative = -1.29346e-20
ExecutionTime = 1.82 s  ClockTime = 2 s

Time = 0.004

Courant Number mean: 0.0442727 max: 0.378744
DILUPBiCGStab:  Solving for Ux, Initial residual = 0.0352229, Final residual = 8.30015e-07, No Iterations 5
DILUPBiCGStab:  Solving for Uy, Initial residual = 0.064689, Final residual = 1.39495e-06, No Iterations 5
DILUPBiCGStab:  Solving for Uz, Initial residual = 0.109983, Final residual = 4.01917e-06, No Iterations 5
linear solve U 65599
DICPCG:  Solving for p, Initial residual = 0.110848, Final residual = 8.89705e-05, No Iterations 99
linear solve p 173183
time step continuity errors : sum local = 5.17932e-08, global = 1.47199e-21, cumulative = -1.14626e-20
DICPCG:  Solving for p, Initial residual = 0.0874156, Final residual = 7.1446e-05, No Iterations 99
linear solve p 171916
time step continuity errors : sum local = 4.21068e-08, global = 1.8985e-20, cumulative = 7.52237e-21
ExecutionTime = 2.26 s  ClockTime = 3 s

Time = 0.005

Courant Number mean: 0.0495667 max: 0.388679
DILUPBiCGStab:  Solving for Ux, Initial residual = 0.0246449, Final residual = 2.72463e-07, No Iterations 5
DILUPBiCGStab:  Solving for Uy, Initial residual = 0.0448035, Final residual = 7.79572e-07, No Iterations 5
DILUPBiCGStab:  Solving for Uz, Initial residual = 0.0752043, Final residual = 1.61489e-06, No Iterations 5
linear solve U 65110
DICPCG:  Solving for p, Initial residual = 0.05429, Final residual = 7.42955e-05, No Iterations 98
linear solve p 168821
time step continuity errors : sum local = 4.24789e-08, global = 1.5681e-20, cumulative = 2.32034e-20
DICPCG:  Solving for p, Initial residual = 0.0446739, Final residual = 8.91616e-05, No Iterations 97
linear solve p 169024
time step continuity errors : sum local = 5.10866e-08, global = -1.75159e-20, cumulative = 5.68756e-21
ExecutionTime = 2.7 s  ClockTime = 3 s

Time = 0.006

Courant Number mean: 0.0537211 max: 0.394649
DILUPBiCGStab:  Solving for Ux, Initial residual = 0.018707, Final residual = 1.48291e-07, No Iterations 5
DILUPBiCGStab:  Solving for Uy, Initial residual = 0.0343187, Final residual = 3.03039e-07, No Iterations 5
DILUPBiCGStab:  Solving for Uz, Initial residual = 0.0587177, Final residual = 9.54553e-07, No Iterations 5
linear solve U 63688
DICPCG:  Solving for p, Initial residual = 0.0352091, Final residual = 9.72066e-05, No Iterations 46
linear solve p 78669
time step continuity errors : sum local = 6.87331e-08, global = 1.00281e-21, cumulative = 6.69037e-21
DICPCG:  Solving for p, Initial residual = 0.0292096, Final residual = 9.51967e-05, No Iterations 44
linear solve p 78726
time step continuity errors : sum local = 5.88475e-08, global = -2.53288e-20, cumulative = -1.86384e-20
ExecutionTime = 2.97 s  ClockTime = 3 s

Time = 0.007

Courant Number mean: 0.0570782 max: 0.398759
DILUPBiCGStab:  Solving for Ux, Initial residual = 0.014896, Final residual = 9.72279e-08, No Iterations 5
DILUPBiCGStab:  Solving for Uy, Initial residual = 0.0274935, Final residual = 2.15856e-07, No Iterations 5
DILUPBiCGStab:  Solving for Uz, Initial residual = 0.0485656, Final residual = 5.82683e-07, No Iterations 5
linear solve U 63212
DICPCG:  Solving for p, Initial residual = 0.02597, Final residual = 8.89016e-05, No Iterations 44
linear solve p 77266
time step continuity errors : sum local = 5.74526e-08, global = -5.36379e-23, cumulative = -1.86921e-20
DICPCG:  Solving for p, Initial residual = 0.0221839, Final residual = 8.91006e-05, No Iterations 43
linear solve p 73439
time step continuity errors : sum local = 5.46322e-08, global = 2.35497e-20, cumulative = 4.85766e-21
ExecutionTime = 3.22 s  ClockTime = 4 s

Time = 0.008

Courant Number mean: 0.0599096 max: 0.401788
DILUPBiCGStab:  Solving for Ux, Initial residual = 0.0122585, Final residual = 7.94283e-08, No Iterations 5
DILUPBiCGStab:  Solving for Uy, Initial residual = 0.0227551, Final residual = 1.1147e-07, No Iterations 5
DILUPBiCGStab:  Solving for Uz, Initial residual = 0.0408144, Final residual = 4.00047e-07, No Iterations 5
linear solve U 65108
DICPCG:  Solving for p, Initial residual = 0.0196021, Final residual = 9.43151e-05, No Iterations 43
linear solve p 79258
time step continuity errors : sum local = 6.4162e-08, global = -1.78309e-20, cumulative = -1.29733e-20
DICPCG:  Solving for p, Initial residual = 0.0169918, Final residual = 8.93461e-05, No Iterations 42
linear solve p 72003
time step continuity errors : sum local = 5.65792e-08, global = 2.1212e-20, cumulative = 8.2387e-21
ExecutionTime = 3.47 s  ClockTime = 4 s

Time = 0.009

Courant Number mean: 0.0623368 max: 0.404135
DILUPBiCGStab:  Solving for Ux, Initial residual = 0.0103062, Final residual = 6.63759e-08, No Iterations 5
DILUPBiCGStab:  Solving for Uy, Initial residual = 0.0192506, Final residual = 9.07988e-08, No Iterations 5
DILUPBiCGStab:  Solving for Uz, Initial residual = 0.035152, Final residual = 2.99625e-07, No Iterations 5
linear solve U 66924
DICPCG:  Solving for p, Initial residual = 0.0164117, Final residual = 9.22871e-05, No Iterations 42
linear solve p 76060
time step continuity errors : sum local = 6.06627e-08, global = 4.24875e-21, cumulative = 1.24875e-20
DICPCG:  Solving for p, Initial residual = 0.0143615, Final residual = 9.80157e-05, No Iterations 41
linear solve p 75531
time step continuity errors : sum local = 6.16369e-08, global = 3.51079e-21, cumulative = 1.59982e-20
ExecutionTime = 3.72 s  ClockTime = 4 s

Time = 0.01

Courant Number mean: 0.0644326 max: 0.406011
DILUPBiCGStab:  Solving for Ux, Initial residual = 0.0088167, Final residual = 6.10169e-08, No Iterations 5
DILUPBiCGStab:  Solving for Uy, Initial residual = 0.0165582, Final residual = 6.42945e-08, No Iterations 5
DILUPBiCGStab:  Solving for Uz, Initial residual = 0.0306536, Final residual = 2.26708e-07, No Iterations 5
linear solve U 65060
DICPCG:  Solving for p, Initial residual = 0.0138193, Final residual = 8.44154e-05, No Iterations 42
linear solve p 73873
time step continuity errors : sum local = 5.76786e-08, global = -8.2437e-21, cumulative = 7.75455e-21
DICPCG:  Solving for p, Initial residual = 0.0121266, Final residual = 8.59665e-05, No Iterations 41
linear solve p 73600
time step continuity errors : sum local = 5.56699e-08, global = 5.65939e-21, cumulative = 1.34139e-20
ExecutionTime = 3.98 s  ClockTime = 4 s

End

