/*---------------------------------------------------------------------------*\
  =========                 |
  \\      /  F ield         | OpenFOAM: The Open Source CFD Toolbox
   \\    /   O peration     | Website:  https://openfoam.org
    \\  /    A nd           | Version:  8
     \\/     M anipulation  |
\*---------------------------------------------------------------------------*/
Build  : 8-14d69e1ee166
Exec   : icoFoam
Date   : Jul 29 2021
Time   : 06:19:42
Host   : "guyot.icl.utk.edu"
PID    : 131559
I/O    : uncollated
Case   : /home/greole/code/OBR/lidDrivenCavity3D/Variation_mesh/80/Variation_matrix_solver/CG_BJ_CUDA/base
nProcs : 1
sigFpe : Enabling floating point exception trapping (FOAM_SIGFPE).
fileModificationChecking : Monitoring run-time modified files using timeStampMaster (fileModificationSkew 10)
allowSystemOperations : Allowing user-supplied system call operations

// * * * * * * * * * * * * * * * * * * * * * * * * * * * * * * * * * * * * * //
Create time

Create mesh for time = 0

Reading transportProperties

Reading field p

Reading field U

Reading/calculating face flux field phi


Starting time loop

Time = 0.001

Courant Number mean: 0 max: 0
DILUPBiCGStab:  Solving for Ux, Initial residual = 1, Final residual = 0.00289442, No Iterations 5
DILUPBiCGStab:  Solving for Uy:  solution singularity
DILUPBiCGStab:  Solving for Uz:  solution singularity
linear solve U 198768
[OGL LOG] init_host_sparsity_pattern : 230 ms
[OGL LOG] matrix not stored update host matrix
[OGL LOG] update_host_mtx : 113 ms
[OGL LOG] matrix is not yet sorted, compute sorting idxs
[OGL LOG] compute_sort : 5348 ms
[OGL LOG] matrix is not yet sorted, sorting host matrix
[OGL LOG] sort_host_mtx_sparsity_pattern : 94 ms
[OGL LOG] sort_host_mtx : 57 ms
[OGL LOG] init_preconditioner : 78 ms
 CG create  precond 
[OGL LOG] solve : 577 ms
BJcudaGKOCG:  Solving for p, Initial residual = 1, Final residual = 9.27925e-05, No Iterations 510
linear solve p 8233400
time step continuity errors : sum local = 5.44213e-08, global = 1.92749e-20, cumulative = 1.92749e-20
[OGL LOG] init_host_sparsity_pattern : 224 ms
[OGL LOG] matrix not stored update host matrix
[OGL LOG] update_host_mtx : 112 ms
[OGL LOG] matrix is not yet sorted, sorting host matrix
[OGL LOG] sort_host_mtx_sparsity_pattern : 98 ms
[OGL LOG] sort_host_mtx : 57 ms
[OGL LOG] init_preconditioner : 0 ms
 CG create  precond 
[OGL LOG] solve : 557 ms
BJcudaGKOCG:  Solving for p, Initial residual = 0.745901, Final residual = 9.75793e-05, No Iterations 504
linear solve p 1081564
time step continuity errors : sum local = 7.44631e-08, global = 3.69388e-21, cumulative = 2.29688e-20
ExecutionTime = 11.74 s  ClockTime = 12 s

Time = 0.002

Courant Number mean: 0.0451638 max: 0.613749
DILUPBiCGStab:  Solving for Ux, Initial residual = 0.146312, Final residual = 0.00105951, No Iterations 5
DILUPBiCGStab:  Solving for Uy, Initial residual = 0.385217, Final residual = 0.00246578, No Iterations 5
DILUPBiCGStab:  Solving for Uz, Initial residual = 0.98734, Final residual = 0.00713065, No Iterations 5
linear solve U 389215
[OGL LOG] init_host_sparsity_pattern : 222 ms
[OGL LOG] matrix not stored update host matrix
[OGL LOG] update_host_mtx : 112 ms
[OGL LOG] matrix is not yet sorted, sorting host matrix
[OGL LOG] sort_host_mtx_sparsity_pattern : 100 ms
[OGL LOG] sort_host_mtx : 59 ms
[OGL LOG] init_preconditioner : 0 ms
 CG create  precond 
[OGL LOG] solve : 556 ms
BJcudaGKOCG:  Solving for p, Initial residual = 0.724076, Final residual = 9.49293e-05, No Iterations 504
linear solve p 1085405
time step continuity errors : sum local = 8.56792e-08, global = 1.55294e-21, cumulative = 2.45218e-20
[OGL LOG] init_host_sparsity_pattern : 223 ms
[OGL LOG] matrix not stored update host matrix
[OGL LOG] update_host_mtx : 112 ms
[OGL LOG] matrix is not yet sorted, sorting host matrix
[OGL LOG] sort_host_mtx_sparsity_pattern : 107 ms
[OGL LOG] sort_host_mtx : 57 ms
[OGL LOG] init_preconditioner : 0 ms
 CG create  precond 
[OGL LOG] solve : 554 ms
BJcudaGKOCG:  Solving for p, Initial residual = 0.656925, Final residual = 8.89316e-05, No Iterations 502
linear solve p 1088045
time step continuity errors : sum local = 8.19541e-08, global = -2.49218e-21, cumulative = 2.20296e-20
ExecutionTime = 14.54 s  ClockTime = 15 s

Time = 0.003

Courant Number mean: 0.067925 max: 0.721701
DILUPBiCGStab:  Solving for Ux, Initial residual = 0.0559034, Final residual = 0.000353253, No Iterations 5
DILUPBiCGStab:  Solving for Uy, Initial residual = 0.144794, Final residual = 0.000952012, No Iterations 5
DILUPBiCGStab:  Solving for Uz, Initial residual = 0.686692, Final residual = 0.0045619, No Iterations 5
linear solve U 391639
[OGL LOG] init_host_sparsity_pattern : 222 ms
[OGL LOG] matrix not stored update host matrix
[OGL LOG] update_host_mtx : 112 ms
[OGL LOG] matrix is not yet sorted, sorting host matrix
[OGL LOG] sort_host_mtx_sparsity_pattern : 95 ms
[OGL LOG] sort_host_mtx : 58 ms
[OGL LOG] init_preconditioner : 0 ms
 CG create  precond 
[OGL LOG] solve : 342 ms
BJcudaGKOCG:  Solving for p, Initial residual = 0.705431, Final residual = 9.68636e-05, No Iterations 307
linear solve p 863020
time step continuity errors : sum local = 7.86807e-08, global = -2.05276e-21, cumulative = 1.99768e-20
[OGL LOG] init_host_sparsity_pattern : 223 ms
[OGL LOG] matrix not stored update host matrix
[OGL LOG] update_host_mtx : 112 ms
[OGL LOG] matrix is not yet sorted, sorting host matrix
[OGL LOG] sort_host_mtx_sparsity_pattern : 101 ms
[OGL LOG] sort_host_mtx : 60 ms
[OGL LOG] init_preconditioner : 0 ms
 CG create  precond 
[OGL LOG] solve : 304 ms
BJcudaGKOCG:  Solving for p, Initial residual = 0.663716, Final residual = 9.61909e-05, No Iterations 273
linear solve p 834829
time step continuity errors : sum local = 6.8863e-08, global = -7.94041e-21, cumulative = 1.20364e-20
ExecutionTime = 16.87 s  ClockTime = 17 s

Time = 0.004

Courant Number mean: 0.0793948 max: 0.72887
DILUPBiCGStab:  Solving for Ux, Initial residual = 0.0295962, Final residual = 0.000182216, No Iterations 5
DILUPBiCGStab:  Solving for Uy, Initial residual = 0.100121, Final residual = 0.000584196, No Iterations 5
DILUPBiCGStab:  Solving for Uz, Initial residual = 0.391459, Final residual = 0.00215888, No Iterations 5
linear solve U 391081
[OGL LOG] init_host_sparsity_pattern : 222 ms
[OGL LOG] matrix not stored update host matrix
[OGL LOG] update_host_mtx : 112 ms
[OGL LOG] matrix is not yet sorted, sorting host matrix
[OGL LOG] sort_host_mtx_sparsity_pattern : 95 ms
[OGL LOG] sort_host_mtx : 61 ms
[OGL LOG] init_preconditioner : 0 ms
 CG create  precond 
[OGL LOG] solve : 302 ms
BJcudaGKOCG:  Solving for p, Initial residual = 0.527048, Final residual = 9.78016e-05, No Iterations 273
linear solve p 826613
time step continuity errors : sum local = 6.03077e-08, global = -7.55707e-23, cumulative = 1.19609e-20
[OGL LOG] init_host_sparsity_pattern : 223 ms
[OGL LOG] matrix not stored update host matrix
[OGL LOG] update_host_mtx : 112 ms
[OGL LOG] matrix is not yet sorted, sorting host matrix
[OGL LOG] sort_host_mtx_sparsity_pattern : 96 ms
[OGL LOG] sort_host_mtx : 60 ms
[OGL LOG] init_preconditioner : 0 ms
 CG create  precond 
[OGL LOG] solve : 297 ms
BJcudaGKOCG:  Solving for p, Initial residual = 0.463296, Final residual = 9.85932e-05, No Iterations 267
linear solve p 821840
time step continuity errors : sum local = 6.04988e-08, global = -2.59769e-20, cumulative = -1.4016e-20
ExecutionTime = 19.15 s  ClockTime = 20 s

Time = 0.005

Courant Number mean: 0.0889341 max: 0.739433
DILUPBiCGStab:  Solving for Ux, Initial residual = 0.0218898, Final residual = 0.000116422, No Iterations 5
DILUPBiCGStab:  Solving for Uy, Initial residual = 0.0522758, Final residual = 0.000204367, No Iterations 5
DILUPBiCGStab:  Solving for Uz, Initial residual = 0.183532, Final residual = 0.00115462, No Iterations 5
linear solve U 386945
[OGL LOG] init_host_sparsity_pattern : 222 ms
[OGL LOG] matrix not stored update host matrix
[OGL LOG] update_host_mtx : 112 ms
[OGL LOG] matrix is not yet sorted, sorting host matrix
[OGL LOG] sort_host_mtx_sparsity_pattern : 108 ms
[OGL LOG] sort_host_mtx : 59 ms
[OGL LOG] init_preconditioner : 0 ms
 CG create  precond 
[OGL LOG] solve : 525 ms
BJcudaGKOCG:  Solving for p, Initial residual = 0.462196, Final residual = 9.47681e-05, No Iterations 476
linear solve p 1061809
time step continuity errors : sum local = 4.45761e-08, global = 1.60096e-21, cumulative = -1.24151e-20
[OGL LOG] init_host_sparsity_pattern : 223 ms
[OGL LOG] matrix not stored update host matrix
[OGL LOG] update_host_mtx : 112 ms
[OGL LOG] matrix is not yet sorted, sorting host matrix
[OGL LOG] sort_host_mtx_sparsity_pattern : 101 ms
[OGL LOG] sort_host_mtx : 57 ms
[OGL LOG] init_preconditioner : 0 ms
 CG create  precond 
[OGL LOG] solve : 528 ms
BJcudaGKOCG:  Solving for p, Initial residual = 0.409613, Final residual = 9.99e-05, No Iterations 479
linear solve p 1056568
time step continuity errors : sum local = 4.65165e-08, global = -1.86869e-20, cumulative = -3.1102e-20
ExecutionTime = 21.9 s  ClockTime = 22 s

Time = 0.006

Courant Number mean: 0.0960653 max: 0.745156
DILUPBiCGStab:  Solving for Ux, Initial residual = 0.0146608, Final residual = 6.8796e-05, No Iterations 5
DILUPBiCGStab:  Solving for Uy, Initial residual = 0.0417258, Final residual = 0.000169416, No Iterations 5
DILUPBiCGStab:  Solving for Uz, Initial residual = 0.139544, Final residual = 0.000811398, No Iterations 5
linear solve U 394643
[OGL LOG] init_host_sparsity_pattern : 222 ms
[OGL LOG] matrix not stored update host matrix
[OGL LOG] update_host_mtx : 112 ms
[OGL LOG] matrix is not yet sorted, sorting host matrix
[OGL LOG] sort_host_mtx_sparsity_pattern : 100 ms
[OGL LOG] sort_host_mtx : 57 ms
[OGL LOG] init_preconditioner : 0 ms
 CG create  precond 
[OGL LOG] solve : 261 ms
BJcudaGKOCG:  Solving for p, Initial residual = 0.316922, Final residual = 9.18226e-05, No Iterations 237
linear solve p 786798
time step continuity errors : sum local = 4.5119e-08, global = 1.55874e-20, cumulative = -1.55146e-20
[OGL LOG] init_host_sparsity_pattern : 223 ms
[OGL LOG] matrix not stored update host matrix
[OGL LOG] update_host_mtx : 112 ms
[OGL LOG] matrix is not yet sorted, sorting host matrix
[OGL LOG] sort_host_mtx_sparsity_pattern : 102 ms
[OGL LOG] sort_host_mtx : 60 ms
[OGL LOG] init_preconditioner : 0 ms
 CG create  precond 
[OGL LOG] solve : 262 ms
BJcudaGKOCG:  Solving for p, Initial residual = 0.27232, Final residual = 9.4947e-05, No Iterations 235
linear solve p 792838
time step continuity errors : sum local = 4.36156e-08, global = -1.10212e-20, cumulative = -2.65358e-20
ExecutionTime = 24.12 s  ClockTime = 25 s

Time = 0.007

Courant Number mean: 0.102039 max: 0.748857
DILUPBiCGStab:  Solving for Ux, Initial residual = 0.0119922, Final residual = 4.82789e-05, No Iterations 5
DILUPBiCGStab:  Solving for Uy, Initial residual = 0.0290042, Final residual = 7.92702e-05, No Iterations 5
DILUPBiCGStab:  Solving for Uz, Initial residual = 0.0731901, Final residual = 0.000391795, No Iterations 5
linear solve U 388299
[OGL LOG] init_host_sparsity_pattern : 222 ms
[OGL LOG] matrix not stored update host matrix
[OGL LOG] update_host_mtx : 112 ms
[OGL LOG] matrix is not yet sorted, sorting host matrix
[OGL LOG] sort_host_mtx_sparsity_pattern : 95 ms
[OGL LOG] sort_host_mtx : 59 ms
[OGL LOG] init_preconditioner : 0 ms
 CG create  precond 
[OGL LOG] solve : 252 ms
BJcudaGKOCG:  Solving for p, Initial residual = 0.254711, Final residual = 9.83406e-05, No Iterations 227
linear solve p 774425
time step continuity errors : sum local = 4.12537e-08, global = 1.5005e-20, cumulative = -1.15307e-20
[OGL LOG] init_host_sparsity_pattern : 223 ms
[OGL LOG] matrix not stored update host matrix
[OGL LOG] update_host_mtx : 112 ms
[OGL LOG] matrix is not yet sorted, sorting host matrix
[OGL LOG] sort_host_mtx_sparsity_pattern : 95 ms
[OGL LOG] sort_host_mtx : 59 ms
[OGL LOG] init_preconditioner : 0 ms
 CG create  precond 
[OGL LOG] solve : 250 ms
BJcudaGKOCG:  Solving for p, Initial residual = 0.218241, Final residual = 9.41132e-05, No Iterations 225
linear solve p 773719
time step continuity errors : sum local = 3.81922e-08, global = -1.10618e-20, cumulative = -2.25926e-20
ExecutionTime = 26.29 s  ClockTime = 27 s

Time = 0.008

Courant Number mean: 0.10702 max: 0.752043
DILUPBiCGStab:  Solving for Ux, Initial residual = 0.00935191, Final residual = 3.41138e-05, No Iterations 5
DILUPBiCGStab:  Solving for Uy, Initial residual = 0.0242799, Final residual = 6.39914e-05, No Iterations 5
DILUPBiCGStab:  Solving for Uz, Initial residual = 0.0622493, Final residual = 0.000327822, No Iterations 5
linear solve U 387684
[OGL LOG] init_host_sparsity_pattern : 222 ms
[OGL LOG] matrix not stored update host matrix
[OGL LOG] update_host_mtx : 112 ms
[OGL LOG] matrix is not yet sorted, sorting host matrix
[OGL LOG] sort_host_mtx_sparsity_pattern : 95 ms
[OGL LOG] sort_host_mtx : 58 ms
[OGL LOG] init_preconditioner : 0 ms
 CG create  precond 
[OGL LOG] solve : 246 ms
BJcudaGKOCG:  Solving for p, Initial residual = 0.177894, Final residual = 9.89764e-05, No Iterations 223
linear solve p 766983
time step continuity errors : sum local = 4.17107e-08, global = 2.82504e-21, cumulative = -1.97676e-20
[OGL LOG] init_host_sparsity_pattern : 223 ms
[OGL LOG] matrix not stored update host matrix
[OGL LOG] update_host_mtx : 112 ms
[OGL LOG] matrix is not yet sorted, sorting host matrix
[OGL LOG] sort_host_mtx_sparsity_pattern : 108 ms
[OGL LOG] sort_host_mtx : 62 ms
[OGL LOG] init_preconditioner : 0 ms
 CG create  precond 
[OGL LOG] solve : 245 ms
BJcudaGKOCG:  Solving for p, Initial residual = 0.149919, Final residual = 9.91144e-05, No Iterations 221
linear solve p 784252
time step continuity errors : sum local = 3.96505e-08, global = 5.80126e-22, cumulative = -1.91874e-20
ExecutionTime = 28.47 s  ClockTime = 29 s

Time = 0.009

Courant Number mean: 0.111296 max: 0.754177
DILUPBiCGStab:  Solving for Ux, Initial residual = 0.00786648, Final residual = 2.30947e-05, No Iterations 5
DILUPBiCGStab:  Solving for Uy, Initial residual = 0.0194069, Final residual = 4.04883e-05, No Iterations 5
DILUPBiCGStab:  Solving for Uz, Initial residual = 0.0413691, Final residual = 0.000135572, No Iterations 5
linear solve U 390443
[OGL LOG] init_host_sparsity_pattern : 222 ms
[OGL LOG] matrix not stored update host matrix
[OGL LOG] update_host_mtx : 112 ms
[OGL LOG] matrix is not yet sorted, sorting host matrix
[OGL LOG] sort_host_mtx_sparsity_pattern : 99 ms
[OGL LOG] sort_host_mtx : 57 ms
[OGL LOG] init_preconditioner : 0 ms
 CG create  precond 
[OGL LOG] solve : 240 ms
BJcudaGKOCG:  Solving for p, Initial residual = 0.137553, Final residual = 9.93996e-05, No Iterations 216
linear solve p 767070
time step continuity errors : sum local = 3.8566e-08, global = -1.79708e-20, cumulative = -3.71582e-20
[OGL LOG] init_host_sparsity_pattern : 223 ms
[OGL LOG] matrix not stored update host matrix
[OGL LOG] update_host_mtx : 112 ms
[OGL LOG] matrix is not yet sorted, sorting host matrix
[OGL LOG] sort_host_mtx_sparsity_pattern : 98 ms
[OGL LOG] sort_host_mtx : 57 ms
[OGL LOG] init_preconditioner : 0 ms
 CG create  precond 
[OGL LOG] solve : 237 ms
BJcudaGKOCG:  Solving for p, Initial residual = 0.11608, Final residual = 9.73125e-05, No Iterations 214
linear solve p 761335
time step continuity errors : sum local = 3.72839e-08, global = -8.43457e-21, cumulative = -4.55928e-20
ExecutionTime = 30.63 s  ClockTime = 31 s

Time = 0.01

Courant Number mean: 0.115011 max: 0.756141
DILUPBiCGStab:  Solving for Ux, Initial residual = 0.00662671, Final residual = 1.77841e-05, No Iterations 5
DILUPBiCGStab:  Solving for Uy, Initial residual = 0.0166948, Final residual = 3.21865e-05, No Iterations 5
DILUPBiCGStab:  Solving for Uz, Initial residual = 0.0370867, Final residual = 0.000140492, No Iterations 5
linear solve U 389038
[OGL LOG] init_host_sparsity_pattern : 222 ms
[OGL LOG] matrix not stored update host matrix
[OGL LOG] update_host_mtx : 112 ms
[OGL LOG] matrix is not yet sorted, sorting host matrix
[OGL LOG] sort_host_mtx_sparsity_pattern : 100 ms
[OGL LOG] sort_host_mtx : 60 ms
[OGL LOG] init_preconditioner : 0 ms
 CG create  precond 
[OGL LOG] solve : 235 ms
BJcudaGKOCG:  Solving for p, Initial residual = 0.0986704, Final residual = 9.91993e-05, No Iterations 212
linear solve p 763439
time step continuity errors : sum local = 3.9816e-08, global = 4.87006e-21, cumulative = -4.07227e-20
[OGL LOG] init_host_sparsity_pattern : 223 ms
[OGL LOG] matrix not stored update host matrix
[OGL LOG] update_host_mtx : 112 ms
[OGL LOG] matrix is not yet sorted, sorting host matrix
[OGL LOG] sort_host_mtx_sparsity_pattern : 95 ms
[OGL LOG] sort_host_mtx : 61 ms
[OGL LOG] init_preconditioner : 0 ms
 CG create  precond 
[OGL LOG] solve : 234 ms
BJcudaGKOCG:  Solving for p, Initial residual = 0.0824723, Final residual = 9.9654e-05, No Iterations 210
linear solve p 758897
time step continuity errors : sum local = 3.80043e-08, global = -2.98752e-21, cumulative = -4.37102e-20
ExecutionTime = 32.78 s  ClockTime = 33 s

End

