/*---------------------------------------------------------------------------*\
  =========                 |
  \\      /  F ield         | OpenFOAM: The Open Source CFD Toolbox
   \\    /   O peration     | Website:  https://openfoam.org
    \\  /    A nd           | Version:  8
     \\/     M anipulation  |
\*---------------------------------------------------------------------------*/
Build  : 8-ef60d22ea792
Exec   : icoFoam
Date   : Jul 29 2021
Time   : 07:58:00
Host   : "nla-gpu2.ianm.kit.edu"
PID    : 1968610
I/O    : uncollated
Case   : /home/greole/code/OBR/lidDrivenCavity3D/Variation_mesh/50/Variation_matrix_solver/BiCGStab_NoPrecond_HIP/base
nProcs : 1
sigFpe : Enabling floating point exception trapping (FOAM_SIGFPE).
fileModificationChecking : Monitoring run-time modified files using timeStampMaster (fileModificationSkew 10)
allowSystemOperations : Allowing user-supplied system call operations

// * * * * * * * * * * * * * * * * * * * * * * * * * * * * * * * * * * * * * //
Create time

Create mesh for time = 0

Reading transportProperties

Reading field p

Reading field U

Reading/calculating face flux field phi


Starting time loop

Time = 0.001

Courant Number mean: 0 max: 0
DILUPBiCGStab:  Solving for Ux, Initial residual = 1, Final residual = 0.000120903, No Iterations 5
DILUPBiCGStab:  Solving for Uy:  solution singularity
DILUPBiCGStab:  Solving for Uz:  solution singularity
linear solve U 49091
[OGL LOG] init_host_sparsity_pattern : 59 ms
[OGL LOG] matrix not stored update host matrix
[OGL LOG] update_host_mtx : 28 ms
[OGL LOG] matrix is not yet sorted, compute sorting idxs
[OGL LOG] compute_sort : 1164 ms
[OGL LOG] matrix is not yet sorted, sorting host matrix
[OGL LOG] sort_host_mtx_sparsity_pattern : 24 ms
[OGL LOG] sort_host_mtx : 15 ms
[OGL LOG] init_preconditioner : 0 ms
[OGL LOG] solve : 140 ms
nonehipGKOBiCGStab:  Solving for p, Initial residual = 1, Final residual = 9.91873e-05, No Iterations 327
linear solve p 1866490
time step continuity errors : sum local = 1.1478e-07, global = -4.31457e-21, cumulative = -4.31457e-21
[OGL LOG] init_host_sparsity_pattern : 57 ms
[OGL LOG] matrix not stored update host matrix
[OGL LOG] update_host_mtx : 26 ms
[OGL LOG] matrix is not yet sorted, sorting host matrix
[OGL LOG] sort_host_mtx_sparsity_pattern : 22 ms
[OGL LOG] sort_host_mtx : 13 ms
[OGL LOG] init_preconditioner : 0 ms
[OGL LOG] solve : 105 ms
nonehipGKOBiCGStab:  Solving for p, Initial residual = 0.658646, Final residual = 3.39517e-05, No Iterations 302
linear solve p 231727
time step continuity errors : sum local = 5.55247e-08, global = -1.09638e-21, cumulative = -5.41095e-21
ExecutionTime = 2.95 s  ClockTime = 2 s

Time = 0.002

Courant Number mean: 0.0274932 max: 0.32948
DILUPBiCGStab:  Solving for Ux, Initial residual = 0.167103, Final residual = 2.79811e-05, No Iterations 5
DILUPBiCGStab:  Solving for Uy, Initial residual = 0.31522, Final residual = 4.21819e-05, No Iterations 5
DILUPBiCGStab:  Solving for Uz, Initial residual = 0.971887, Final residual = 0.000171126, No Iterations 5
linear solve U 92028
[OGL LOG] init_host_sparsity_pattern : 56 ms
[OGL LOG] matrix not stored update host matrix
[OGL LOG] update_host_mtx : 26 ms
[OGL LOG] matrix is not yet sorted, sorting host matrix
[OGL LOG] sort_host_mtx_sparsity_pattern : 22 ms
[OGL LOG] sort_host_mtx : 13 ms
[OGL LOG] init_preconditioner : 0 ms
[OGL LOG] solve : 107 ms
nonehipGKOBiCGStab:  Solving for p, Initial residual = 0.543137, Final residual = 6.49699e-05, No Iterations 309
linear solve p 233388
time step continuity errors : sum local = 0.0165822, global = -1.30994e-18, cumulative = -1.31535e-18
[OGL LOG] init_host_sparsity_pattern : 56 ms
[OGL LOG] matrix not stored update host matrix
[OGL LOG] update_host_mtx : 26 ms
[OGL LOG] matrix is not yet sorted, sorting host matrix
[OGL LOG] sort_host_mtx_sparsity_pattern : 22 ms
[OGL LOG] sort_host_mtx : 13 ms
[OGL LOG] init_preconditioner : 0 ms
[OGL LOG] solve : 39 ms
nonehipGKOBiCGStab:  Solving for p, Initial residual = 0.964366, Final residual = 8.46949e-05, No Iterations 113
linear solve p 165209
time step continuity errors : sum local = 5.93587e-05, global = -1.59858e-21, cumulative = -1.31695e-18
ExecutionTime = 3.61 s  ClockTime = 3 s

Time = 0.003

Courant Number mean: 0.0415469 max: 0.411308
DILUPBiCGStab:  Solving for Ux, Initial residual = 0.0548452, Final residual = 9.78991e-06, No Iterations 5
DILUPBiCGStab:  Solving for Uy, Initial residual = 0.250908, Final residual = 3.32749e-05, No Iterations 5
DILUPBiCGStab:  Solving for Uz, Initial residual = 0.87236, Final residual = 4.94016e-05, No Iterations 5
linear solve U 92897
[OGL LOG] init_host_sparsity_pattern : 56 ms
[OGL LOG] matrix not stored update host matrix
[OGL LOG] update_host_mtx : 27 ms
[OGL LOG] matrix is not yet sorted, sorting host matrix
[OGL LOG] sort_host_mtx_sparsity_pattern : 22 ms
[OGL LOG] sort_host_mtx : 13 ms
[OGL LOG] init_preconditioner : 0 ms
[OGL LOG] solve : 45 ms
nonehipGKOBiCGStab:  Solving for p, Initial residual = 0.898748, Final residual = 8.54755e-05, No Iterations 128
linear solve p 170598
time step continuity errors : sum local = 1.34611e-06, global = -1.02504e-20, cumulative = -1.3272e-18
[OGL LOG] init_host_sparsity_pattern : 56 ms
[OGL LOG] matrix not stored update host matrix
[OGL LOG] update_host_mtx : 26 ms
[OGL LOG] matrix is not yet sorted, sorting host matrix
[OGL LOG] sort_host_mtx_sparsity_pattern : 22 ms
[OGL LOG] sort_host_mtx : 13 ms
[OGL LOG] init_preconditioner : 0 ms
[OGL LOG] solve : 41 ms
nonehipGKOBiCGStab:  Solving for p, Initial residual = 0.755923, Final residual = 9.16588e-05, No Iterations 117
linear solve p 166354
time step continuity errors : sum local = 1.06367e-06, global = -8.22011e-23, cumulative = -1.32728e-18
ExecutionTime = 4.18 s  ClockTime = 3 s

Time = 0.004

Courant Number mean: 0.0498957 max: 0.432508
DILUPBiCGStab:  Solving for Ux, Initial residual = 0.0335518, Final residual = 2.72627e-06, No Iterations 5
DILUPBiCGStab:  Solving for Uy, Initial residual = 0.118737, Final residual = 1.39929e-05, No Iterations 5
DILUPBiCGStab:  Solving for Uz, Initial residual = 0.842619, Final residual = 3.45024e-05, No Iterations 5
linear solve U 93103
[OGL LOG] init_host_sparsity_pattern : 56 ms
[OGL LOG] matrix not stored update host matrix
[OGL LOG] update_host_mtx : 27 ms
[OGL LOG] matrix is not yet sorted, sorting host matrix
[OGL LOG] sort_host_mtx_sparsity_pattern : 22 ms
[OGL LOG] sort_host_mtx : 13 ms
[OGL LOG] init_preconditioner : 0 ms
[OGL LOG] solve : 40 ms
nonehipGKOBiCGStab:  Solving for p, Initial residual = 0.874535, Final residual = 6.63193e-05, No Iterations 115
linear solve p 167311
time step continuity errors : sum local = 2.11853e-05, global = -6.36919e-21, cumulative = -1.33365e-18
[OGL LOG] init_host_sparsity_pattern : 57 ms
[OGL LOG] matrix not stored update host matrix
[OGL LOG] update_host_mtx : 26 ms
[OGL LOG] matrix is not yet sorted, sorting host matrix
[OGL LOG] sort_host_mtx_sparsity_pattern : 22 ms
[OGL LOG] sort_host_mtx : 13 ms
[OGL LOG] init_preconditioner : 0 ms
[OGL LOG] solve : 43 ms
nonehipGKOBiCGStab:  Solving for p, Initial residual = 0.692889, Final residual = 8.38686e-05, No Iterations 113
linear solve p 169682
time step continuity errors : sum local = 8.61462e-06, global = 6.03035e-21, cumulative = -1.32762e-18
ExecutionTime = 4.73 s  ClockTime = 4 s

Time = 0.005

Courant Number mean: 0.0553029 max: 0.439393
DILUPBiCGStab:  Solving for Ux, Initial residual = 0.0232629, Final residual = 1.24226e-06, No Iterations 5
DILUPBiCGStab:  Solving for Uy, Initial residual = 0.061846, Final residual = 3.91422e-06, No Iterations 5
DILUPBiCGStab:  Solving for Uz, Initial residual = 0.841733, Final residual = 2.77208e-05, No Iterations 5
linear solve U 93366
[OGL LOG] init_host_sparsity_pattern : 56 ms
[OGL LOG] matrix not stored update host matrix
[OGL LOG] update_host_mtx : 27 ms
[OGL LOG] matrix is not yet sorted, sorting host matrix
[OGL LOG] sort_host_mtx_sparsity_pattern : 22 ms
[OGL LOG] sort_host_mtx : 13 ms
[OGL LOG] init_preconditioner : 0 ms
[OGL LOG] solve : 80 ms
nonehipGKOBiCGStab:  Solving for p, Initial residual = 0.774954, Final residual = 9.96708e-05, No Iterations 230
linear solve p 206878
time step continuity errors : sum local = 0.00153133, global = -9.31894e-20, cumulative = -1.42081e-18
[OGL LOG] init_host_sparsity_pattern : 57 ms
[OGL LOG] matrix not stored update host matrix
[OGL LOG] update_host_mtx : 26 ms
[OGL LOG] matrix is not yet sorted, sorting host matrix
[OGL LOG] sort_host_mtx_sparsity_pattern : 22 ms
[OGL LOG] sort_host_mtx : 13 ms
[OGL LOG] init_preconditioner : 0 ms
[OGL LOG] solve : 38 ms
nonehipGKOBiCGStab:  Solving for p, Initial residual = 0.765517, Final residual = 6.98289e-05, No Iterations 108
linear solve p 164782
time step continuity errors : sum local = 2.99015e-07, global = -1.0127e-21, cumulative = -1.42182e-18
ExecutionTime = 5.35 s  ClockTime = 4 s

Time = 0.006

Courant Number mean: 0.0598661 max: 0.44507
DILUPBiCGStab:  Solving for Ux, Initial residual = 0.0179711, Final residual = 1.62054e-06, No Iterations 5
DILUPBiCGStab:  Solving for Uy, Initial residual = 0.0447195, Final residual = 4.71471e-06, No Iterations 5
DILUPBiCGStab:  Solving for Uz, Initial residual = 0.789999, Final residual = 2.70384e-05, No Iterations 5
linear solve U 91264
[OGL LOG] init_host_sparsity_pattern : 56 ms
[OGL LOG] matrix not stored update host matrix
[OGL LOG] update_host_mtx : 27 ms
[OGL LOG] matrix is not yet sorted, sorting host matrix
[OGL LOG] sort_host_mtx_sparsity_pattern : 22 ms
[OGL LOG] sort_host_mtx : 13 ms
[OGL LOG] init_preconditioner : 0 ms
[OGL LOG] solve : 41 ms
nonehipGKOBiCGStab:  Solving for p, Initial residual = 0.701363, Final residual = 9.37406e-05, No Iterations 118
linear solve p 167444
time step continuity errors : sum local = 2.01977e-05, global = 9.33619e-21, cumulative = -1.41248e-18
[OGL LOG] init_host_sparsity_pattern : 56 ms
[OGL LOG] matrix not stored update host matrix
[OGL LOG] update_host_mtx : 26 ms
[OGL LOG] matrix is not yet sorted, sorting host matrix
[OGL LOG] sort_host_mtx_sparsity_pattern : 22 ms
[OGL LOG] sort_host_mtx : 13 ms
[OGL LOG] init_preconditioner : 0 ms
[OGL LOG] solve : 37 ms
nonehipGKOBiCGStab:  Solving for p, Initial residual = 0.548978, Final residual = 9.03265e-05, No Iterations 105
linear solve p 162241
time step continuity errors : sum local = 4.83715e-05, global = -2.21124e-20, cumulative = -1.4346e-18
ExecutionTime = 5.89 s  ClockTime = 5 s

Time = 0.007

Courant Number mean: 0.0635992 max: 0.449029
DILUPBiCGStab:  Solving for Ux, Initial residual = 0.0139155, Final residual = 9.79683e-07, No Iterations 5
DILUPBiCGStab:  Solving for Uy, Initial residual = 0.0308841, Final residual = 1.63092e-06, No Iterations 5
DILUPBiCGStab:  Solving for Uz, Initial residual = 0.599539, Final residual = 2.37974e-05, No Iterations 5
linear solve U 92182
[OGL LOG] init_host_sparsity_pattern : 55 ms
[OGL LOG] matrix not stored update host matrix
[OGL LOG] update_host_mtx : 27 ms
[OGL LOG] matrix is not yet sorted, sorting host matrix
[OGL LOG] sort_host_mtx_sparsity_pattern : 22 ms
[OGL LOG] sort_host_mtx : 13 ms
[OGL LOG] init_preconditioner : 0 ms
[OGL LOG] solve : 78 ms
nonehipGKOBiCGStab:  Solving for p, Initial residual = 0.541434, Final residual = 9.5958e-05, No Iterations 223
linear solve p 202916
time step continuity errors : sum local = 0.00103247, global = -2.65757e-20, cumulative = -1.46117e-18
[OGL LOG] init_host_sparsity_pattern : 57 ms
[OGL LOG] matrix not stored update host matrix
[OGL LOG] update_host_mtx : 26 ms
[OGL LOG] matrix is not yet sorted, sorting host matrix
[OGL LOG] sort_host_mtx_sparsity_pattern : 22 ms
[OGL LOG] sort_host_mtx : 13 ms
[OGL LOG] init_preconditioner : 0 ms
[OGL LOG] solve : 38 ms
nonehipGKOBiCGStab:  Solving for p, Initial residual = 0.709242, Final residual = 9.6702e-05, No Iterations 108
linear solve p 164889
time step continuity errors : sum local = 1.93949e-07, global = 8.0175e-21, cumulative = -1.45315e-18
ExecutionTime = 6.5 s  ClockTime = 5 s

Time = 0.008

Courant Number mean: 0.0666952 max: 0.451934
DILUPBiCGStab:  Solving for Ux, Initial residual = 0.0117596, Final residual = 5.48232e-07, No Iterations 5
DILUPBiCGStab:  Solving for Uy, Initial residual = 0.0269509, Final residual = 2.19802e-06, No Iterations 5
DILUPBiCGStab:  Solving for Uz, Initial residual = 0.611785, Final residual = 3.76912e-05, No Iterations 5
linear solve U 91246
[OGL LOG] init_host_sparsity_pattern : 56 ms
[OGL LOG] matrix not stored update host matrix
[OGL LOG] update_host_mtx : 27 ms
[OGL LOG] matrix is not yet sorted, sorting host matrix
[OGL LOG] sort_host_mtx_sparsity_pattern : 22 ms
[OGL LOG] sort_host_mtx : 13 ms
[OGL LOG] init_preconditioner : 0 ms
[OGL LOG] solve : 81 ms
nonehipGKOBiCGStab:  Solving for p, Initial residual = 0.496639, Final residual = 9.59692e-05, No Iterations 232
linear solve p 207619
time step continuity errors : sum local = 0.000280919, global = 5.64865e-20, cumulative = -1.39667e-18
[OGL LOG] init_host_sparsity_pattern : 57 ms
[OGL LOG] matrix not stored update host matrix
[OGL LOG] update_host_mtx : 26 ms
[OGL LOG] matrix is not yet sorted, sorting host matrix
[OGL LOG] sort_host_mtx_sparsity_pattern : 22 ms
[OGL LOG] sort_host_mtx : 13 ms
[OGL LOG] init_preconditioner : 0 ms
[OGL LOG] solve : 39 ms
nonehipGKOBiCGStab:  Solving for p, Initial residual = 0.476532, Final residual = 7.2906e-05, No Iterations 113
linear solve p 165562
time step continuity errors : sum local = 8.54538e-08, global = -3.02513e-20, cumulative = -1.42692e-18
ExecutionTime = 7.13 s  ClockTime = 6 s

Time = 0.009

Courant Number mean: 0.0693826 max: 0.454304
DILUPBiCGStab:  Solving for Ux, Initial residual = 0.00976108, Final residual = 3.06009e-07, No Iterations 5
DILUPBiCGStab:  Solving for Uy, Initial residual = 0.0215671, Final residual = 1.65693e-06, No Iterations 5
DILUPBiCGStab:  Solving for Uz, Initial residual = 0.382467, Final residual = 2.57347e-05, No Iterations 5
linear solve U 92915
[OGL LOG] init_host_sparsity_pattern : 55 ms
[OGL LOG] matrix not stored update host matrix
[OGL LOG] update_host_mtx : 27 ms
[OGL LOG] matrix is not yet sorted, sorting host matrix
[OGL LOG] sort_host_mtx_sparsity_pattern : 22 ms
[OGL LOG] sort_host_mtx : 13 ms
[OGL LOG] init_preconditioner : 0 ms
[OGL LOG] solve : 80 ms
nonehipGKOBiCGStab:  Solving for p, Initial residual = 0.350571, Final residual = 5.72949e-05, No Iterations 230
linear solve p 206374
time step continuity errors : sum local = 0.00805462, global = 5.25372e-19, cumulative = -9.01547e-19
[OGL LOG] init_host_sparsity_pattern : 57 ms
[OGL LOG] matrix not stored update host matrix
[OGL LOG] update_host_mtx : 26 ms
[OGL LOG] matrix is not yet sorted, sorting host matrix
[OGL LOG] sort_host_mtx_sparsity_pattern : 22 ms
[OGL LOG] sort_host_mtx : 13 ms
[OGL LOG] init_preconditioner : 0 ms
[OGL LOG] solve : 27 ms
nonehipGKOBiCGStab:  Solving for p, Initial residual = 0.937299, Final residual = 9.89656e-05, No Iterations 77
linear solve p 153291
time step continuity errors : sum local = 1.01664e-06, global = -2.85855e-20, cumulative = -9.30132e-19
ExecutionTime = 7.72 s  ClockTime = 6 s

Time = 0.01

Courant Number mean: 0.0717284 max: 0.45682
DILUPBiCGStab:  Solving for Ux, Initial residual = 0.00912621, Final residual = 8.68306e-07, No Iterations 5
DILUPBiCGStab:  Solving for Uy, Initial residual = 0.0805616, Final residual = 1.29236e-05, No Iterations 5
DILUPBiCGStab:  Solving for Uz, Initial residual = 0.822633, Final residual = 5.04997e-05, No Iterations 5
linear solve U 90622
[OGL LOG] init_host_sparsity_pattern : 55 ms
[OGL LOG] matrix not stored update host matrix
[OGL LOG] update_host_mtx : 27 ms
[OGL LOG] matrix is not yet sorted, sorting host matrix
[OGL LOG] sort_host_mtx_sparsity_pattern : 22 ms
[OGL LOG] sort_host_mtx : 13 ms
[OGL LOG] init_preconditioner : 0 ms
[OGL LOG] solve : 34 ms
nonehipGKOBiCGStab:  Solving for p, Initial residual = 0.881785, Final residual = 9.72882e-05, No Iterations 97
linear solve p 159343
time step continuity errors : sum local = 2.18692e-05, global = 2.39341e-20, cumulative = -9.06198e-19
[OGL LOG] init_host_sparsity_pattern : 56 ms
[OGL LOG] matrix not stored update host matrix
[OGL LOG] update_host_mtx : 26 ms
[OGL LOG] matrix is not yet sorted, sorting host matrix
[OGL LOG] sort_host_mtx_sparsity_pattern : 25 ms
[OGL LOG] sort_host_mtx : 13 ms
[OGL LOG] init_preconditioner : 0 ms
[OGL LOG] solve : 36 ms
nonehipGKOBiCGStab:  Solving for p, Initial residual = 0.704254, Final residual = 9.85655e-05, No Iterations 102
linear solve p 167107
time step continuity errors : sum local = 1.67741e-05, global = 1.58157e-21, cumulative = -9.04616e-19
ExecutionTime = 8.26 s  ClockTime = 7 s

End

