/*---------------------------------------------------------------------------*\
  =========                 |
  \\      /  F ield         | OpenFOAM: The Open Source CFD Toolbox
   \\    /   O peration     | Website:  https://openfoam.org
    \\  /    A nd           | Version:  8
     \\/     M anipulation  |
\*---------------------------------------------------------------------------*/
Build  : 8-14d69e1ee166
Exec   : icoFoam
Date   : Jul 29 2021
Time   : 04:57:02
Host   : "guyot.icl.utk.edu"
PID    : 224077
I/O    : uncollated
Case   : /home/greole/code/OBR/lidDrivenCavity3D/Variation_mesh/55/Variation_matrix_solver/CG_DIC_Serial/base
nProcs : 1
sigFpe : Enabling floating point exception trapping (FOAM_SIGFPE).
fileModificationChecking : Monitoring run-time modified files using timeStampMaster (fileModificationSkew 10)
allowSystemOperations : Allowing user-supplied system call operations

// * * * * * * * * * * * * * * * * * * * * * * * * * * * * * * * * * * * * * //
Create time

Create mesh for time = 0

Reading transportProperties

Reading field p

Reading field U

Reading/calculating face flux field phi


Starting time loop

Time = 0.001

Courant Number mean: 0 max: 0
DILUPBiCGStab:  Solving for Ux, Initial residual = 1, Final residual = 0.000272743, No Iterations 5
DILUPBiCGStab:  Solving for Uy:  solution singularity
DILUPBiCGStab:  Solving for Uz:  solution singularity
linear solve U 63741
DICPCG:  Solving for p, Initial residual = 1, Final residual = 7.8448e-05, No Iterations 138
linear solve p 433800
time step continuity errors : sum local = 4.57243e-08, global = -1.09403e-20, cumulative = -1.09403e-20
DICPCG:  Solving for p, Initial residual = 0.678593, Final residual = 8.17193e-05, No Iterations 136
linear solve p 421358
time step continuity errors : sum local = 6.60856e-08, global = -5.26933e-22, cumulative = -1.14672e-20
ExecutionTime = 1.75 s  ClockTime = 2 s

Time = 0.002

Courant Number mean: 0.0305076 max: 0.37634
DILUPBiCGStab:  Solving for Ux, Initial residual = 0.162208, Final residual = 6.90605e-05, No Iterations 5
DILUPBiCGStab:  Solving for Uy, Initial residual = 0.327329, Final residual = 0.000109949, No Iterations 5
DILUPBiCGStab:  Solving for Uz, Initial residual = 0.977088, Final residual = 0.000434855, No Iterations 5
linear solve U 120652
DICPCG:  Solving for p, Initial residual = 0.580212, Final residual = 9.78521e-05, No Iterations 132
linear solve p 407771
time step continuity errors : sum local = 7.93637e-08, global = -4.21371e-22, cumulative = -1.18886e-20
DICPCG:  Solving for p, Initial residual = 0.497862, Final residual = 9.03618e-05, No Iterations 132
linear solve p 422185
time step continuity errors : sum local = 7.55417e-08, global = -6.02029e-21, cumulative = -1.79089e-20
ExecutionTime = 2.77 s  ClockTime = 3 s

Time = 0.003

Courant Number mean: 0.0458491 max: 0.461221
DILUPBiCGStab:  Solving for Ux, Initial residual = 0.0523898, Final residual = 2.20662e-05, No Iterations 5
DILUPBiCGStab:  Solving for Uy, Initial residual = 0.0999297, Final residual = 3.09422e-05, No Iterations 5
DILUPBiCGStab:  Solving for Uz, Initial residual = 0.184316, Final residual = 6.16863e-05, No Iterations 5
linear solve U 119362
DICPCG:  Solving for p, Initial residual = 0.391106, Final residual = 8.31323e-05, No Iterations 129
linear solve p 406646
time step continuity errors : sum local = 4.73458e-08, global = -1.2135e-20, cumulative = -3.00439e-20
DICPCG:  Solving for p, Initial residual = 0.336933, Final residual = 9.06928e-05, No Iterations 128
linear solve p 400309
time step continuity errors : sum local = 5.04249e-08, global = 4.07432e-21, cumulative = -2.59696e-20
ExecutionTime = 3.76 s  ClockTime = 4 s

Time = 0.004

Courant Number mean: 0.0544851 max: 0.479438
DILUPBiCGStab:  Solving for Ux, Initial residual = 0.0312273, Final residual = 6.4353e-06, No Iterations 5
DILUPBiCGStab:  Solving for Uy, Initial residual = 0.0645982, Final residual = 1.16439e-05, No Iterations 5
DILUPBiCGStab:  Solving for Uz, Initial residual = 0.136345, Final residual = 4.34739e-05, No Iterations 5
linear solve U 119938
DICPCG:  Solving for p, Initial residual = 0.194053, Final residual = 9.98516e-05, No Iterations 122
linear solve p 378876
time step continuity errors : sum local = 5.31063e-08, global = -3.61001e-21, cumulative = -2.95796e-20
DICPCG:  Solving for p, Initial residual = 0.15601, Final residual = 7.64468e-05, No Iterations 123
linear solve p 386747
time step continuity errors : sum local = 4.11363e-08, global = 1.07495e-20, cumulative = -1.88301e-20
ExecutionTime = 4.71 s  ClockTime = 5 s

Time = 0.005

Courant Number mean: 0.0609396 max: 0.489043
DILUPBiCGStab:  Solving for Ux, Initial residual = 0.0220034, Final residual = 5.48018e-06, No Iterations 5
DILUPBiCGStab:  Solving for Uy, Initial residual = 0.0440306, Final residual = 7.3835e-06, No Iterations 5
DILUPBiCGStab:  Solving for Uz, Initial residual = 0.0732627, Final residual = 1.84116e-05, No Iterations 5
linear solve U 121142
DICPCG:  Solving for p, Initial residual = 0.107444, Final residual = 9.47784e-05, No Iterations 121
linear solve p 373534
time step continuity errors : sum local = 4.72655e-08, global = -5.32413e-21, cumulative = -2.41542e-20
DICPCG:  Solving for p, Initial residual = 0.0879915, Final residual = 7.89511e-05, No Iterations 121
linear solve p 376673
time step continuity errors : sum local = 3.93069e-08, global = 1.03288e-20, cumulative = -1.38254e-20
ExecutionTime = 5.64 s  ClockTime = 6 s

Time = 0.006

Courant Number mean: 0.0659409 max: 0.49487
DILUPBiCGStab:  Solving for Ux, Initial residual = 0.0166938, Final residual = 3.35431e-06, No Iterations 5
DILUPBiCGStab:  Solving for Uy, Initial residual = 0.0337597, Final residual = 2.87667e-06, No Iterations 5
DILUPBiCGStab:  Solving for Uz, Initial residual = 0.05927, Final residual = 1.13609e-05, No Iterations 5
linear solve U 119765
DICPCG:  Solving for p, Initial residual = 0.0640767, Final residual = 8.78889e-05, No Iterations 58
linear solve p 189554
time step continuity errors : sum local = 5.35819e-08, global = 1.44258e-20, cumulative = 6.00391e-22
DICPCG:  Solving for p, Initial residual = 0.0524554, Final residual = 9.2147e-05, No Iterations 56
linear solve p 175908
time step continuity errors : sum local = 4.87934e-08, global = -1.94811e-21, cumulative = -1.34771e-21
ExecutionTime = 6.19 s  ClockTime = 6 s

Time = 0.007

Courant Number mean: 0.0700482 max: 0.498906
DILUPBiCGStab:  Solving for Ux, Initial residual = 0.0133041, Final residual = 1.90315e-06, No Iterations 5
DILUPBiCGStab:  Solving for Uy, Initial residual = 0.027036, Final residual = 2.34884e-06, No Iterations 5
DILUPBiCGStab:  Solving for Uz, Initial residual = 0.0489034, Final residual = 6.98434e-06, No Iterations 5
linear solve U 120591
DICPCG:  Solving for p, Initial residual = 0.0404965, Final residual = 7.8318e-05, No Iterations 56
linear solve p 180216
time step continuity errors : sum local = 4.12622e-08, global = -2.25126e-20, cumulative = -2.38603e-20
DICPCG:  Solving for p, Initial residual = 0.0342768, Final residual = 9.6257e-05, No Iterations 54
linear solve p 170073
time step continuity errors : sum local = 4.87752e-08, global = -9.93859e-21, cumulative = -3.37989e-20
ExecutionTime = 6.73 s  ClockTime = 7 s

Time = 0.008

Courant Number mean: 0.0734868 max: 0.501898
DILUPBiCGStab:  Solving for Ux, Initial residual = 0.0109581, Final residual = 1.37874e-06, No Iterations 5
DILUPBiCGStab:  Solving for Uy, Initial residual = 0.0223247, Final residual = 1.4978e-06, No Iterations 5
DILUPBiCGStab:  Solving for Uz, Initial residual = 0.0408669, Final residual = 4.58486e-06, No Iterations 5
linear solve U 120217
DICPCG:  Solving for p, Initial residual = 0.0278042, Final residual = 9.86207e-05, No Iterations 54
linear solve p 173780
time step continuity errors : sum local = 5.64072e-08, global = 1.33867e-20, cumulative = -2.04122e-20
DICPCG:  Solving for p, Initial residual = 0.0239745, Final residual = 9.13688e-05, No Iterations 53
linear solve p 166533
time step continuity errors : sum local = 4.82607e-08, global = -1.05457e-20, cumulative = -3.0958e-20
ExecutionTime = 7.25 s  ClockTime = 8 s

Time = 0.009

Courant Number mean: 0.0764172 max: 0.50422
DILUPBiCGStab:  Solving for Ux, Initial residual = 0.00921854, Final residual = 5.8624e-07, No Iterations 5
DILUPBiCGStab:  Solving for Uy, Initial residual = 0.0189285, Final residual = 1.16025e-06, No Iterations 5
DILUPBiCGStab:  Solving for Uz, Initial residual = 0.0352966, Final residual = 3.46315e-06, No Iterations 5
linear solve U 120876
DICPCG:  Solving for p, Initial residual = 0.0215447, Final residual = 9.66657e-05, No Iterations 52
linear solve p 167206
time step continuity errors : sum local = 5.02459e-08, global = 8.42149e-21, cumulative = -2.25365e-20
DICPCG:  Solving for p, Initial residual = 0.0189703, Final residual = 8.42592e-05, No Iterations 52
linear solve p 167097
time step continuity errors : sum local = 4.36323e-08, global = 2.73091e-20, cumulative = 4.77267e-21
ExecutionTime = 7.77 s  ClockTime = 8 s

Time = 0.01

Courant Number mean: 0.0789767 max: 0.506079
DILUPBiCGStab:  Solving for Ux, Initial residual = 0.00789624, Final residual = 4.48271e-07, No Iterations 5
DILUPBiCGStab:  Solving for Uy, Initial residual = 0.0162616, Final residual = 9.74585e-07, No Iterations 5
DILUPBiCGStab:  Solving for Uz, Initial residual = 0.0306819, Final residual = 2.54737e-06, No Iterations 5
linear solve U 120291
DICPCG:  Solving for p, Initial residual = 0.0166524, Final residual = 8.8637e-05, No Iterations 52
linear solve p 166302
time step continuity errors : sum local = 5.06281e-08, global = 9.53959e-21, cumulative = 1.43123e-20
DICPCG:  Solving for p, Initial residual = 0.0149626, Final residual = 8.88374e-05, No Iterations 51
linear solve p 166042
time step continuity errors : sum local = 4.74001e-08, global = -2.38589e-21, cumulative = 1.19264e-20
ExecutionTime = 8.29 s  ClockTime = 9 s

End

