/*---------------------------------------------------------------------------*\
  =========                 |
  \\      /  F ield         | OpenFOAM: The Open Source CFD Toolbox
   \\    /   O peration     | Website:  https://openfoam.org
    \\  /    A nd           | Version:  8
     \\/     M anipulation  |
\*---------------------------------------------------------------------------*/
Build  : 8-ef60d22ea792
Exec   : icoFoam
Date   : Jul 29 2021
Time   : 07:28:24
Host   : "nla-gpu2.ianm.kit.edu"
PID    : 1954069
I/O    : uncollated
Case   : /home/greole/code/OBR/lidDrivenCavity3D/Variation_mesh/30/Variation_matrix_solver/BiCGStab_BJ_HIP/base
nProcs : 1
sigFpe : Enabling floating point exception trapping (FOAM_SIGFPE).
fileModificationChecking : Monitoring run-time modified files using timeStampMaster (fileModificationSkew 10)
allowSystemOperations : Allowing user-supplied system call operations

// * * * * * * * * * * * * * * * * * * * * * * * * * * * * * * * * * * * * * //
Create time

Create mesh for time = 0

Reading transportProperties

Reading field p

Reading field U

Reading/calculating face flux field phi


Starting time loop

Time = 0.001

Courant Number mean: 0 max: 0
DILUPBiCGStab:  Solving for Ux, Initial residual = 1, Final residual = 2.30612e-07, No Iterations 5
DILUPBiCGStab:  Solving for Uy:  solution singularity
DILUPBiCGStab:  Solving for Uz:  solution singularity
linear solve U 9572
[OGL LOG] init_host_sparsity_pattern : 13 ms
[OGL LOG] matrix not stored update host matrix
[OGL LOG] update_host_mtx : 6 ms
[OGL LOG] matrix is not yet sorted, compute sorting idxs
[OGL LOG] compute_sort : 222 ms
[OGL LOG] matrix is not yet sorted, sorting host matrix
[OGL LOG] sort_host_mtx_sparsity_pattern : 5 ms
[OGL LOG] sort_host_mtx : 3 ms
[OGL LOG] init_preconditioner : 66 ms
[OGL LOG] solve : 93 ms
BJhipGKOBiCGStab:  Solving for p, Initial residual = 1, Final residual = 9.64432e-05, No Iterations 155
linear solve p 839230
time step continuity errors : sum local = 1.03672e-07, global = 4.81585e-21, cumulative = 4.81585e-21
[OGL LOG] init_host_sparsity_pattern : 11 ms
[OGL LOG] matrix not stored update host matrix
[OGL LOG] update_host_mtx : 5 ms
[OGL LOG] matrix is not yet sorted, sorting host matrix
[OGL LOG] sort_host_mtx_sparsity_pattern : 4 ms
[OGL LOG] sort_host_mtx : 2 ms
[OGL LOG] init_preconditioner : 0 ms
[OGL LOG] solve : 50 ms
BJhipGKOBiCGStab:  Solving for p, Initial residual = 0.533568, Final residual = 8.69806e-05, No Iterations 142
linear solve p 77798
time step continuity errors : sum local = 1.46127e-07, global = -1.15805e-22, cumulative = 4.70004e-21
ExecutionTime = 1.19 s  ClockTime = 1 s

Time = 0.002

Courant Number mean: 0.0151364 max: 0.148265
DILUPBiCGStab:  Solving for Ux, Initial residual = 0.196038, Final residual = 3.64406e-08, No Iterations 5
DILUPBiCGStab:  Solving for Uy, Initial residual = 0.280411, Final residual = 4.07887e-08, No Iterations 5
DILUPBiCGStab:  Solving for Uz, Initial residual = 0.91437, Final residual = 1.6228e-07, No Iterations 5
linear solve U 17607
[OGL LOG] init_host_sparsity_pattern : 11 ms
[OGL LOG] matrix not stored update host matrix
[OGL LOG] update_host_mtx : 5 ms
[OGL LOG] matrix is not yet sorted, sorting host matrix
[OGL LOG] sort_host_mtx_sparsity_pattern : 4 ms
[OGL LOG] sort_host_mtx : 2 ms
[OGL LOG] init_preconditioner : 0 ms
[OGL LOG] solve : 48 ms
BJhipGKOBiCGStab:  Solving for p, Initial residual = 0.353257, Final residual = 7.04197e-05, No Iterations 137
linear solve p 75644
time step continuity errors : sum local = 0.000456481, global = 5.3574e-20, cumulative = 5.8274e-20
[OGL LOG] init_host_sparsity_pattern : 11 ms
[OGL LOG] matrix not stored update host matrix
[OGL LOG] update_host_mtx : 5 ms
[OGL LOG] matrix is not yet sorted, sorting host matrix
[OGL LOG] sort_host_mtx_sparsity_pattern : 4 ms
[OGL LOG] sort_host_mtx : 2 ms
[OGL LOG] init_preconditioner : 0 ms
[OGL LOG] solve : 46 ms
BJhipGKOBiCGStab:  Solving for p, Initial residual = 0.51477, Final residual = 8.3939e-05, No Iterations 131
linear solve p 74426
time step continuity errors : sum local = 2.13276e-07, global = -1.27134e-20, cumulative = 4.55607e-20
ExecutionTime = 1.45 s  ClockTime = 2 s

Time = 0.003

Courant Number mean: 0.0235111 max: 0.20423
DILUPBiCGStab:  Solving for Ux, Initial residual = 0.0795166, Final residual = 1.299e-08, No Iterations 5
DILUPBiCGStab:  Solving for Uy, Initial residual = 0.11693, Final residual = 1.21577e-08, No Iterations 5
DILUPBiCGStab:  Solving for Uz, Initial residual = 0.526652, Final residual = 9.30303e-08, No Iterations 5
linear solve U 17542
[OGL LOG] init_host_sparsity_pattern : 11 ms
[OGL LOG] matrix not stored update host matrix
[OGL LOG] update_host_mtx : 5 ms
[OGL LOG] matrix is not yet sorted, sorting host matrix
[OGL LOG] sort_host_mtx_sparsity_pattern : 4 ms
[OGL LOG] sort_host_mtx : 2 ms
[OGL LOG] init_preconditioner : 0 ms
[OGL LOG] solve : 24 ms
BJhipGKOBiCGStab:  Solving for p, Initial residual = 0.206581, Final residual = 6.54772e-05, No Iterations 69
linear solve p 51895
time step continuity errors : sum local = 7.25867e-08, global = 7.14684e-22, cumulative = 4.62754e-20
[OGL LOG] init_host_sparsity_pattern : 11 ms
[OGL LOG] matrix not stored update host matrix
[OGL LOG] update_host_mtx : 5 ms
[OGL LOG] matrix is not yet sorted, sorting host matrix
[OGL LOG] sort_host_mtx_sparsity_pattern : 4 ms
[OGL LOG] sort_host_mtx : 2 ms
[OGL LOG] init_preconditioner : 0 ms
[OGL LOG] solve : 45 ms
BJhipGKOBiCGStab:  Solving for p, Initial residual = 0.140426, Final residual = 8.66074e-05, No Iterations 128
linear solve p 72614
time step continuity errors : sum local = 0.000157754, global = 2.09008e-20, cumulative = 6.71762e-20
ExecutionTime = 1.66 s  ClockTime = 2 s

Time = 0.004

Courant Number mean: 0.028684 max: 0.226524
DILUPBiCGStab:  Solving for Ux, Initial residual = 0.0460707, Final residual = 6.36357e-09, No Iterations 5
DILUPBiCGStab:  Solving for Uy, Initial residual = 0.0700915, Final residual = 4.85515e-09, No Iterations 5
DILUPBiCGStab:  Solving for Uz, Initial residual = 0.226456, Final residual = 2.49912e-08, No Iterations 5
linear solve U 17597
[OGL LOG] init_host_sparsity_pattern : 11 ms
[OGL LOG] matrix not stored update host matrix
[OGL LOG] update_host_mtx : 5 ms
[OGL LOG] matrix is not yet sorted, sorting host matrix
[OGL LOG] sort_host_mtx_sparsity_pattern : 4 ms
[OGL LOG] sort_host_mtx : 2 ms
[OGL LOG] init_preconditioner : 0 ms
[OGL LOG] solve : 21 ms
BJhipGKOBiCGStab:  Solving for p, Initial residual = 0.246312, Final residual = 9.70398e-05, No Iterations 61
linear solve p 49210
time step continuity errors : sum local = 2.29108e-07, global = 1.66733e-20, cumulative = 8.38495e-20
[OGL LOG] init_host_sparsity_pattern : 11 ms
[OGL LOG] matrix not stored update host matrix
[OGL LOG] update_host_mtx : 5 ms
[OGL LOG] matrix is not yet sorted, sorting host matrix
[OGL LOG] sort_host_mtx_sparsity_pattern : 4 ms
[OGL LOG] sort_host_mtx : 2 ms
[OGL LOG] init_preconditioner : 0 ms
[OGL LOG] solve : 19 ms
BJhipGKOBiCGStab:  Solving for p, Initial residual = 0.0821985, Final residual = 8.10025e-05, No Iterations 54
linear solve p 46771
time step continuity errors : sum local = 2.19182e-06, global = -4.32072e-20, cumulative = 4.06423e-20
ExecutionTime = 1.83 s  ClockTime = 2 s

Time = 0.005

Courant Number mean: 0.0323438 max: 0.237428
DILUPBiCGStab:  Solving for Ux, Initial residual = 0.0313781, Final residual = 2.98883e-09, No Iterations 5
DILUPBiCGStab:  Solving for Uy, Initial residual = 0.0483688, Final residual = 2.65399e-09, No Iterations 5
DILUPBiCGStab:  Solving for Uz, Initial residual = 0.135747, Final residual = 1.29697e-08, No Iterations 5
linear solve U 17660
[OGL LOG] init_host_sparsity_pattern : 11 ms
[OGL LOG] matrix not stored update host matrix
[OGL LOG] update_host_mtx : 5 ms
[OGL LOG] matrix is not yet sorted, sorting host matrix
[OGL LOG] sort_host_mtx_sparsity_pattern : 4 ms
[OGL LOG] sort_host_mtx : 2 ms
[OGL LOG] init_preconditioner : 0 ms
[OGL LOG] solve : 19 ms
BJhipGKOBiCGStab:  Solving for p, Initial residual = 0.066648, Final residual = 9.58579e-05, No Iterations 53
linear solve p 47151
time step continuity errors : sum local = 3.23063e-06, global = -1.10822e-21, cumulative = 3.95341e-20
[OGL LOG] init_host_sparsity_pattern : 11 ms
[OGL LOG] matrix not stored update host matrix
[OGL LOG] update_host_mtx : 5 ms
[OGL LOG] matrix is not yet sorted, sorting host matrix
[OGL LOG] sort_host_mtx_sparsity_pattern : 4 ms
[OGL LOG] sort_host_mtx : 2 ms
[OGL LOG] init_preconditioner : 0 ms
[OGL LOG] solve : 18 ms
BJhipGKOBiCGStab:  Solving for p, Initial residual = 0.0407203, Final residual = 6.1053e-05, No Iterations 53
linear solve p 46187
time step continuity errors : sum local = 7.66261e-08, global = -9.41357e-21, cumulative = 3.01205e-20
ExecutionTime = 1.98 s  ClockTime = 2 s

Time = 0.006

Courant Number mean: 0.0352091 max: 0.243911
DILUPBiCGStab:  Solving for Ux, Initial residual = 0.0234495, Final residual = 1.11667e-09, No Iterations 5
DILUPBiCGStab:  Solving for Uy, Initial residual = 0.0364916, Final residual = 1.59725e-09, No Iterations 5
DILUPBiCGStab:  Solving for Uz, Initial residual = 0.0716777, Final residual = 6.97464e-09, No Iterations 5
linear solve U 17636
[OGL LOG] init_host_sparsity_pattern : 13 ms
[OGL LOG] matrix not stored update host matrix
[OGL LOG] update_host_mtx : 5 ms
[OGL LOG] matrix is not yet sorted, sorting host matrix
[OGL LOG] sort_host_mtx_sparsity_pattern : 4 ms
[OGL LOG] sort_host_mtx : 2 ms
[OGL LOG] init_preconditioner : 0 ms
[OGL LOG] solve : 17 ms
BJhipGKOBiCGStab:  Solving for p, Initial residual = 0.029471, Final residual = 8.96198e-05, No Iterations 47
linear solve p 47294
time step continuity errors : sum local = 1.1529e-07, global = 2.05748e-20, cumulative = 5.06954e-20
[OGL LOG] init_host_sparsity_pattern : 11 ms
[OGL LOG] matrix not stored update host matrix
[OGL LOG] update_host_mtx : 5 ms
[OGL LOG] matrix is not yet sorted, sorting host matrix
[OGL LOG] sort_host_mtx_sparsity_pattern : 4 ms
[OGL LOG] sort_host_mtx : 2 ms
[OGL LOG] init_preconditioner : 0 ms
[OGL LOG] solve : 17 ms
BJhipGKOBiCGStab:  Solving for p, Initial residual = 0.0208131, Final residual = 8.67398e-05, No Iterations 48
linear solve p 44569
time step continuity errors : sum local = 1.01474e-07, global = 1.9674e-20, cumulative = 7.03693e-20
ExecutionTime = 2.14 s  ClockTime = 2 s

Time = 0.007

Courant Number mean: 0.0375054 max: 0.248263
DILUPBiCGStab:  Solving for Ux, Initial residual = 0.0185017, Final residual = 5.59151e-10, No Iterations 5
DILUPBiCGStab:  Solving for Uy, Initial residual = 0.0290266, Final residual = 1.14435e-09, No Iterations 5
DILUPBiCGStab:  Solving for Uz, Initial residual = 0.0531474, Final residual = 3.87352e-09, No Iterations 5
linear solve U 17643
[OGL LOG] init_host_sparsity_pattern : 11 ms
[OGL LOG] matrix not stored update host matrix
[OGL LOG] update_host_mtx : 5 ms
[OGL LOG] matrix is not yet sorted, sorting host matrix
[OGL LOG] sort_host_mtx_sparsity_pattern : 4 ms
[OGL LOG] sort_host_mtx : 2 ms
[OGL LOG] init_preconditioner : 0 ms
[OGL LOG] solve : 18 ms
BJhipGKOBiCGStab:  Solving for p, Initial residual = 0.0201171, Final residual = 9.89798e-05, No Iterations 51
linear solve p 45737
time step continuity errors : sum local = 4.29076e-07, global = 1.7743e-20, cumulative = 8.81123e-20
[OGL LOG] init_host_sparsity_pattern : 11 ms
[OGL LOG] matrix not stored update host matrix
[OGL LOG] update_host_mtx : 5 ms
[OGL LOG] matrix is not yet sorted, sorting host matrix
[OGL LOG] sort_host_mtx_sparsity_pattern : 4 ms
[OGL LOG] sort_host_mtx : 2 ms
[OGL LOG] init_preconditioner : 0 ms
[OGL LOG] solve : 16 ms
BJhipGKOBiCGStab:  Solving for p, Initial residual = 0.0150239, Final residual = 7.94563e-05, No Iterations 47
linear solve p 44218
time step continuity errors : sum local = 4.21939e-06, global = 1.61427e-20, cumulative = 1.04255e-19
ExecutionTime = 2.29 s  ClockTime = 2 s

Time = 0.008

Courant Number mean: 0.0393981 max: 0.251427
DILUPBiCGStab:  Solving for Ux, Initial residual = 0.0150965, Final residual = 3.46441e-10, No Iterations 5
DILUPBiCGStab:  Solving for Uy, Initial residual = 0.0238859, Final residual = 8.34039e-10, No Iterations 5
DILUPBiCGStab:  Solving for Uz, Initial residual = 0.0471108, Final residual = 3.82245e-09, No Iterations 5
linear solve U 17559
[OGL LOG] init_host_sparsity_pattern : 11 ms
[OGL LOG] matrix not stored update host matrix
[OGL LOG] update_host_mtx : 5 ms
[OGL LOG] matrix is not yet sorted, sorting host matrix
[OGL LOG] sort_host_mtx_sparsity_pattern : 4 ms
[OGL LOG] sort_host_mtx : 2 ms
[OGL LOG] init_preconditioner : 0 ms
[OGL LOG] solve : 17 ms
BJhipGKOBiCGStab:  Solving for p, Initial residual = 0.0220872, Final residual = 9.98648e-05, No Iterations 49
linear solve p 44703
time step continuity errors : sum local = 1.23634e-07, global = 1.97604e-20, cumulative = 1.24015e-19
[OGL LOG] init_host_sparsity_pattern : 11 ms
[OGL LOG] matrix not stored update host matrix
[OGL LOG] update_host_mtx : 5 ms
[OGL LOG] matrix is not yet sorted, sorting host matrix
[OGL LOG] sort_host_mtx_sparsity_pattern : 4 ms
[OGL LOG] sort_host_mtx : 2 ms
[OGL LOG] init_preconditioner : 0 ms
[OGL LOG] solve : 16 ms
BJhipGKOBiCGStab:  Solving for p, Initial residual = 0.01325, Final residual = 9.47441e-05, No Iterations 46
linear solve p 44030
time step continuity errors : sum local = 4.28143e-06, global = -4.27063e-21, cumulative = 1.19745e-19
ExecutionTime = 2.44 s  ClockTime = 2 s

Time = 0.009

Courant Number mean: 0.0410407 max: 0.253856
DILUPBiCGStab:  Solving for Ux, Initial residual = 0.012649, Final residual = 2.44547e-10, No Iterations 5
DILUPBiCGStab:  Solving for Uy, Initial residual = 0.020135, Final residual = 6.22126e-10, No Iterations 5
DILUPBiCGStab:  Solving for Uz, Initial residual = 0.0410844, Final residual = 2.87152e-09, No Iterations 5
linear solve U 18236
[OGL LOG] init_host_sparsity_pattern : 11 ms
[OGL LOG] matrix not stored update host matrix
[OGL LOG] update_host_mtx : 5 ms
[OGL LOG] matrix is not yet sorted, sorting host matrix
[OGL LOG] sort_host_mtx_sparsity_pattern : 4 ms
[OGL LOG] sort_host_mtx : 2 ms
[OGL LOG] init_preconditioner : 0 ms
[OGL LOG] solve : 19 ms
BJhipGKOBiCGStab:  Solving for p, Initial residual = 0.0202699, Final residual = 9.24017e-05, No Iterations 52
linear solve p 46468
time step continuity errors : sum local = 1.17745e-07, global = 2.07339e-20, cumulative = 1.40479e-19
[OGL LOG] init_host_sparsity_pattern : 11 ms
[OGL LOG] matrix not stored update host matrix
[OGL LOG] update_host_mtx : 5 ms
[OGL LOG] matrix is not yet sorted, sorting host matrix
[OGL LOG] sort_host_mtx_sparsity_pattern : 4 ms
[OGL LOG] sort_host_mtx : 2 ms
[OGL LOG] init_preconditioner : 0 ms
[OGL LOG] solve : 16 ms
BJhipGKOBiCGStab:  Solving for p, Initial residual = 0.0112602, Final residual = 9.07993e-05, No Iterations 45
linear solve p 43734
time step continuity errors : sum local = 1.15032e-06, global = -2.58572e-21, cumulative = 1.37893e-19
ExecutionTime = 2.59 s  ClockTime = 2 s

Time = 0.01

Courant Number mean: 0.0424714 max: 0.255788
DILUPBiCGStab:  Solving for Ux, Initial residual = 0.0107636, Final residual = 1.86135e-10, No Iterations 5
DILUPBiCGStab:  Solving for Uy, Initial residual = 0.0173015, Final residual = 4.80374e-10, No Iterations 5
DILUPBiCGStab:  Solving for Uz, Initial residual = 0.0331559, Final residual = 2.2235e-09, No Iterations 5
linear solve U 19164
[OGL LOG] init_host_sparsity_pattern : 11 ms
[OGL LOG] matrix not stored update host matrix
[OGL LOG] update_host_mtx : 5 ms
[OGL LOG] matrix is not yet sorted, sorting host matrix
[OGL LOG] sort_host_mtx_sparsity_pattern : 4 ms
[OGL LOG] sort_host_mtx : 2 ms
[OGL LOG] init_preconditioner : 0 ms
[OGL LOG] solve : 18 ms
BJhipGKOBiCGStab:  Solving for p, Initial residual = 0.0129228, Final residual = 9.6341e-05, No Iterations 52
linear solve p 45737
time step continuity errors : sum local = 1.2246e-07, global = 2.72251e-21, cumulative = 1.40615e-19
[OGL LOG] init_host_sparsity_pattern : 11 ms
[OGL LOG] matrix not stored update host matrix
[OGL LOG] update_host_mtx : 5 ms
[OGL LOG] matrix is not yet sorted, sorting host matrix
[OGL LOG] sort_host_mtx_sparsity_pattern : 4 ms
[OGL LOG] sort_host_mtx : 2 ms
[OGL LOG] init_preconditioner : 0 ms
[OGL LOG] solve : 16 ms
BJhipGKOBiCGStab:  Solving for p, Initial residual = 0.0089417, Final residual = 5.89633e-05, No Iterations 47
linear solve p 44104
time step continuity errors : sum local = 8.92282e-08, global = 5.02531e-20, cumulative = 1.90869e-19
ExecutionTime = 2.74 s  ClockTime = 3 s

End

