/*---------------------------------------------------------------------------*\
  =========                 |
  \\      /  F ield         | OpenFOAM: The Open Source CFD Toolbox
   \\    /   O peration     | Website:  https://openfoam.org
    \\  /    A nd           | Version:  8
     \\/     M anipulation  |
\*---------------------------------------------------------------------------*/
Build  : 8-40a5a48f630f
Exec   : icoFoam
Date   : Jul 28 2021
Time   : 11:44:32
Host   : "uc2n397.localdomain"
PID    : 263714
I/O    : uncollated
Case   : /pfs/data5/home/kit/scc/nq7776/code/OBR/lidDrivenCavity3D/Variation_mesh/90/Variation_matrix_solver/BiCGStab_BJ_OMP/base
nProcs : 1
sigFpe : Enabling floating point exception trapping (FOAM_SIGFPE).
fileModificationChecking : Monitoring run-time modified files using timeStampMaster (fileModificationSkew 10)
allowSystemOperations : Allowing user-supplied system call operations

// * * * * * * * * * * * * * * * * * * * * * * * * * * * * * * * * * * * * * //
Create time

Create mesh for time = 0

Reading transportProperties

Reading field p

Reading field U

Reading/calculating face flux field phi


Starting time loop

Time = 0.001

Courant Number mean: 0 max: 0
nonePBiCGStab:  Solving for Ux, Initial residual = 1, Final residual = 0.0756268, No Iterations 5
nonePBiCGStab:  Solving for Uy, Initial residual = 0, Final residual = 0, No Iterations 0
nonePBiCGStab:  Solving for Uz, Initial residual = 0, Final residual = 0, No Iterations 0
linear solve U 189
[OGL LOG] init_host_sparsity_pattern : 208 ms
[OGL LOG] matrix not stored update host matrix
[OGL LOG] update_host_mtx : 108 ms
[OGL LOG] matrix is not yet sorted, compute sorting idxs
[OGL LOG] compute_sort : 6584 ms
[OGL LOG] matrix is not yet sorted, sorting host matrix
[OGL LOG] sort_host_mtx_sparsity_pattern : 156 ms
[OGL LOG] sort_host_mtx : 90 ms
[OGL LOG] init_preconditioner : 57 ms
[OGL LOG] solve : 19096 ms
BJompGKOBiCGStab:  Solving for p, Initial residual = 1, Final residual = 8.64788e-05, No Iterations 485
linear solve p 26469
time step continuity errors : sum local = 6.75104e-08, global = -7.35084e-21, cumulative = -7.35084e-21
[OGL LOG] init_host_sparsity_pattern : 209 ms
[OGL LOG] matrix not stored update host matrix
[OGL LOG] update_host_mtx : 109 ms
[OGL LOG] matrix is not yet sorted, sorting host matrix
[OGL LOG] sort_host_mtx_sparsity_pattern : 169 ms
[OGL LOG] sort_host_mtx : 90 ms
[OGL LOG] init_preconditioner : 0 ms
[OGL LOG] solve : 17648 ms
BJompGKOBiCGStab:  Solving for p, Initial residual = 0.701132, Final residual = 9.69855e-05, No Iterations 448
linear solve p 18354
time step continuity errors : sum local = 1.4212e-07, global = 6.037e-22, cumulative = -6.74714e-21
ExecutionTime = 158.28 s  ClockTime = 49 s

regIOobject::readIfModified() : 
    Re-reading object controlDict from file "/pfs/data5/home/kit/scc/nq7776/code/OBR/lidDrivenCavity3D/Variation_mesh/90/Variation_matrix_solver/BiCGStab_BJ_OMP/base/system/controlDict"
End

