/*---------------------------------------------------------------------------*\
  =========                 |
  \\      /  F ield         | OpenFOAM: The Open Source CFD Toolbox
   \\    /   O peration     | Website:  https://openfoam.org
    \\  /    A nd           | Version:  8
     \\/     M anipulation  |
\*---------------------------------------------------------------------------*/
Build  : 8-14d69e1ee166
Exec   : icoFoam
Date   : Jul 29 2021
Time   : 08:08:11
Host   : "guyot.icl.utk.edu"
PID    : 90911
I/O    : uncollated
Case   : /home/greole/code/OBR/lidDrivenCavity3D/Variation_mesh/20/Variation_matrix_solver/CG_NoPrecond_CUDA/base
nProcs : 1
sigFpe : Enabling floating point exception trapping (FOAM_SIGFPE).
fileModificationChecking : Monitoring run-time modified files using timeStampMaster (fileModificationSkew 10)
allowSystemOperations : Allowing user-supplied system call operations

// * * * * * * * * * * * * * * * * * * * * * * * * * * * * * * * * * * * * * //
Create time

Create mesh for time = 0

Reading transportProperties

Reading field p

Reading field U

Reading/calculating face flux field phi


Starting time loop

Time = 0.001

Courant Number mean: 0 max: 0
DILUPBiCGStab:  Solving for Ux, Initial residual = 1, Final residual = 1.12203e-10, No Iterations 5
DILUPBiCGStab:  Solving for Uy:  solution singularity
DILUPBiCGStab:  Solving for Uz:  solution singularity
linear solve U 2901
[OGL LOG] init_host_sparsity_pattern : 3 ms
[OGL LOG] matrix not stored update host matrix
[OGL LOG] update_host_mtx : 1 ms
[OGL LOG] matrix is not yet sorted, compute sorting idxs
[OGL LOG] compute_sort : 62 ms
[OGL LOG] matrix is not yet sorted, sorting host matrix
[OGL LOG] sort_host_mtx_sparsity_pattern : 1 ms
[OGL LOG] sort_host_mtx : 1 ms
[OGL LOG] init_preconditioner : 0 ms
[OGL LOG] solve : 34 ms
nonecudaGKOCG:  Solving for p, Initial residual = 1, Final residual = 7.43917e-05, No Iterations 152
linear solve p 1761055
time step continuity errors : sum local = 3.55241e-08, global = 1.24235e-20, cumulative = 1.24235e-20
[OGL LOG] init_host_sparsity_pattern : 3 ms
[OGL LOG] matrix not stored update host matrix
[OGL LOG] update_host_mtx : 1 ms
[OGL LOG] matrix is not yet sorted, sorting host matrix
[OGL LOG] sort_host_mtx_sparsity_pattern : 1 ms
[OGL LOG] sort_host_mtx : 0 ms
[OGL LOG] init_preconditioner : 0 ms
[OGL LOG] solve : 31 ms
nonecudaGKOCG:  Solving for p, Initial residual = 0.411873, Final residual = 8.96549e-05, No Iterations 146
linear solve p 39437
time step continuity errors : sum local = 7.17262e-08, global = -9.12582e-21, cumulative = 3.29766e-21
ExecutionTime = 1.85 s  ClockTime = 1 s

Time = 0.002

Courant Number mean: 0.00876191 max: 0.0682839
DILUPBiCGStab:  Solving for Ux, Initial residual = 0.225322, Final residual = 1.40293e-11, No Iterations 5
DILUPBiCGStab:  Solving for Uy, Initial residual = 0.289647, Final residual = 1.19241e-11, No Iterations 5
DILUPBiCGStab:  Solving for Uz, Initial residual = 0.825355, Final residual = 4.36315e-11, No Iterations 5
linear solve U 5031
[OGL LOG] init_host_sparsity_pattern : 3 ms
[OGL LOG] matrix not stored update host matrix
[OGL LOG] update_host_mtx : 1 ms
[OGL LOG] matrix is not yet sorted, sorting host matrix
[OGL LOG] sort_host_mtx_sparsity_pattern : 1 ms
[OGL LOG] sort_host_mtx : 0 ms
[OGL LOG] init_preconditioner : 0 ms
[OGL LOG] solve : 30 ms
nonecudaGKOCG:  Solving for p, Initial residual = 0.212753, Final residual = 9.78004e-05, No Iterations 142
linear solve p 38545
time step continuity errors : sum local = 7.39801e-08, global = 7.20598e-21, cumulative = 1.05036e-20
[OGL LOG] init_host_sparsity_pattern : 3 ms
[OGL LOG] matrix not stored update host matrix
[OGL LOG] update_host_mtx : 1 ms
[OGL LOG] matrix is not yet sorted, sorting host matrix
[OGL LOG] sort_host_mtx_sparsity_pattern : 1 ms
[OGL LOG] sort_host_mtx : 0 ms
[OGL LOG] init_preconditioner : 0 ms
[OGL LOG] solve : 29 ms
nonecudaGKOCG:  Solving for p, Initial residual = 0.123057, Final residual = 9.99274e-05, No Iterations 137
linear solve p 37420
time step continuity errors : sum local = 8.08157e-08, global = -1.14879e-20, cumulative = -9.84242e-22
ExecutionTime = 1.93 s  ClockTime = 2 s

Time = 0.003

Courant Number mean: 0.0142441 max: 0.104362
DILUPBiCGStab:  Solving for Ux, Initial residual = 0.102611, Final residual = 5.81881e-12, No Iterations 5
DILUPBiCGStab:  Solving for Uy, Initial residual = 0.135068, Final residual = 5.20353e-12, No Iterations 5
DILUPBiCGStab:  Solving for Uz, Initial residual = 0.293419, Final residual = 1.39851e-11, No Iterations 5
linear solve U 5026
[OGL LOG] init_host_sparsity_pattern : 3 ms
[OGL LOG] matrix not stored update host matrix
[OGL LOG] update_host_mtx : 1 ms
[OGL LOG] matrix is not yet sorted, sorting host matrix
[OGL LOG] sort_host_mtx_sparsity_pattern : 1 ms
[OGL LOG] sort_host_mtx : 0 ms
[OGL LOG] init_preconditioner : 0 ms
[OGL LOG] solve : 29 ms
nonecudaGKOCG:  Solving for p, Initial residual = 0.0914604, Final residual = 9.69806e-05, No Iterations 136
linear solve p 37259
time step continuity errors : sum local = 7.78853e-08, global = -3.54695e-21, cumulative = -4.53119e-21
[OGL LOG] init_host_sparsity_pattern : 3 ms
[OGL LOG] matrix not stored update host matrix
[OGL LOG] update_host_mtx : 1 ms
[OGL LOG] matrix is not yet sorted, sorting host matrix
[OGL LOG] sort_host_mtx_sparsity_pattern : 1 ms
[OGL LOG] sort_host_mtx : 0 ms
[OGL LOG] init_preconditioner : 0 ms
[OGL LOG] solve : 28 ms
nonecudaGKOCG:  Solving for p, Initial residual = 0.0549067, Final residual = 9.79147e-05, No Iterations 132
linear solve p 36412
time step continuity errors : sum local = 8.15162e-08, global = 5.42568e-21, cumulative = 8.94492e-22
ExecutionTime = 2.01 s  ClockTime = 2 s

Time = 0.004

Courant Number mean: 0.0178686 max: 0.123853
DILUPBiCGStab:  Solving for Ux, Initial residual = 0.0604262, Final residual = 2.83778e-12, No Iterations 5
DILUPBiCGStab:  Solving for Uy, Initial residual = 0.0809459, Final residual = 2.51627e-12, No Iterations 5
DILUPBiCGStab:  Solving for Uz, Initial residual = 0.154251, Final residual = 6.08133e-12, No Iterations 5
linear solve U 5002
[OGL LOG] init_host_sparsity_pattern : 3 ms
[OGL LOG] matrix not stored update host matrix
[OGL LOG] update_host_mtx : 1 ms
[OGL LOG] matrix is not yet sorted, sorting host matrix
[OGL LOG] sort_host_mtx_sparsity_pattern : 1 ms
[OGL LOG] sort_host_mtx : 0 ms
[OGL LOG] init_preconditioner : 0 ms
[OGL LOG] solve : 29 ms
nonecudaGKOCG:  Solving for p, Initial residual = 0.0542905, Final residual = 9.24321e-05, No Iterations 134
linear solve p 36843
time step continuity errors : sum local = 7.76958e-08, global = -1.64309e-21, cumulative = -7.48599e-22
[OGL LOG] init_host_sparsity_pattern : 3 ms
[OGL LOG] matrix not stored update host matrix
[OGL LOG] update_host_mtx : 1 ms
[OGL LOG] matrix is not yet sorted, sorting host matrix
[OGL LOG] sort_host_mtx_sparsity_pattern : 1 ms
[OGL LOG] sort_host_mtx : 0 ms
[OGL LOG] init_preconditioner : 0 ms
[OGL LOG] solve : 28 ms
nonecudaGKOCG:  Solving for p, Initial residual = 0.0314063, Final residual = 8.24025e-05, No Iterations 130
linear solve p 35989
time step continuity errors : sum local = 7.104e-08, global = -5.26976e-21, cumulative = -6.01836e-21
ExecutionTime = 2.09 s  ClockTime = 2 s

Time = 0.005

Courant Number mean: 0.0204635 max: 0.135215
DILUPBiCGStab:  Solving for Ux, Initial residual = 0.0403981, Final residual = 1.5989e-12, No Iterations 5
DILUPBiCGStab:  Solving for Uy, Initial residual = 0.0549633, Final residual = 1.29631e-12, No Iterations 5
DILUPBiCGStab:  Solving for Uz, Initial residual = 0.106655, Final residual = 3.64044e-12, No Iterations 5
linear solve U 5040
[OGL LOG] init_host_sparsity_pattern : 3 ms
[OGL LOG] matrix not stored update host matrix
[OGL LOG] update_host_mtx : 1 ms
[OGL LOG] matrix is not yet sorted, sorting host matrix
[OGL LOG] sort_host_mtx_sparsity_pattern : 1 ms
[OGL LOG] sort_host_mtx : 0 ms
[OGL LOG] init_preconditioner : 0 ms
[OGL LOG] solve : 28 ms
nonecudaGKOCG:  Solving for p, Initial residual = 0.0356772, Final residual = 8.81874e-05, No Iterations 132
linear solve p 36380
time step continuity errors : sum local = 7.69634e-08, global = 4.91728e-21, cumulative = -1.10108e-21
[OGL LOG] init_host_sparsity_pattern : 3 ms
[OGL LOG] matrix not stored update host matrix
[OGL LOG] update_host_mtx : 1 ms
[OGL LOG] matrix is not yet sorted, sorting host matrix
[OGL LOG] sort_host_mtx_sparsity_pattern : 1 ms
[OGL LOG] sort_host_mtx : 0 ms
[OGL LOG] init_preconditioner : 0 ms
[OGL LOG] solve : 28 ms
nonecudaGKOCG:  Solving for p, Initial residual = 0.0201443, Final residual = 7.44679e-05, No Iterations 129
linear solve p 35781
time step continuity errors : sum local = 6.60842e-08, global = -8.5653e-21, cumulative = -9.66638e-21
ExecutionTime = 2.17 s  ClockTime = 2 s

Time = 0.006

Courant Number mean: 0.0225084 max: 0.142365
DILUPBiCGStab:  Solving for Ux, Initial residual = 0.0295656, Final residual = 1.18814e-12, No Iterations 5
DILUPBiCGStab:  Solving for Uy, Initial residual = 0.0406127, Final residual = 8.47494e-13, No Iterations 5
DILUPBiCGStab:  Solving for Uz, Initial residual = 0.0811595, Final residual = 2.47887e-12, No Iterations 5
linear solve U 5026
[OGL LOG] init_host_sparsity_pattern : 3 ms
[OGL LOG] matrix not stored update host matrix
[OGL LOG] update_host_mtx : 1 ms
[OGL LOG] matrix is not yet sorted, sorting host matrix
[OGL LOG] sort_host_mtx_sparsity_pattern : 1 ms
[OGL LOG] sort_host_mtx : 0 ms
[OGL LOG] init_preconditioner : 0 ms
[OGL LOG] solve : 28 ms
nonecudaGKOCG:  Solving for p, Initial residual = 0.025419, Final residual = 7.90164e-05, No Iterations 131
linear solve p 36257
time step continuity errors : sum local = 7.08123e-08, global = -3.68375e-20, cumulative = -4.65038e-20
[OGL LOG] init_host_sparsity_pattern : 3 ms
[OGL LOG] matrix not stored update host matrix
[OGL LOG] update_host_mtx : 1 ms
[OGL LOG] matrix is not yet sorted, sorting host matrix
[OGL LOG] sort_host_mtx_sparsity_pattern : 1 ms
[OGL LOG] sort_host_mtx : 0 ms
[OGL LOG] init_preconditioner : 0 ms
[OGL LOG] solve : 27 ms
nonecudaGKOCG:  Solving for p, Initial residual = 0.0141151, Final residual = 8.08191e-05, No Iterations 128
linear solve p 35555
time step continuity errors : sum local = 7.33065e-08, global = -1.90977e-20, cumulative = -6.56015e-20
ExecutionTime = 2.25 s  ClockTime = 2 s

Time = 0.007

Courant Number mean: 0.0241614 max: 0.147196
DILUPBiCGStab:  Solving for Ux, Initial residual = 0.0229935, Final residual = 6.69589e-13, No Iterations 5
DILUPBiCGStab:  Solving for Uy, Initial residual = 0.0317461, Final residual = 6.50416e-13, No Iterations 5
DILUPBiCGStab:  Solving for Uz, Initial residual = 0.0648877, Final residual = 1.81081e-12, No Iterations 5
linear solve U 5021
[OGL LOG] init_host_sparsity_pattern : 3 ms
[OGL LOG] matrix not stored update host matrix
[OGL LOG] update_host_mtx : 1 ms
[OGL LOG] matrix is not yet sorted, sorting host matrix
[OGL LOG] sort_host_mtx_sparsity_pattern : 1 ms
[OGL LOG] sort_host_mtx : 0 ms
[OGL LOG] init_preconditioner : 0 ms
[OGL LOG] solve : 28 ms
nonecudaGKOCG:  Solving for p, Initial residual = 0.0186459, Final residual = 8.68394e-05, No Iterations 130
linear solve p 35996
time step continuity errors : sum local = 7.9305e-08, global = 4.88931e-21, cumulative = -6.07122e-20
[OGL LOG] init_host_sparsity_pattern : 3 ms
[OGL LOG] matrix not stored update host matrix
[OGL LOG] update_host_mtx : 1 ms
[OGL LOG] matrix is not yet sorted, sorting host matrix
[OGL LOG] sort_host_mtx_sparsity_pattern : 1 ms
[OGL LOG] sort_host_mtx : 0 ms
[OGL LOG] init_preconditioner : 0 ms
[OGL LOG] solve : 12 ms
nonecudaGKOCG:  Solving for p, Initial residual = 0.0104051, Final residual = 9.67263e-05, No Iterations 55
linear solve p 20056
time step continuity errors : sum local = 1.10114e-07, global = -9.8892e-21, cumulative = -7.06014e-20
ExecutionTime = 2.31 s  ClockTime = 2 s

Time = 0.008

Courant Number mean: 0.0255322 max: 0.150665
DILUPBiCGStab:  Solving for Ux, Initial residual = 0.018484, Final residual = 3.54299e-13, No Iterations 5
DILUPBiCGStab:  Solving for Uy, Initial residual = 0.0258052, Final residual = 5.05979e-13, No Iterations 5
DILUPBiCGStab:  Solving for Uz, Initial residual = 0.0535633, Final residual = 1.46432e-12, No Iterations 5
linear solve U 5009
[OGL LOG] init_host_sparsity_pattern : 3 ms
[OGL LOG] matrix not stored update host matrix
[OGL LOG] update_host_mtx : 1 ms
[OGL LOG] matrix is not yet sorted, sorting host matrix
[OGL LOG] sort_host_mtx_sparsity_pattern : 1 ms
[OGL LOG] sort_host_mtx : 0 ms
[OGL LOG] init_preconditioner : 0 ms
[OGL LOG] solve : 12 ms
nonecudaGKOCG:  Solving for p, Initial residual = 0.0148389, Final residual = 9.28837e-05, No Iterations 58
linear solve p 20664
time step continuity errors : sum local = 9.59071e-08, global = -1.87553e-20, cumulative = -8.93567e-20
[OGL LOG] init_host_sparsity_pattern : 3 ms
[OGL LOG] matrix not stored update host matrix
[OGL LOG] update_host_mtx : 1 ms
[OGL LOG] matrix is not yet sorted, sorting host matrix
[OGL LOG] sort_host_mtx_sparsity_pattern : 1 ms
[OGL LOG] sort_host_mtx : 0 ms
[OGL LOG] init_preconditioner : 0 ms
[OGL LOG] solve : 12 ms
nonecudaGKOCG:  Solving for p, Initial residual = 0.00837141, Final residual = 9.34769e-05, No Iterations 54
linear solve p 19844
time step continuity errors : sum local = 1.05626e-07, global = -1.2968e-20, cumulative = -1.02325e-19
ExecutionTime = 2.37 s  ClockTime = 2 s

Time = 0.009

Courant Number mean: 0.0266823 max: 0.153283
DILUPBiCGStab:  Solving for Ux, Initial residual = 0.0152523, Final residual = 2.01927e-13, No Iterations 5
DILUPBiCGStab:  Solving for Uy, Initial residual = 0.0215441, Final residual = 3.95835e-13, No Iterations 5
DILUPBiCGStab:  Solving for Uz, Initial residual = 0.0450839, Final residual = 1.09285e-12, No Iterations 5
linear solve U 5016
[OGL LOG] init_host_sparsity_pattern : 3 ms
[OGL LOG] matrix not stored update host matrix
[OGL LOG] update_host_mtx : 1 ms
[OGL LOG] matrix is not yet sorted, sorting host matrix
[OGL LOG] sort_host_mtx_sparsity_pattern : 1 ms
[OGL LOG] sort_host_mtx : 0 ms
[OGL LOG] init_preconditioner : 0 ms
[OGL LOG] solve : 12 ms
nonecudaGKOCG:  Solving for p, Initial residual = 0.0119868, Final residual = 9.40163e-05, No Iterations 56
linear solve p 20247
time step continuity errors : sum local = 8.89804e-08, global = 2.1145e-20, cumulative = -8.11797e-20
[OGL LOG] init_host_sparsity_pattern : 3 ms
[OGL LOG] matrix not stored update host matrix
[OGL LOG] update_host_mtx : 1 ms
[OGL LOG] matrix is not yet sorted, sorting host matrix
[OGL LOG] sort_host_mtx_sparsity_pattern : 1 ms
[OGL LOG] sort_host_mtx : 0 ms
[OGL LOG] init_preconditioner : 0 ms
[OGL LOG] solve : 11 ms
nonecudaGKOCG:  Solving for p, Initial residual = 0.00686813, Final residual = 8.4712e-05, No Iterations 53
linear solve p 19638
time step continuity errors : sum local = 8.98083e-08, global = 2.12027e-21, cumulative = -7.90594e-20
ExecutionTime = 2.41 s  ClockTime = 2 s

Time = 0.01

Courant Number mean: 0.0276669 max: 0.155336
DILUPBiCGStab:  Solving for Ux, Initial residual = 0.0129088, Final residual = 1.30914e-13, No Iterations 5
DILUPBiCGStab:  Solving for Uy, Initial residual = 0.0183567, Final residual = 3.10561e-13, No Iterations 5
DILUPBiCGStab:  Solving for Uz, Initial residual = 0.0386659, Final residual = 8.81178e-13, No Iterations 5
linear solve U 5012
[OGL LOG] init_host_sparsity_pattern : 3 ms
[OGL LOG] matrix not stored update host matrix
[OGL LOG] update_host_mtx : 1 ms
[OGL LOG] matrix is not yet sorted, sorting host matrix
[OGL LOG] sort_host_mtx_sparsity_pattern : 1 ms
[OGL LOG] sort_host_mtx : 0 ms
[OGL LOG] init_preconditioner : 0 ms
[OGL LOG] solve : 12 ms
nonecudaGKOCG:  Solving for p, Initial residual = 0.00996445, Final residual = 9.69955e-05, No Iterations 55
linear solve p 20049
time step continuity errors : sum local = 9.64651e-08, global = -4.33525e-21, cumulative = -8.33947e-20
[OGL LOG] init_host_sparsity_pattern : 3 ms
[OGL LOG] matrix not stored update host matrix
[OGL LOG] update_host_mtx : 1 ms
[OGL LOG] matrix is not yet sorted, sorting host matrix
[OGL LOG] sort_host_mtx_sparsity_pattern : 1 ms
[OGL LOG] sort_host_mtx : 0 ms
[OGL LOG] init_preconditioner : 0 ms
[OGL LOG] solve : 11 ms
nonecudaGKOCG:  Solving for p, Initial residual = 0.00578735, Final residual = 9.6367e-05, No Iterations 51
linear solve p 19292
time step continuity errors : sum local = 9.38742e-08, global = 1.9887e-20, cumulative = -6.35077e-20
ExecutionTime = 2.46 s  ClockTime = 2 s

End

