/*---------------------------------------------------------------------------*\
  =========                 |
  \\      /  F ield         | OpenFOAM: The Open Source CFD Toolbox
   \\    /   O peration     | Website:  https://openfoam.org
    \\  /    A nd           | Version:  8
     \\/     M anipulation  |
\*---------------------------------------------------------------------------*/
Build  : 8-14d69e1ee166
Exec   : icoFoam
Date   : Jul 29 2021
Time   : 08:38:26
Host   : "guyot.icl.utk.edu"
PID    : 156553
I/O    : uncollated
Case   : /home/greole/code/OBR/lidDrivenCavity3D/Variation_mesh/15/Variation_matrix_solver/BiCGStab_BJ_CUDA/base
nProcs : 1
sigFpe : Enabling floating point exception trapping (FOAM_SIGFPE).
fileModificationChecking : Monitoring run-time modified files using timeStampMaster (fileModificationSkew 10)
allowSystemOperations : Allowing user-supplied system call operations

// * * * * * * * * * * * * * * * * * * * * * * * * * * * * * * * * * * * * * //
Create time

Create mesh for time = 0

Reading transportProperties

Reading field p

Reading field U

Reading/calculating face flux field phi


Starting time loop

Time = 0.001

Courant Number mean: 0 max: 0
DILUPBiCGStab:  Solving for Ux, Initial residual = 1, Final residual = 1.1028e-13, No Iterations 5
DILUPBiCGStab:  Solving for Uy:  solution singularity
DILUPBiCGStab:  Solving for Uz:  solution singularity
linear solve U 1303
[OGL LOG] init_host_sparsity_pattern : 1 ms
[OGL LOG] matrix not stored update host matrix
[OGL LOG] update_host_mtx : 0 ms
[OGL LOG] matrix is not yet sorted, compute sorting idxs
[OGL LOG] compute_sort : 23 ms
[OGL LOG] matrix is not yet sorted, sorting host matrix
[OGL LOG] sort_host_mtx_sparsity_pattern : 0 ms
[OGL LOG] sort_host_mtx : 0 ms
[OGL LOG] init_preconditioner : 1 ms
[OGL LOG] solve : 32 ms
BJcudaGKOBiCGStab:  Solving for p, Initial residual = 1, Final residual = 3.79915e-05, No Iterations 71
linear solve p 1700137
time step continuity errors : sum local = 2.88288e-08, global = 4.05732e-21, cumulative = 4.05732e-21
[OGL LOG] init_host_sparsity_pattern : 1 ms
[OGL LOG] matrix not stored update host matrix
[OGL LOG] update_host_mtx : 0 ms
[OGL LOG] matrix is not yet sorted, sorting host matrix
[OGL LOG] sort_host_mtx_sparsity_pattern : 0 ms
[OGL LOG] sort_host_mtx : 0 ms
[OGL LOG] init_preconditioner : 0 ms
[OGL LOG] solve : 28 ms
BJcudaGKOBiCGStab:  Solving for p, Initial residual = 0.316845, Final residual = 6.64347e-05, No Iterations 64
linear solve p 31723
time step continuity errors : sum local = 9.49595e-08, global = 3.47592e-21, cumulative = 7.53324e-21
ExecutionTime = 1.8 s  ClockTime = 2 s

Time = 0.002

Courant Number mean: 0.00559466 max: 0.0357002
DILUPBiCGStab:  Solving for Ux, Initial residual = 0.242428, Final residual = 1.13983e-14, No Iterations 5
DILUPBiCGStab:  Solving for Uy, Initial residual = 0.296182, Final residual = 1.12424e-14, No Iterations 5
DILUPBiCGStab:  Solving for Uz, Initial residual = 0.681179, Final residual = 3.06635e-14, No Iterations 5
linear solve U 2096
[OGL LOG] init_host_sparsity_pattern : 1 ms
[OGL LOG] matrix not stored update host matrix
[OGL LOG] update_host_mtx : 0 ms
[OGL LOG] matrix is not yet sorted, sorting host matrix
[OGL LOG] sort_host_mtx_sparsity_pattern : 0 ms
[OGL LOG] sort_host_mtx : 0 ms
[OGL LOG] init_preconditioner : 0 ms
[OGL LOG] solve : 26 ms
BJcudaGKOBiCGStab:  Solving for p, Initial residual = 0.157005, Final residual = 7.44545e-05, No Iterations 60
linear solve p 29709
time step continuity errors : sum local = 1.02289e-07, global = -4.64772e-21, cumulative = 2.88552e-21
[OGL LOG] init_host_sparsity_pattern : 1 ms
[OGL LOG] matrix not stored update host matrix
[OGL LOG] update_host_mtx : 0 ms
[OGL LOG] matrix is not yet sorted, sorting host matrix
[OGL LOG] sort_host_mtx_sparsity_pattern : 0 ms
[OGL LOG] sort_host_mtx : 0 ms
[OGL LOG] init_preconditioner : 0 ms
[OGL LOG] solve : 24 ms
BJcudaGKOBiCGStab:  Solving for p, Initial residual = 0.0605952, Final residual = 8.59655e-05, No Iterations 55
linear solve p 27737
time step continuity errors : sum local = 1.34132e-07, global = 1.08749e-20, cumulative = 1.37605e-20
ExecutionTime = 1.85 s  ClockTime = 2 s

Time = 0.003

Courant Number mean: 0.00940317 max: 0.05873
DILUPBiCGStab:  Solving for Ux, Initial residual = 0.117913, Final residual = 5.34302e-15, No Iterations 5
DILUPBiCGStab:  Solving for Uy, Initial residual = 0.148816, Final residual = 5.34986e-15, No Iterations 5
DILUPBiCGStab:  Solving for Uz, Initial residual = 0.329148, Final residual = 1.8576e-14, No Iterations 5
linear solve U 2103
[OGL LOG] init_host_sparsity_pattern : 1 ms
[OGL LOG] matrix not stored update host matrix
[OGL LOG] update_host_mtx : 0 ms
[OGL LOG] matrix is not yet sorted, sorting host matrix
[OGL LOG] sort_host_mtx_sparsity_pattern : 0 ms
[OGL LOG] sort_host_mtx : 0 ms
[OGL LOG] init_preconditioner : 0 ms
[OGL LOG] solve : 14 ms
BJcudaGKOBiCGStab:  Solving for p, Initial residual = 0.0761514, Final residual = 9.19362e-05, No Iterations 32
linear solve p 18042
time step continuity errors : sum local = 1.27547e-07, global = 3.18506e-20, cumulative = 4.56111e-20
[OGL LOG] init_host_sparsity_pattern : 1 ms
[OGL LOG] matrix not stored update host matrix
[OGL LOG] update_host_mtx : 0 ms
[OGL LOG] matrix is not yet sorted, sorting host matrix
[OGL LOG] sort_host_mtx_sparsity_pattern : 0 ms
[OGL LOG] sort_host_mtx : 0 ms
[OGL LOG] init_preconditioner : 0 ms
[OGL LOG] solve : 9 ms
BJcudaGKOBiCGStab:  Solving for p, Initial residual = 0.0342202, Final residual = 9.5795e-05, No Iterations 21
linear solve p 13405
time step continuity errors : sum local = 8.95715e-08, global = -1.98854e-20, cumulative = 2.57256e-20
ExecutionTime = 1.89 s  ClockTime = 2 s

Time = 0.004

Courant Number mean: 0.0121905 max: 0.0737271
DILUPBiCGStab:  Solving for Ux, Initial residual = 0.0723215, Final residual = 2.9904e-15, No Iterations 5
DILUPBiCGStab:  Solving for Uy, Initial residual = 0.0916694, Final residual = 3.0211e-15, No Iterations 5
DILUPBiCGStab:  Solving for Uz, Initial residual = 0.183554, Final residual = 7.08858e-15, No Iterations 5
linear solve U 2102
[OGL LOG] init_host_sparsity_pattern : 1 ms
[OGL LOG] matrix not stored update host matrix
[OGL LOG] update_host_mtx : 0 ms
[OGL LOG] matrix is not yet sorted, sorting host matrix
[OGL LOG] sort_host_mtx_sparsity_pattern : 0 ms
[OGL LOG] sort_host_mtx : 0 ms
[OGL LOG] init_preconditioner : 0 ms
[OGL LOG] solve : 21 ms
BJcudaGKOBiCGStab:  Solving for p, Initial residual = 0.0492854, Final residual = 9.24375e-05, No Iterations 49
linear solve p 25113
time step continuity errors : sum local = 1.41467e-07, global = 8.0129e-21, cumulative = 3.37385e-20
[OGL LOG] init_host_sparsity_pattern : 1 ms
[OGL LOG] matrix not stored update host matrix
[OGL LOG] update_host_mtx : 0 ms
[OGL LOG] matrix is not yet sorted, sorting host matrix
[OGL LOG] sort_host_mtx_sparsity_pattern : 0 ms
[OGL LOG] sort_host_mtx : 0 ms
[OGL LOG] init_preconditioner : 0 ms
[OGL LOG] solve : 9 ms
BJcudaGKOBiCGStab:  Solving for p, Initial residual = 0.0221601, Final residual = 9.71074e-05, No Iterations 20
linear solve p 12978
time step continuity errors : sum local = 8.75469e-08, global = -1.94942e-20, cumulative = 1.42444e-20
ExecutionTime = 1.94 s  ClockTime = 2 s

Time = 0.005

Courant Number mean: 0.0143059 max: 0.0838052
DILUPBiCGStab:  Solving for Ux, Initial residual = 0.0485429, Final residual = 1.79949e-15, No Iterations 5
DILUPBiCGStab:  Solving for Uy, Initial residual = 0.0627618, Final residual = 1.74753e-15, No Iterations 5
DILUPBiCGStab:  Solving for Uz, Initial residual = 0.129832, Final residual = 5.6638e-15, No Iterations 5
linear solve U 2094
[OGL LOG] init_host_sparsity_pattern : 1 ms
[OGL LOG] matrix not stored update host matrix
[OGL LOG] update_host_mtx : 0 ms
[OGL LOG] matrix is not yet sorted, sorting host matrix
[OGL LOG] sort_host_mtx_sparsity_pattern : 0 ms
[OGL LOG] sort_host_mtx : 0 ms
[OGL LOG] init_preconditioner : 0 ms
[OGL LOG] solve : 12 ms
BJcudaGKOBiCGStab:  Solving for p, Initial residual = 0.0359311, Final residual = 9.21961e-05, No Iterations 27
linear solve p 15775
time step continuity errors : sum local = 1.60728e-07, global = 2.35521e-20, cumulative = 3.77965e-20
[OGL LOG] init_host_sparsity_pattern : 1 ms
[OGL LOG] matrix not stored update host matrix
[OGL LOG] update_host_mtx : 0 ms
[OGL LOG] matrix is not yet sorted, sorting host matrix
[OGL LOG] sort_host_mtx_sparsity_pattern : 0 ms
[OGL LOG] sort_host_mtx : 0 ms
[OGL LOG] init_preconditioner : 0 ms
[OGL LOG] solve : 9 ms
BJcudaGKOBiCGStab:  Solving for p, Initial residual = 0.015285, Final residual = 7.5617e-05, No Iterations 20
linear solve p 12914
time step continuity errors : sum local = 1.13957e-07, global = -4.88822e-21, cumulative = 3.29082e-20
ExecutionTime = 1.97 s  ClockTime = 2 s

Time = 0.006

Courant Number mean: 0.0159485 max: 0.0908034
DILUPBiCGStab:  Solving for Ux, Initial residual = 0.0353466, Final residual = 1.17459e-15, No Iterations 5
DILUPBiCGStab:  Solving for Uy, Initial residual = 0.0461022, Final residual = 1.06325e-15, No Iterations 5
DILUPBiCGStab:  Solving for Uz, Initial residual = 0.0995932, Final residual = 3.84717e-15, No Iterations 5
linear solve U 2090
[OGL LOG] init_host_sparsity_pattern : 1 ms
[OGL LOG] matrix not stored update host matrix
[OGL LOG] update_host_mtx : 0 ms
[OGL LOG] matrix is not yet sorted, sorting host matrix
[OGL LOG] sort_host_mtx_sparsity_pattern : 0 ms
[OGL LOG] sort_host_mtx : 0 ms
[OGL LOG] init_preconditioner : 0 ms
[OGL LOG] solve : 25 ms
BJcudaGKOBiCGStab:  Solving for p, Initial residual = 0.028845, Final residual = 9.36791e-05, No Iterations 59
linear solve p 29257
time step continuity errors : sum local = 9.13295e-08, global = -4.05567e-20, cumulative = -7.64842e-21
[OGL LOG] init_host_sparsity_pattern : 1 ms
[OGL LOG] matrix not stored update host matrix
[OGL LOG] update_host_mtx : 0 ms
[OGL LOG] matrix is not yet sorted, sorting host matrix
[OGL LOG] sort_host_mtx_sparsity_pattern : 0 ms
[OGL LOG] sort_host_mtx : 0 ms
[OGL LOG] init_preconditioner : 0 ms
[OGL LOG] solve : 9 ms
BJcudaGKOBiCGStab:  Solving for p, Initial residual = 0.0110168, Final residual = 6.12624e-05, No Iterations 20
linear solve p 12947
time step continuity errors : sum local = 9.28839e-08, global = 2.57967e-20, cumulative = 1.81482e-20
ExecutionTime = 2.01 s  ClockTime = 2 s

Time = 0.007

Courant Number mean: 0.0172717 max: 0.0958253
DILUPBiCGStab:  Solving for Ux, Initial residual = 0.0271459, Final residual = 8.7147e-16, No Iterations 5
DILUPBiCGStab:  Solving for Uy, Initial residual = 0.0356619, Final residual = 7.40052e-16, No Iterations 5
DILUPBiCGStab:  Solving for Uz, Initial residual = 0.080237, Final residual = 3.513e-15, No Iterations 5
linear solve U 2082
[OGL LOG] init_host_sparsity_pattern : 1 ms
[OGL LOG] matrix not stored update host matrix
[OGL LOG] update_host_mtx : 0 ms
[OGL LOG] matrix is not yet sorted, sorting host matrix
[OGL LOG] sort_host_mtx_sparsity_pattern : 0 ms
[OGL LOG] sort_host_mtx : 0 ms
[OGL LOG] init_preconditioner : 0 ms
[OGL LOG] solve : 11 ms
BJcudaGKOBiCGStab:  Solving for p, Initial residual = 0.0218645, Final residual = 9.22487e-05, No Iterations 24
linear solve p 14628
time step continuity errors : sum local = 1.1153e-07, global = 9.43193e-21, cumulative = 2.75802e-20
[OGL LOG] init_host_sparsity_pattern : 1 ms
[OGL LOG] matrix not stored update host matrix
[OGL LOG] update_host_mtx : 0 ms
[OGL LOG] matrix is not yet sorted, sorting host matrix
[OGL LOG] sort_host_mtx_sparsity_pattern : 0 ms
[OGL LOG] sort_host_mtx : 0 ms
[OGL LOG] init_preconditioner : 0 ms
[OGL LOG] solve : 9 ms
BJcudaGKOBiCGStab:  Solving for p, Initial residual = 0.00867236, Final residual = 7.08147e-05, No Iterations 19
linear solve p 12521
time step continuity errors : sum local = 1.03628e-07, global = -6.85712e-21, cumulative = 2.07231e-20
ExecutionTime = 2.05 s  ClockTime = 2 s

Time = 0.008

Courant Number mean: 0.0183552 max: 0.0995504
DILUPBiCGStab:  Solving for Ux, Initial residual = 0.0216484, Final residual = 6.39187e-16, No Iterations 5
DILUPBiCGStab:  Solving for Uy, Initial residual = 0.028619, Final residual = 5.78885e-16, No Iterations 5
DILUPBiCGStab:  Solving for Uz, Initial residual = 0.0649447, Final residual = 2.41005e-15, No Iterations 5
linear solve U 2089
[OGL LOG] init_host_sparsity_pattern : 1 ms
[OGL LOG] matrix not stored update host matrix
[OGL LOG] update_host_mtx : 0 ms
[OGL LOG] matrix is not yet sorted, sorting host matrix
[OGL LOG] sort_host_mtx_sparsity_pattern : 0 ms
[OGL LOG] sort_host_mtx : 0 ms
[OGL LOG] init_preconditioner : 0 ms
[OGL LOG] solve : 10 ms
BJcudaGKOBiCGStab:  Solving for p, Initial residual = 0.0163132, Final residual = 9.72664e-05, No Iterations 23
linear solve p 14036
time step continuity errors : sum local = 9.56025e-08, global = -6.78123e-21, cumulative = 1.39418e-20
[OGL LOG] init_host_sparsity_pattern : 1 ms
[OGL LOG] matrix not stored update host matrix
[OGL LOG] update_host_mtx : 0 ms
[OGL LOG] matrix is not yet sorted, sorting host matrix
[OGL LOG] sort_host_mtx_sparsity_pattern : 0 ms
[OGL LOG] sort_host_mtx : 0 ms
[OGL LOG] init_preconditioner : 0 ms
[OGL LOG] solve : 9 ms
BJcudaGKOBiCGStab:  Solving for p, Initial residual = 0.00666982, Final residual = 6.61747e-05, No Iterations 19
linear solve p 12518
time step continuity errors : sum local = 7.95865e-08, global = -5.49765e-21, cumulative = 8.44417e-21
ExecutionTime = 2.07 s  ClockTime = 2 s

Time = 0.009

Courant Number mean: 0.0192551 max: 0.102395
DILUPBiCGStab:  Solving for Ux, Initial residual = 0.0176716, Final residual = 4.37174e-16, No Iterations 5
DILUPBiCGStab:  Solving for Uy, Initial residual = 0.0236343, Final residual = 4.82752e-16, No Iterations 5
DILUPBiCGStab:  Solving for Uz, Initial residual = 0.0545464, Final residual = 1.87188e-15, No Iterations 5
linear solve U 2093
[OGL LOG] init_host_sparsity_pattern : 1 ms
[OGL LOG] matrix not stored update host matrix
[OGL LOG] update_host_mtx : 0 ms
[OGL LOG] matrix is not yet sorted, sorting host matrix
[OGL LOG] sort_host_mtx_sparsity_pattern : 0 ms
[OGL LOG] sort_host_mtx : 0 ms
[OGL LOG] init_preconditioner : 0 ms
[OGL LOG] solve : 10 ms
BJcudaGKOBiCGStab:  Solving for p, Initial residual = 0.0132504, Final residual = 7.98631e-05, No Iterations 22
linear solve p 13817
time step continuity errors : sum local = 9.34815e-08, global = 1.17557e-20, cumulative = 2.01999e-20
[OGL LOG] init_host_sparsity_pattern : 1 ms
[OGL LOG] matrix not stored update host matrix
[OGL LOG] update_host_mtx : 0 ms
[OGL LOG] matrix is not yet sorted, sorting host matrix
[OGL LOG] sort_host_mtx_sparsity_pattern : 0 ms
[OGL LOG] sort_host_mtx : 0 ms
[OGL LOG] init_preconditioner : 0 ms
[OGL LOG] solve : 9 ms
BJcudaGKOBiCGStab:  Solving for p, Initial residual = 0.00540278, Final residual = 9.7261e-05, No Iterations 19
linear solve p 12542
time step continuity errors : sum local = 1.00182e-07, global = -1.39138e-20, cumulative = 6.28606e-21
ExecutionTime = 2.1 s  ClockTime = 2 s

Time = 0.01

Courant Number mean: 0.0200142 max: 0.104627
DILUPBiCGStab:  Solving for Ux, Initial residual = 0.0147201, Final residual = 2.84408e-16, No Iterations 5
DILUPBiCGStab:  Solving for Uy, Initial residual = 0.0199449, Final residual = 4.01373e-16, No Iterations 5
DILUPBiCGStab:  Solving for Uz, Initial residual = 0.0465029, Final residual = 1.53355e-15, No Iterations 5
linear solve U 2084
[OGL LOG] init_host_sparsity_pattern : 1 ms
[OGL LOG] matrix not stored update host matrix
[OGL LOG] update_host_mtx : 0 ms
[OGL LOG] matrix is not yet sorted, sorting host matrix
[OGL LOG] sort_host_mtx_sparsity_pattern : 0 ms
[OGL LOG] sort_host_mtx : 0 ms
[OGL LOG] init_preconditioner : 0 ms
[OGL LOG] solve : 10 ms
BJcudaGKOBiCGStab:  Solving for p, Initial residual = 0.0111833, Final residual = 9.59171e-05, No Iterations 22
linear solve p 13578
time step continuity errors : sum local = 1.25319e-07, global = 8.43538e-21, cumulative = 1.47214e-20
[OGL LOG] init_host_sparsity_pattern : 1 ms
[OGL LOG] matrix not stored update host matrix
[OGL LOG] update_host_mtx : 0 ms
[OGL LOG] matrix is not yet sorted, sorting host matrix
[OGL LOG] sort_host_mtx_sparsity_pattern : 0 ms
[OGL LOG] sort_host_mtx : 0 ms
[OGL LOG] init_preconditioner : 0 ms
[OGL LOG] solve : 9 ms
BJcudaGKOBiCGStab:  Solving for p, Initial residual = 0.00452847, Final residual = 8.95987e-05, No Iterations 19
linear solve p 12519
time step continuity errors : sum local = 1.11025e-07, global = 9.30474e-21, cumulative = 2.40262e-20
ExecutionTime = 2.14 s  ClockTime = 2 s

End

