/*---------------------------------------------------------------------------*\
  =========                 |
  \\      /  F ield         | OpenFOAM: The Open Source CFD Toolbox
   \\    /   O peration     | Website:  https://openfoam.org
    \\  /    A nd           | Version:  8
     \\/     M anipulation  |
\*---------------------------------------------------------------------------*/
Build  : 8-ef60d22ea792
Exec   : icoFoam
Date   : Jul 29 2021
Time   : 03:56:08
Host   : "uc2n489.localdomain"
PID    : 3423339
I/O    : uncollated
Case   : /pfs/data5/home/kit/scc/nq7776/code/OBR/lidDrivenCavity3D/Variation_mesh/85/Variation_matrix_solver/BiCGStab_NoPrecond_CUDA/base
nProcs : 1
sigFpe : Enabling floating point exception trapping (FOAM_SIGFPE).
fileModificationChecking : Monitoring run-time modified files using timeStampMaster (fileModificationSkew 10)
allowSystemOperations : Allowing user-supplied system call operations

// * * * * * * * * * * * * * * * * * * * * * * * * * * * * * * * * * * * * * //
Create time

Create mesh for time = 0

Reading transportProperties

Reading field p

Reading field U

Reading/calculating face flux field phi


Starting time loop

Time = 0.001

Courant Number mean: 0 max: 0
DILUPBiCGStab:  Solving for Ux, Initial residual = 1, Final residual = 0.00382019, No Iterations 5
DILUPBiCGStab:  Solving for Uy:  solution singularity
DILUPBiCGStab:  Solving for Uz:  solution singularity
linear solve U 301263
[OGL LOG] init_host_sparsity_pattern : 174 ms
[OGL LOG] matrix not stored update host matrix
[OGL LOG] update_host_mtx : 90 ms
[OGL LOG] matrix is not yet sorted, compute sorting idxs
[OGL LOG] compute_sort : 5468 ms
[OGL LOG] matrix is not yet sorted, sorting host matrix
[OGL LOG] sort_host_mtx_sparsity_pattern : 123 ms
[OGL LOG] sort_host_mtx : 72 ms
[OGL LOG] init_preconditioner : 0 ms
[OGL LOG] solve : 878 ms
nonecudaGKOBiCGStab:  Solving for p, Initial residual = 1, Final residual = 6.35999e-05, No Iterations 561
linear solve p 7598065
time step continuity errors : sum local = 0.00265934, global = 5.81431e-18, cumulative = 5.81431e-18
[OGL LOG] init_host_sparsity_pattern : 175 ms
[OGL LOG] matrix not stored update host matrix
[OGL LOG] update_host_mtx : 90 ms
[OGL LOG] matrix is not yet sorted, sorting host matrix
[OGL LOG] sort_host_mtx_sparsity_pattern : 126 ms
[OGL LOG] sort_host_mtx : 65 ms
[OGL LOG] init_preconditioner : 0 ms
[OGL LOG] solve : 353 ms
nonecudaGKOBiCGStab:  Solving for p, Initial residual = 0.957446, Final residual = 9.73118e-05, No Iterations 218
linear solve p 850089
time step continuity errors : sum local = 5.21126e-07, global = -8.97284e-22, cumulative = 5.81341e-18
ExecutionTime = 11.34 s  ClockTime = 11 s

Time = 0.002

Courant Number mean: 0.0480052 max: 0.667299
DILUPBiCGStab:  Solving for Ux, Initial residual = 0.145226, Final residual = 0.00148435, No Iterations 5
DILUPBiCGStab:  Solving for Uy, Initial residual = 0.401769, Final residual = 0.00377154, No Iterations 5
DILUPBiCGStab:  Solving for Uz, Initial residual = 0.884421, Final residual = 0.0153812, No Iterations 5
linear solve U 600037
[OGL LOG] init_host_sparsity_pattern : 167 ms
[OGL LOG] matrix not stored update host matrix
[OGL LOG] update_host_mtx : 90 ms
[OGL LOG] matrix is not yet sorted, sorting host matrix
[OGL LOG] sort_host_mtx_sparsity_pattern : 130 ms
[OGL LOG] sort_host_mtx : 65 ms
[OGL LOG] init_preconditioner : 0 ms
[OGL LOG] solve : 713 ms
nonecudaGKOBiCGStab:  Solving for p, Initial residual = 0.984439, Final residual = 5.71392e-05, No Iterations 447
linear solve p 1205674
time step continuity errors : sum local = 0.0813023, global = -8.67815e-17, cumulative = -8.09681e-17
[OGL LOG] init_host_sparsity_pattern : 177 ms
[OGL LOG] matrix not stored update host matrix
[OGL LOG] update_host_mtx : 93 ms
[OGL LOG] matrix is not yet sorted, sorting host matrix
[OGL LOG] sort_host_mtx_sparsity_pattern : 131 ms
[OGL LOG] sort_host_mtx : 64 ms
[OGL LOG] init_preconditioner : 0 ms
[OGL LOG] solve : 283 ms
nonecudaGKOBiCGStab:  Solving for p, Initial residual = 0.909403, Final residual = 9.76016e-05, No Iterations 171
linear solve p 790743
time step continuity errors : sum local = 2.62187e-05, global = 1.72657e-19, cumulative = -8.07954e-17
ExecutionTime = 14.3 s  ClockTime = 14 s

Time = 0.003

Courant Number mean: 0.0832251 max: 1.10792
DILUPBiCGStab:  Solving for Ux, Initial residual = 0.0848672, Final residual = 0.000752871, No Iterations 5
DILUPBiCGStab:  Solving for Uy, Initial residual = 0.385551, Final residual = 0.00838638, No Iterations 5
DILUPBiCGStab:  Solving for Uz, Initial residual = 0.866319, Final residual = 0.0153564, No Iterations 5
linear solve U 595219
[OGL LOG] init_host_sparsity_pattern : 167 ms
[OGL LOG] matrix not stored update host matrix
[OGL LOG] update_host_mtx : 90 ms
[OGL LOG] matrix is not yet sorted, sorting host matrix
[OGL LOG] sort_host_mtx_sparsity_pattern : 126 ms
[OGL LOG] sort_host_mtx : 65 ms
[OGL LOG] init_preconditioner : 0 ms
[OGL LOG] solve : 730 ms
nonecudaGKOBiCGStab:  Solving for p, Initial residual = 0.99895, Final residual = 5.89633e-05, No Iterations 448
linear solve p 1219350
time step continuity errors : sum local = 0.560157, global = -3.17522e-16, cumulative = -3.98318e-16
[OGL LOG] init_host_sparsity_pattern : 177 ms
[OGL LOG] matrix not stored update host matrix
[OGL LOG] update_host_mtx : 91 ms
[OGL LOG] matrix is not yet sorted, sorting host matrix
[OGL LOG] sort_host_mtx_sparsity_pattern : 126 ms
[OGL LOG] sort_host_mtx : 65 ms
[OGL LOG] init_preconditioner : 0 ms
[OGL LOG] solve : 250 ms
nonecudaGKOBiCGStab:  Solving for p, Initial residual = 0.797936, Final residual = 8.87509e-05, No Iterations 150
linear solve p 753519
time step continuity errors : sum local = 0.000732545, global = 1.10859e-18, cumulative = -3.97209e-16
ExecutionTime = 17.24 s  ClockTime = 17 s

Time = 0.004

Courant Number mean: 0.461352 max: 7.01676
DILUPBiCGStab:  Solving for Ux, Initial residual = 0.396779, Final residual = 0.00403307, No Iterations 5
DILUPBiCGStab:  Solving for Uy, Initial residual = 0.694847, Final residual = 0.0144617, No Iterations 5
DILUPBiCGStab:  Solving for Uz, Initial residual = 0.848188, Final residual = 0.0148471, No Iterations 5
linear solve U 592802
[OGL LOG] init_host_sparsity_pattern : 168 ms
[OGL LOG] matrix not stored update host matrix
[OGL LOG] update_host_mtx : 90 ms
[OGL LOG] matrix is not yet sorted, sorting host matrix
[OGL LOG] sort_host_mtx_sparsity_pattern : 129 ms
[OGL LOG] sort_host_mtx : 65 ms
[OGL LOG] init_preconditioner : 0 ms
[OGL LOG] solve : 722 ms
nonecudaGKOBiCGStab:  Solving for p, Initial residual = 0.997082, Final residual = 7.93597e-05, No Iterations 444
linear solve p 1216485
time step continuity errors : sum local = 0.000470495, global = -3.26943e-18, cumulative = -4.00479e-16
[OGL LOG] init_host_sparsity_pattern : 175 ms
[OGL LOG] matrix not stored update host matrix
[OGL LOG] update_host_mtx : 90 ms
[OGL LOG] matrix is not yet sorted, sorting host matrix
[OGL LOG] sort_host_mtx_sparsity_pattern : 128 ms
[OGL LOG] sort_host_mtx : 65 ms
[OGL LOG] init_preconditioner : 0 ms
[OGL LOG] solve : 715 ms
nonecudaGKOBiCGStab:  Solving for p, Initial residual = 0.895284, Final residual = 9.41986e-05, No Iterations 437
linear solve p 1213793
time step continuity errors : sum local = 0.551498, global = 8.78072e-16, cumulative = 4.77593e-16
ExecutionTime = 20.63 s  ClockTime = 21 s

Time = 0.005

Courant Number mean: 3.01415 max: 87.9883
DILUPBiCGStab:  Solving for Ux, Initial residual = 0.872544, Final residual = 0.0234884, No Iterations 5
DILUPBiCGStab:  Solving for Uy, Initial residual = 0.89024, Final residual = 0.0797312, No Iterations 5
DILUPBiCGStab:  Solving for Uz, Initial residual = 0.75517, Final residual = 0.0263416, No Iterations 5
linear solve U 592590
[OGL LOG] init_host_sparsity_pattern : 170 ms
[OGL LOG] matrix not stored update host matrix
[OGL LOG] update_host_mtx : 90 ms
[OGL LOG] matrix is not yet sorted, sorting host matrix
[OGL LOG] sort_host_mtx_sparsity_pattern : 126 ms
[OGL LOG] sort_host_mtx : 65 ms
[OGL LOG] init_preconditioner : 0 ms
[OGL LOG] solve : 883 ms
nonecudaGKOBiCGStab:  Solving for p, Initial residual = 0.954142, Final residual = 9.63761e-05, No Iterations 544
linear solve p 1375469
time step continuity errors : sum local = 4.01911, global = -9.45334e-15, cumulative = -8.97575e-15
[OGL LOG] init_host_sparsity_pattern : 178 ms
[OGL LOG] matrix not stored update host matrix
[OGL LOG] update_host_mtx : 90 ms
[OGL LOG] matrix is not yet sorted, sorting host matrix
[OGL LOG] sort_host_mtx_sparsity_pattern : 126 ms
[OGL LOG] sort_host_mtx : 64 ms
[OGL LOG] init_preconditioner : 0 ms
[OGL LOG] solve : 370 ms
nonecudaGKOBiCGStab:  Solving for p, Initial residual = 0.617153, Final residual = 8.872e-05, No Iterations 225
linear solve p 869188
time step continuity errors : sum local = 0.00696699, global = 2.05266e-17, cumulative = -8.95522e-15
ExecutionTime = 23.84 s  ClockTime = 24 s

Time = 0.006

Courant Number mean: 7.05919 max: 647.309
DILUPBiCGStab:  Solving for Ux, Initial residual = 0.860638, Final residual = 0.191049, No Iterations 5
DILUPBiCGStab:  Solving for Uy, Initial residual = 0.846665, Final residual = 0.133139, No Iterations 5
DILUPBiCGStab:  Solving for Uz, Initial residual = 0.787163, Final residual = 0.152574, No Iterations 5
linear solve U 592986
[OGL LOG] init_host_sparsity_pattern : 166 ms
[OGL LOG] matrix not stored update host matrix
[OGL LOG] update_host_mtx : 92 ms
[OGL LOG] matrix is not yet sorted, sorting host matrix
[OGL LOG] sort_host_mtx_sparsity_pattern : 126 ms
[OGL LOG] sort_host_mtx : 65 ms
[OGL LOG] init_preconditioner : 0 ms
[OGL LOG] solve : 395 ms
nonecudaGKOBiCGStab:  Solving for p, Initial residual = 0.856634, Final residual = 9.97523e-05, No Iterations 240
linear solve p 889335
time step continuity errors : sum local = 0.0014685, global = -2.5764e-18, cumulative = -8.9578e-15
[OGL LOG] init_host_sparsity_pattern : 175 ms
[OGL LOG] matrix not stored update host matrix
[OGL LOG] update_host_mtx : 90 ms
[OGL LOG] matrix is not yet sorted, sorting host matrix
[OGL LOG] sort_host_mtx_sparsity_pattern : 126 ms
[OGL LOG] sort_host_mtx : 65 ms
[OGL LOG] init_preconditioner : 0 ms
[OGL LOG] solve : 820 ms
nonecudaGKOBiCGStab:  Solving for p, Initial residual = 0.800337, Final residual = 9.56709e-05, No Iterations 503
linear solve p 1317203
time step continuity errors : sum local = 0.00212464, global = 7.13112e-18, cumulative = -8.95067e-15
ExecutionTime = 27.03 s  ClockTime = 27 s

Time = 0.007

Courant Number mean: 25.3902 max: 4552.24
DILUPBiCGStab:  Solving for Ux, Initial residual = 0.898043, Final residual = 0.713233, No Iterations 5
DILUPBiCGStab:  Solving for Uy, Initial residual = 0.911041, Final residual = 1.13031, No Iterations 5
DILUPBiCGStab:  Solving for Uz, Initial residual = 0.914562, Final residual = 1.0208, No Iterations 5
linear solve U 595666
[OGL LOG] init_host_sparsity_pattern : 166 ms
[OGL LOG] matrix not stored update host matrix
[OGL LOG] update_host_mtx : 90 ms
[OGL LOG] matrix is not yet sorted, sorting host matrix
[OGL LOG] sort_host_mtx_sparsity_pattern : 130 ms
[OGL LOG] sort_host_mtx : 65 ms
[OGL LOG] init_preconditioner : 0 ms
[OGL LOG] solve : 842 ms
nonecudaGKOBiCGStab:  Solving for p, Initial residual = 0.913348, Final residual = 9.80153e-05, No Iterations 515
linear solve p 1332218
time step continuity errors : sum local = 10.2407, global = -2.42164e-16, cumulative = -9.19283e-15
[OGL LOG] init_host_sparsity_pattern : 175 ms
[OGL LOG] matrix not stored update host matrix
[OGL LOG] update_host_mtx : 90 ms
[OGL LOG] matrix is not yet sorted, sorting host matrix
[OGL LOG] sort_host_mtx_sparsity_pattern : 126 ms
[OGL LOG] sort_host_mtx : 65 ms
[OGL LOG] init_preconditioner : 0 ms
[OGL LOG] solve : 725 ms
nonecudaGKOBiCGStab:  Solving for p, Initial residual = 0.849914, Final residual = 9.92868e-05, No Iterations 444
linear solve p 1220920
time step continuity errors : sum local = 2.53451, global = 3.10481e-15, cumulative = -6.08803e-15
ExecutionTime = 30.53 s  ClockTime = 31 s

Time = 0.008

Courant Number mean: 218.22 max: 853627
DILUPBiCGStab:  Solving for Ux, Initial residual = 0.999419, Final residual = 90708.7, No Iterations 5
DILUPBiCGStab:  Solving for Uy, Initial residual = 0.999702, Final residual = 1.95704e+06, No Iterations 5
DILUPBiCGStab:  Solving for Uz, Initial residual = 0.999859, Final residual = 1.06347e+06, No Iterations 5
linear solve U 598871
[OGL LOG] init_host_sparsity_pattern : 166 ms
[OGL LOG] matrix not stored update host matrix
[OGL LOG] update_host_mtx : 90 ms
[OGL LOG] matrix is not yet sorted, sorting host matrix
[OGL LOG] sort_host_mtx_sparsity_pattern : 126 ms
[OGL LOG] sort_host_mtx : 65 ms
[OGL LOG] init_preconditioner : 0 ms
[OGL LOG] solve : 4873 ms
nonecudaGKOBiCGStab:  Solving for p, Initial residual = 1, Final residual = 128.211, No Iterations 3000
linear solve p 5363342
time step continuity errors : sum local = 1.03837e+14, global = 0.0149098, cumulative = 0.0149098
[OGL LOG] init_host_sparsity_pattern : 177 ms
[OGL LOG] matrix not stored update host matrix
[OGL LOG] update_host_mtx : 90 ms
[OGL LOG] matrix is not yet sorted, sorting host matrix
[OGL LOG] sort_host_mtx_sparsity_pattern : 128 ms
[OGL LOG] sort_host_mtx : 65 ms
[OGL LOG] init_preconditioner : 0 ms
[OGL LOG] solve : 4867 ms
nonecudaGKOBiCGStab:  Solving for p, Initial residual = 0.99792, Final residual = 18.4745, No Iterations 3000
linear solve p 5368146
time step continuity errors : sum local = 5.82209e+17, global = -9.47898, cumulative = -9.46407
ExecutionTime = 42.24 s  ClockTime = 42 s

Time = 0.009

Courant Number mean: 9.97595e+18 max: 5.86615e+21
DILUPBiCGStab:  Solving for Ux, Initial residual = 0.999998, Final residual = 764.61, No Iterations 5
DILUPBiCGStab:  Solving for Uy, Initial residual = 0.999995, Final residual = 379.445, No Iterations 5
DILUPBiCGStab:  Solving for Uz, Initial residual = 0.999999, Final residual = 435.233, No Iterations 5
linear solve U 605384
[OGL LOG] init_host_sparsity_pattern : 166 ms
[OGL LOG] matrix not stored update host matrix
[OGL LOG] update_host_mtx : 90 ms
[OGL LOG] matrix is not yet sorted, sorting host matrix
[OGL LOG] sort_host_mtx_sparsity_pattern : 130 ms
[OGL LOG] sort_host_mtx : 65 ms
[OGL LOG] init_preconditioner : 0 ms
[OGL LOG] solve : 4859 ms
nonecudaGKOBiCGStab:  Solving for p, Initial residual = 1, Final residual = 162.8, No Iterations 3000
linear solve p 5352865
time step continuity errors : sum local = 2.03814e+28, global = -7.39287e+12, cumulative = -7.39287e+12
[OGL LOG] init_host_sparsity_pattern : 175 ms
[OGL LOG] matrix not stored update host matrix
[OGL LOG] update_host_mtx : 90 ms
[OGL LOG] matrix is not yet sorted, sorting host matrix
[OGL LOG] sort_host_mtx_sparsity_pattern : 126 ms
[OGL LOG] sort_host_mtx : 65 ms
[OGL LOG] init_preconditioner : 0 ms
[OGL LOG] solve : 4841 ms
nonecudaGKOBiCGStab:  Solving for p, Initial residual = 0.979916, Final residual = 4.69147, No Iterations 3000
linear solve p 5338542
time step continuity errors : sum local = 8.73648e+29, global = -8.30553e+13, cumulative = -9.04482e+13
ExecutionTime = 53.92 s  ClockTime = 54 s

Time = 0.01

Courant Number mean: 1.10346e+30 max: 1.50116e+34
DILUPBiCGStab:  Solving for Ux, Initial residual = 0.999987, Final residual = 10.5078, No Iterations 5
DILUPBiCGStab:  Solving for Uy, Initial residual = 0.999986, Final residual = 7.87459, No Iterations 5
DILUPBiCGStab:  Solving for Uz, Initial residual = 0.999962, Final residual = 19.841, No Iterations 5
linear solve U 591177
[OGL LOG] init_host_sparsity_pattern : 166 ms
[OGL LOG] matrix not stored update host matrix
[OGL LOG] update_host_mtx : 90 ms
[OGL LOG] matrix is not yet sorted, sorting host matrix
[OGL LOG] sort_host_mtx_sparsity_pattern : 130 ms
[OGL LOG] sort_host_mtx : 65 ms
[OGL LOG] init_preconditioner : 0 ms
[OGL LOG] solve : 4886 ms
nonecudaGKOBiCGStab:  Solving for p, Initial residual = 1, Final residual = 1.05826, No Iterations 3000
linear solve p 5378440
time step continuity errors : sum local = 1.75618e+43, global = -4.80235e+26, cumulative = -4.80235e+26
[OGL LOG] init_host_sparsity_pattern : 175 ms
[OGL LOG] matrix not stored update host matrix
[OGL LOG] update_host_mtx : 90 ms
[OGL LOG] matrix is not yet sorted, sorting host matrix
[OGL LOG] sort_host_mtx_sparsity_pattern : 126 ms
[OGL LOG] sort_host_mtx : 65 ms
[OGL LOG] init_preconditioner : 0 ms
[OGL LOG] solve : 4864 ms
nonecudaGKOBiCGStab:  Solving for p, Initial residual = 0.845098, Final residual = 61.5279, No Iterations 3000
linear solve p 5360795
time step continuity errors : sum local = 5.83573e+45, global = -9.6444e+28, cumulative = -9.69242e+28
ExecutionTime = 65.63 s  ClockTime = 66 s

End

