/*---------------------------------------------------------------------------*\
  =========                 |
  \\      /  F ield         | OpenFOAM: The Open Source CFD Toolbox
   \\    /   O peration     | Website:  https://openfoam.org
    \\  /    A nd           | Version:  8
     \\/     M anipulation  |
\*---------------------------------------------------------------------------*/
Build  : 8-ef60d22ea792
Exec   : icoFoam
Date   : Jul 28 2021
Time   : 21:57:22
Host   : "uc2n426.localdomain"
PID    : 875112
I/O    : uncollated
Case   : /pfs/data5/home/kit/scc/nq7776/code/OBR/lidDrivenCavity3D/Variation_mesh/15/Variation_matrix_solver/BiCGStab_NoPrecond_OMP/base
nProcs : 1
sigFpe : Enabling floating point exception trapping (FOAM_SIGFPE).
fileModificationChecking : Monitoring run-time modified files using timeStampMaster (fileModificationSkew 10)
allowSystemOperations : Allowing user-supplied system call operations

// * * * * * * * * * * * * * * * * * * * * * * * * * * * * * * * * * * * * * //
Create time

Create mesh for time = 0

Reading transportProperties

Reading field p

Reading field U

Reading/calculating face flux field phi


Starting time loop

Time = 0.001

Courant Number mean: 0 max: 0
DILUPBiCGStab:  Solving for Ux, Initial residual = 1, Final residual = 1.1028e-13, No Iterations 5
DILUPBiCGStab:  Solving for Uy:  solution singularity
DILUPBiCGStab:  Solving for Uz:  solution singularity
linear solve U 1231
[OGL LOG] init_host_sparsity_pattern : 1 ms
[OGL LOG] matrix not stored update host matrix
[OGL LOG] update_host_mtx : 0 ms
[OGL LOG] matrix is not yet sorted, compute sorting idxs
[OGL LOG] compute_sort : 21 ms
[OGL LOG] matrix is not yet sorted, sorting host matrix
[OGL LOG] sort_host_mtx_sparsity_pattern : 0 ms
[OGL LOG] sort_host_mtx : 0 ms
[OGL LOG] init_preconditioner : 0 ms
[OGL LOG] solve : 18 ms
noneompGKOBiCGStab:  Solving for p, Initial residual = 1, Final residual = 3.62624e-05, No Iterations 98
linear solve p 44357
time step continuity errors : sum local = 1.34363e-06, global = -1.89044e-20, cumulative = -1.89044e-20
[OGL LOG] init_host_sparsity_pattern : 0 ms
[OGL LOG] matrix not stored update host matrix
[OGL LOG] update_host_mtx : 0 ms
[OGL LOG] matrix is not yet sorted, sorting host matrix
[OGL LOG] sort_host_mtx_sparsity_pattern : 0 ms
[OGL LOG] sort_host_mtx : 0 ms
[OGL LOG] init_preconditioner : 0 ms
[OGL LOG] solve : 16 ms
noneompGKOBiCGStab:  Solving for p, Initial residual = 0.317693, Final residual = 9.50982e-05, No Iterations 89
linear solve p 19099
time step continuity errors : sum local = 3.54373e-07, global = 1.08226e-21, cumulative = -1.78221e-20
ExecutionTime = 0.16 s  ClockTime = 0 s

Time = 0.002

Courant Number mean: 0.005595 max: 0.0357001
DILUPBiCGStab:  Solving for Ux, Initial residual = 0.242421, Final residual = 1.13981e-14, No Iterations 5
DILUPBiCGStab:  Solving for Uy, Initial residual = 0.296207, Final residual = 1.12427e-14, No Iterations 5
DILUPBiCGStab:  Solving for Uz, Initial residual = 0.663426, Final residual = 3.11328e-14, No Iterations 5
linear solve U 1971
[OGL LOG] init_host_sparsity_pattern : 0 ms
[OGL LOG] matrix not stored update host matrix
[OGL LOG] update_host_mtx : 0 ms
[OGL LOG] matrix is not yet sorted, sorting host matrix
[OGL LOG] sort_host_mtx_sparsity_pattern : 0 ms
[OGL LOG] sort_host_mtx : 0 ms
[OGL LOG] init_preconditioner : 0 ms
[OGL LOG] solve : 15 ms
noneompGKOBiCGStab:  Solving for p, Initial residual = 0.157367, Final residual = 5.12998e-05, No Iterations 83
linear solve p 18030
time step continuity errors : sum local = 3.29137e-06, global = 1.78175e-21, cumulative = -1.60404e-20
[OGL LOG] init_host_sparsity_pattern : 0 ms
[OGL LOG] matrix not stored update host matrix
[OGL LOG] update_host_mtx : 0 ms
[OGL LOG] matrix is not yet sorted, sorting host matrix
[OGL LOG] sort_host_mtx_sparsity_pattern : 0 ms
[OGL LOG] sort_host_mtx : 0 ms
[OGL LOG] init_preconditioner : 0 ms
[OGL LOG] solve : 14 ms
noneompGKOBiCGStab:  Solving for p, Initial residual = 0.0643323, Final residual = 8.29392e-05, No Iterations 78
linear solve p 17023
time step continuity errors : sum local = 4.34362e-07, global = 8.59524e-21, cumulative = -7.44514e-21
ExecutionTime = 0.23 s  ClockTime = 0 s

Time = 0.003

Courant Number mean: 0.00940329 max: 0.05873
DILUPBiCGStab:  Solving for Ux, Initial residual = 0.117959, Final residual = 5.34395e-15, No Iterations 5
DILUPBiCGStab:  Solving for Uy, Initial residual = 0.148738, Final residual = 5.35083e-15, No Iterations 5
DILUPBiCGStab:  Solving for Uz, Initial residual = 0.320878, Final residual = 1.60813e-14, No Iterations 5
linear solve U 1972
[OGL LOG] init_host_sparsity_pattern : 0 ms
[OGL LOG] matrix not stored update host matrix
[OGL LOG] update_host_mtx : 0 ms
[OGL LOG] matrix is not yet sorted, sorting host matrix
[OGL LOG] sort_host_mtx_sparsity_pattern : 0 ms
[OGL LOG] sort_host_mtx : 0 ms
[OGL LOG] init_preconditioner : 0 ms
[OGL LOG] solve : 8 ms
noneompGKOBiCGStab:  Solving for p, Initial residual = 0.0768259, Final residual = 9.77898e-05, No Iterations 45
linear solve p 11236
time step continuity errors : sum local = 1.53352e-07, global = -1.46552e-20, cumulative = -2.21003e-20
[OGL LOG] init_host_sparsity_pattern : 0 ms
[OGL LOG] matrix not stored update host matrix
[OGL LOG] update_host_mtx : 0 ms
[OGL LOG] matrix is not yet sorted, sorting host matrix
[OGL LOG] sort_host_mtx_sparsity_pattern : 0 ms
[OGL LOG] sort_host_mtx : 0 ms
[OGL LOG] init_preconditioner : 0 ms
[OGL LOG] solve : 5 ms
noneompGKOBiCGStab:  Solving for p, Initial residual = 0.0342447, Final residual = 9.30195e-05, No Iterations 32
linear solve p 8871
time step continuity errors : sum local = 8.6416e-08, global = 4.20001e-21, cumulative = -1.79003e-20
ExecutionTime = 0.27 s  ClockTime = 0 s

Time = 0.004

Courant Number mean: 0.0121906 max: 0.0737271
DILUPBiCGStab:  Solving for Ux, Initial residual = 0.0723324, Final residual = 2.99018e-15, No Iterations 5
DILUPBiCGStab:  Solving for Uy, Initial residual = 0.091659, Final residual = 3.02243e-15, No Iterations 5
DILUPBiCGStab:  Solving for Uz, Initial residual = 0.184079, Final residual = 7.25965e-15, No Iterations 5
linear solve U 1969
[OGL LOG] init_host_sparsity_pattern : 0 ms
[OGL LOG] matrix not stored update host matrix
[OGL LOG] update_host_mtx : 0 ms
[OGL LOG] matrix is not yet sorted, sorting host matrix
[OGL LOG] sort_host_mtx_sparsity_pattern : 0 ms
[OGL LOG] sort_host_mtx : 0 ms
[OGL LOG] init_preconditioner : 0 ms
[OGL LOG] solve : 14 ms
noneompGKOBiCGStab:  Solving for p, Initial residual = 0.0493615, Final residual = 9.91345e-05, No Iterations 80
linear solve p 17497
time step continuity errors : sum local = 3.82775e-07, global = 4.83984e-21, cumulative = -1.30605e-20
[OGL LOG] init_host_sparsity_pattern : 0 ms
[OGL LOG] matrix not stored update host matrix
[OGL LOG] update_host_mtx : 0 ms
[OGL LOG] matrix is not yet sorted, sorting host matrix
[OGL LOG] sort_host_mtx_sparsity_pattern : 0 ms
[OGL LOG] sort_host_mtx : 0 ms
[OGL LOG] init_preconditioner : 0 ms
[OGL LOG] solve : 5 ms
noneompGKOBiCGStab:  Solving for p, Initial residual = 0.0223715, Final residual = 9.76885e-05, No Iterations 31
linear solve p 8700
time step continuity errors : sum local = 1.3161e-07, global = 1.41994e-20, cumulative = 1.13893e-21
ExecutionTime = 0.33 s  ClockTime = 0 s

Time = 0.005

Courant Number mean: 0.0143062 max: 0.0838052
DILUPBiCGStab:  Solving for Ux, Initial residual = 0.0485556, Final residual = 1.79936e-15, No Iterations 5
DILUPBiCGStab:  Solving for Uy, Initial residual = 0.0627524, Final residual = 1.74767e-15, No Iterations 5
DILUPBiCGStab:  Solving for Uz, Initial residual = 0.129562, Final residual = 5.50984e-15, No Iterations 5
linear solve U 1969
[OGL LOG] init_host_sparsity_pattern : 0 ms
[OGL LOG] matrix not stored update host matrix
[OGL LOG] update_host_mtx : 0 ms
[OGL LOG] matrix is not yet sorted, sorting host matrix
[OGL LOG] sort_host_mtx_sparsity_pattern : 0 ms
[OGL LOG] sort_host_mtx : 0 ms
[OGL LOG] init_preconditioner : 0 ms
[OGL LOG] solve : 12 ms
noneompGKOBiCGStab:  Solving for p, Initial residual = 0.0359987, Final residual = 9.98252e-05, No Iterations 70
linear solve p 15676
time step continuity errors : sum local = 5.68974e-07, global = 4.10613e-21, cumulative = 5.24506e-21
[OGL LOG] init_host_sparsity_pattern : 0 ms
[OGL LOG] matrix not stored update host matrix
[OGL LOG] update_host_mtx : 0 ms
[OGL LOG] matrix is not yet sorted, sorting host matrix
[OGL LOG] sort_host_mtx_sparsity_pattern : 0 ms
[OGL LOG] sort_host_mtx : 0 ms
[OGL LOG] init_preconditioner : 0 ms
[OGL LOG] solve : 6 ms
noneompGKOBiCGStab:  Solving for p, Initial residual = 0.0156767, Final residual = 9.90468e-05, No Iterations 33
linear solve p 9006
time step continuity errors : sum local = 1.6743e-07, global = -1.67959e-20, cumulative = -1.15508e-20
ExecutionTime = 0.38 s  ClockTime = 0 s

Time = 0.006

Courant Number mean: 0.0159487 max: 0.0908033
DILUPBiCGStab:  Solving for Ux, Initial residual = 0.0353482, Final residual = 1.17448e-15, No Iterations 5
DILUPBiCGStab:  Solving for Uy, Initial residual = 0.0461019, Final residual = 1.06305e-15, No Iterations 5
DILUPBiCGStab:  Solving for Uz, Initial residual = 0.099287, Final residual = 3.97788e-15, No Iterations 5
linear solve U 1964
[OGL LOG] init_host_sparsity_pattern : 0 ms
[OGL LOG] matrix not stored update host matrix
[OGL LOG] update_host_mtx : 0 ms
[OGL LOG] matrix is not yet sorted, sorting host matrix
[OGL LOG] sort_host_mtx_sparsity_pattern : 0 ms
[OGL LOG] sort_host_mtx : 0 ms
[OGL LOG] init_preconditioner : 0 ms
[OGL LOG] solve : 13 ms
noneompGKOBiCGStab:  Solving for p, Initial residual = 0.0288588, Final residual = 7.13201e-05, No Iterations 76
linear solve p 16675
time step continuity errors : sum local = 6.86217e-07, global = -3.72876e-20, cumulative = -4.88385e-20
[OGL LOG] init_host_sparsity_pattern : 0 ms
[OGL LOG] matrix not stored update host matrix
[OGL LOG] update_host_mtx : 0 ms
[OGL LOG] matrix is not yet sorted, sorting host matrix
[OGL LOG] sort_host_mtx_sparsity_pattern : 0 ms
[OGL LOG] sort_host_mtx : 0 ms
[OGL LOG] init_preconditioner : 0 ms
[OGL LOG] solve : 5 ms
noneompGKOBiCGStab:  Solving for p, Initial residual = 0.0115451, Final residual = 9.73832e-05, No Iterations 30
linear solve p 8449
time step continuity errors : sum local = 1.69825e-07, global = -1.19346e-20, cumulative = -6.07731e-20
ExecutionTime = 0.44 s  ClockTime = 0 s

Time = 0.007

Courant Number mean: 0.0172722 max: 0.0958252
DILUPBiCGStab:  Solving for Ux, Initial residual = 0.0271537, Final residual = 8.71152e-16, No Iterations 5
DILUPBiCGStab:  Solving for Uy, Initial residual = 0.035643, Final residual = 7.40472e-16, No Iterations 5
DILUPBiCGStab:  Solving for Uz, Initial residual = 0.0795319, Final residual = 3.19643e-15, No Iterations 5
linear solve U 1967
[OGL LOG] init_host_sparsity_pattern : 0 ms
[OGL LOG] matrix not stored update host matrix
[OGL LOG] update_host_mtx : 0 ms
[OGL LOG] matrix is not yet sorted, sorting host matrix
[OGL LOG] sort_host_mtx_sparsity_pattern : 0 ms
[OGL LOG] sort_host_mtx : 0 ms
[OGL LOG] init_preconditioner : 0 ms
[OGL LOG] solve : 11 ms
noneompGKOBiCGStab:  Solving for p, Initial residual = 0.0218683, Final residual = 9.91591e-05, No Iterations 63
linear solve p 14412
time step continuity errors : sum local = 2.24832e-07, global = 7.03434e-21, cumulative = -5.37387e-20
[OGL LOG] init_host_sparsity_pattern : 0 ms
[OGL LOG] matrix not stored update host matrix
[OGL LOG] update_host_mtx : 0 ms
[OGL LOG] matrix is not yet sorted, sorting host matrix
[OGL LOG] sort_host_mtx_sparsity_pattern : 0 ms
[OGL LOG] sort_host_mtx : 0 ms
[OGL LOG] init_preconditioner : 0 ms
[OGL LOG] solve : 5 ms
noneompGKOBiCGStab:  Solving for p, Initial residual = 0.00869607, Final residual = 9.96755e-05, No Iterations 28
linear solve p 8167
time step continuity errors : sum local = 1.88211e-07, global = 2.05215e-20, cumulative = -3.32172e-20
ExecutionTime = 0.49 s  ClockTime = 0 s

Time = 0.008

Courant Number mean: 0.0183558 max: 0.0995502
DILUPBiCGStab:  Solving for Ux, Initial residual = 0.0216513, Final residual = 6.38955e-16, No Iterations 5
DILUPBiCGStab:  Solving for Uy, Initial residual = 0.0286246, Final residual = 5.78708e-16, No Iterations 5
DILUPBiCGStab:  Solving for Uz, Initial residual = 0.0649651, Final residual = 2.47821e-15, No Iterations 5
linear solve U 1978
[OGL LOG] init_host_sparsity_pattern : 0 ms
[OGL LOG] matrix not stored update host matrix
[OGL LOG] update_host_mtx : 0 ms
[OGL LOG] matrix is not yet sorted, sorting host matrix
[OGL LOG] sort_host_mtx_sparsity_pattern : 0 ms
[OGL LOG] sort_host_mtx : 0 ms
[OGL LOG] init_preconditioner : 0 ms
[OGL LOG] solve : 11 ms
noneompGKOBiCGStab:  Solving for p, Initial residual = 0.0163107, Final residual = 9.93971e-05, No Iterations 63
linear solve p 14479
time step continuity errors : sum local = 2.03698e-07, global = -5.28899e-21, cumulative = -3.85062e-20
[OGL LOG] init_host_sparsity_pattern : 0 ms
[OGL LOG] matrix not stored update host matrix
[OGL LOG] update_host_mtx : 0 ms
[OGL LOG] matrix is not yet sorted, sorting host matrix
[OGL LOG] sort_host_mtx_sparsity_pattern : 0 ms
[OGL LOG] sort_host_mtx : 0 ms
[OGL LOG] init_preconditioner : 0 ms
[OGL LOG] solve : 4 ms
noneompGKOBiCGStab:  Solving for p, Initial residual = 0.00665591, Final residual = 9.95637e-05, No Iterations 26
linear solve p 7831
time step continuity errors : sum local = 2.01709e-07, global = -1.34624e-20, cumulative = -5.19685e-20
ExecutionTime = 0.54 s  ClockTime = 1 s

Time = 0.009

Courant Number mean: 0.0192556 max: 0.102395
DILUPBiCGStab:  Solving for Ux, Initial residual = 0.017671, Final residual = 4.37208e-16, No Iterations 5
DILUPBiCGStab:  Solving for Uy, Initial residual = 0.0236399, Final residual = 4.82377e-16, No Iterations 5
DILUPBiCGStab:  Solving for Uz, Initial residual = 0.0544804, Final residual = 1.97643e-15, No Iterations 5
linear solve U 1965
[OGL LOG] init_host_sparsity_pattern : 0 ms
[OGL LOG] matrix not stored update host matrix
[OGL LOG] update_host_mtx : 0 ms
[OGL LOG] matrix is not yet sorted, sorting host matrix
[OGL LOG] sort_host_mtx_sparsity_pattern : 0 ms
[OGL LOG] sort_host_mtx : 0 ms
[OGL LOG] init_preconditioner : 0 ms
[OGL LOG] solve : 9 ms
noneompGKOBiCGStab:  Solving for p, Initial residual = 0.0132805, Final residual = 9.88819e-05, No Iterations 54
linear solve p 12821
time step continuity errors : sum local = 2.26193e-07, global = 5.52127e-20, cumulative = 3.24413e-21
[OGL LOG] init_host_sparsity_pattern : 0 ms
[OGL LOG] matrix not stored update host matrix
[OGL LOG] update_host_mtx : 0 ms
[OGL LOG] matrix is not yet sorted, sorting host matrix
[OGL LOG] sort_host_mtx_sparsity_pattern : 0 ms
[OGL LOG] sort_host_mtx : 0 ms
[OGL LOG] init_preconditioner : 0 ms
[OGL LOG] solve : 5 ms
noneompGKOBiCGStab:  Solving for p, Initial residual = 0.00543685, Final residual = 9.48601e-05, No Iterations 27
linear solve p 7910
time step continuity errors : sum local = 1.95328e-07, global = -1.94718e-20, cumulative = -1.62277e-20
ExecutionTime = 0.58 s  ClockTime = 1 s

Time = 0.01

Courant Number mean: 0.0200147 max: 0.104627
DILUPBiCGStab:  Solving for Ux, Initial residual = 0.0147275, Final residual = 2.84325e-16, No Iterations 5
DILUPBiCGStab:  Solving for Uy, Initial residual = 0.0199344, Final residual = 4.0139e-16, No Iterations 5
DILUPBiCGStab:  Solving for Uz, Initial residual = 0.0462728, Final residual = 1.57853e-15, No Iterations 5
linear solve U 1965
[OGL LOG] init_host_sparsity_pattern : 0 ms
[OGL LOG] matrix not stored update host matrix
[OGL LOG] update_host_mtx : 0 ms
[OGL LOG] matrix is not yet sorted, sorting host matrix
[OGL LOG] sort_host_mtx_sparsity_pattern : 0 ms
[OGL LOG] sort_host_mtx : 0 ms
[OGL LOG] init_preconditioner : 0 ms
[OGL LOG] solve : 9 ms
noneompGKOBiCGStab:  Solving for p, Initial residual = 0.0111404, Final residual = 9.50763e-05, No Iterations 54
linear solve p 12935
time step continuity errors : sum local = 3.2585e-07, global = 3.39144e-21, cumulative = -1.28363e-20
[OGL LOG] init_host_sparsity_pattern : 0 ms
[OGL LOG] matrix not stored update host matrix
[OGL LOG] update_host_mtx : 0 ms
[OGL LOG] matrix is not yet sorted, sorting host matrix
[OGL LOG] sort_host_mtx_sparsity_pattern : 0 ms
[OGL LOG] sort_host_mtx : 0 ms
[OGL LOG] init_preconditioner : 0 ms
[OGL LOG] solve : 5 ms
noneompGKOBiCGStab:  Solving for p, Initial residual = 0.00461668, Final residual = 9.61869e-05, No Iterations 28
linear solve p 8532
time step continuity errors : sum local = 1.98528e-07, global = -2.69603e-20, cumulative = -3.97966e-20
ExecutionTime = 0.63 s  ClockTime = 1 s

End

