/*---------------------------------------------------------------------------*\
  =========                 |
  \\      /  F ield         | OpenFOAM: The Open Source CFD Toolbox
   \\    /   O peration     | Website:  https://openfoam.org
    \\  /    A nd           | Version:  8
     \\/     M anipulation  |
\*---------------------------------------------------------------------------*/
Build  : 8-14d69e1ee166
Exec   : icoFoam
Date   : Jul 29 2021
Time   : 08:39:16
Host   : "guyot.icl.utk.edu"
PID    : 157419
I/O    : uncollated
Case   : /home/greole/code/OBR/lidDrivenCavity3D/Variation_mesh/15/Variation_matrix_solver/IR_NoPrecond_CUDA/base
nProcs : 1
sigFpe : Enabling floating point exception trapping (FOAM_SIGFPE).
fileModificationChecking : Monitoring run-time modified files using timeStampMaster (fileModificationSkew 10)
allowSystemOperations : Allowing user-supplied system call operations

// * * * * * * * * * * * * * * * * * * * * * * * * * * * * * * * * * * * * * //
Create time

Create mesh for time = 0

Reading transportProperties

Reading field p

Reading field U

Reading/calculating face flux field phi


Starting time loop

Time = 0.001

Courant Number mean: 0 max: 0
DILUPBiCGStab:  Solving for Ux, Initial residual = 1, Final residual = 1.1028e-13, No Iterations 5
DILUPBiCGStab:  Solving for Uy:  solution singularity
DILUPBiCGStab:  Solving for Uz:  solution singularity
linear solve U 1279
[OGL LOG] init_host_sparsity_pattern : 2 ms
[OGL LOG] matrix not stored update host matrix
[OGL LOG] update_host_mtx : 0 ms
[OGL LOG] matrix is not yet sorted, compute sorting idxs
[OGL LOG] compute_sort : 23 ms
[OGL LOG] matrix is not yet sorted, sorting host matrix
[OGL LOG] sort_host_mtx_sparsity_pattern : 0 ms
[OGL LOG] sort_host_mtx : 0 ms
[OGL LOG] init_preconditioner : 0 ms
[OGL LOG] solve : 27 ms
nonecudaGKOIR:  Solving for p, Initial residual = 1, Final residual = 5.13105e-06, No Iterations 3
linear solve p 1707290
time step continuity errors : sum local = 2.17277e-09, global = -1.43163e-21, cumulative = -1.43163e-21
[OGL LOG] init_host_sparsity_pattern : 1 ms
[OGL LOG] matrix not stored update host matrix
[OGL LOG] update_host_mtx : 0 ms
[OGL LOG] matrix is not yet sorted, sorting host matrix
[OGL LOG] sort_host_mtx_sparsity_pattern : 0 ms
[OGL LOG] sort_host_mtx : 0 ms
[OGL LOG] init_preconditioner : 0 ms
[OGL LOG] solve : 20 ms
nonecudaGKOIR:  Solving for p, Initial residual = 0.31681, Final residual = 9.42385e-05, No Iterations 2
linear solve p 24705
time step continuity errors : sum local = 6.95192e-08, global = -4.69316e-21, cumulative = -6.12479e-21
ExecutionTime = 1.79 s  ClockTime = 2 s

Time = 0.002

Courant Number mean: 0.00559442 max: 0.0357001
DILUPBiCGStab:  Solving for Ux, Initial residual = 0.242389, Final residual = 1.13977e-14, No Iterations 5
DILUPBiCGStab:  Solving for Uy, Initial residual = 0.296216, Final residual = 1.12428e-14, No Iterations 5
DILUPBiCGStab:  Solving for Uz, Initial residual = 0.685396, Final residual = 3.44223e-14, No Iterations 5
linear solve U 2100
[OGL LOG] init_host_sparsity_pattern : 1 ms
[OGL LOG] matrix not stored update host matrix
[OGL LOG] update_host_mtx : 0 ms
[OGL LOG] matrix is not yet sorted, sorting host matrix
[OGL LOG] sort_host_mtx_sparsity_pattern : 0 ms
[OGL LOG] sort_host_mtx : 0 ms
[OGL LOG] init_preconditioner : 0 ms
[OGL LOG] solve : 20 ms
nonecudaGKOIR:  Solving for p, Initial residual = 0.156956, Final residual = 2.81567e-05, No Iterations 2
linear solve p 23978
time step continuity errors : sum local = 2.02496e-08, global = 4.24809e-21, cumulative = -1.8767e-21
[OGL LOG] init_host_sparsity_pattern : 1 ms
[OGL LOG] matrix not stored update host matrix
[OGL LOG] update_host_mtx : 0 ms
[OGL LOG] matrix is not yet sorted, sorting host matrix
[OGL LOG] sort_host_mtx_sparsity_pattern : 0 ms
[OGL LOG] sort_host_mtx : 0 ms
[OGL LOG] init_preconditioner : 0 ms
[OGL LOG] solve : 20 ms
nonecudaGKOIR:  Solving for p, Initial residual = 0.0605722, Final residual = 9.37482e-06, No Iterations 2
linear solve p 24015
time step continuity errors : sum local = 7.33378e-09, global = 1.95361e-20, cumulative = 1.76594e-20
ExecutionTime = 1.84 s  ClockTime = 2 s

Time = 0.003

Courant Number mean: 0.00940319 max: 0.0587296
DILUPBiCGStab:  Solving for Ux, Initial residual = 0.117976, Final residual = 5.34392e-15, No Iterations 5
DILUPBiCGStab:  Solving for Uy, Initial residual = 0.148709, Final residual = 5.34838e-15, No Iterations 5
DILUPBiCGStab:  Solving for Uz, Initial residual = 0.319335, Final residual = 1.47691e-14, No Iterations 5
linear solve U 2083
[OGL LOG] init_host_sparsity_pattern : 1 ms
[OGL LOG] matrix not stored update host matrix
[OGL LOG] update_host_mtx : 0 ms
[OGL LOG] matrix is not yet sorted, sorting host matrix
[OGL LOG] sort_host_mtx_sparsity_pattern : 0 ms
[OGL LOG] sort_host_mtx : 0 ms
[OGL LOG] init_preconditioner : 0 ms
[OGL LOG] solve : 20 ms
nonecudaGKOIR:  Solving for p, Initial residual = 0.0758589, Final residual = 1.53464e-05, No Iterations 2
linear solve p 24136
time step continuity errors : sum local = 1.23544e-08, global = 1.67168e-20, cumulative = 3.43762e-20
[OGL LOG] init_host_sparsity_pattern : 1 ms
[OGL LOG] matrix not stored update host matrix
[OGL LOG] update_host_mtx : 0 ms
[OGL LOG] matrix is not yet sorted, sorting host matrix
[OGL LOG] sort_host_mtx_sparsity_pattern : 0 ms
[OGL LOG] sort_host_mtx : 0 ms
[OGL LOG] init_preconditioner : 0 ms
[OGL LOG] solve : 20 ms
nonecudaGKOIR:  Solving for p, Initial residual = 0.0340445, Final residual = 5.62209e-06, No Iterations 2
linear solve p 24213
time step continuity errors : sum local = 4.71534e-09, global = -3.95028e-20, cumulative = -5.12659e-21
ExecutionTime = 1.89 s  ClockTime = 2 s

Time = 0.004

Courant Number mean: 0.0121906 max: 0.0737269
DILUPBiCGStab:  Solving for Ux, Initial residual = 0.0723351, Final residual = 2.98997e-15, No Iterations 5
DILUPBiCGStab:  Solving for Uy, Initial residual = 0.0916574, Final residual = 3.02128e-15, No Iterations 5
DILUPBiCGStab:  Solving for Uz, Initial residual = 0.182423, Final residual = 7.95984e-15, No Iterations 5
linear solve U 2084
[OGL LOG] init_host_sparsity_pattern : 1 ms
[OGL LOG] matrix not stored update host matrix
[OGL LOG] update_host_mtx : 0 ms
[OGL LOG] matrix is not yet sorted, sorting host matrix
[OGL LOG] sort_host_mtx_sparsity_pattern : 0 ms
[OGL LOG] sort_host_mtx : 0 ms
[OGL LOG] init_preconditioner : 0 ms
[OGL LOG] solve : 20 ms
nonecudaGKOIR:  Solving for p, Initial residual = 0.0491798, Final residual = 9.25042e-06, No Iterations 2
linear solve p 24011
time step continuity errors : sum local = 7.92278e-09, global = 1.75051e-20, cumulative = 1.23785e-20
[OGL LOG] init_host_sparsity_pattern : 1 ms
[OGL LOG] matrix not stored update host matrix
[OGL LOG] update_host_mtx : 0 ms
[OGL LOG] matrix is not yet sorted, sorting host matrix
[OGL LOG] sort_host_mtx_sparsity_pattern : 0 ms
[OGL LOG] sort_host_mtx : 0 ms
[OGL LOG] init_preconditioner : 0 ms
[OGL LOG] solve : 20 ms
nonecudaGKOIR:  Solving for p, Initial residual = 0.0220767, Final residual = 3.35481e-06, No Iterations 2
linear solve p 24427
time step continuity errors : sum local = 2.93802e-09, global = 2.79497e-21, cumulative = 1.51734e-20
ExecutionTime = 1.94 s  ClockTime = 2 s

Time = 0.005

Courant Number mean: 0.014306 max: 0.0838051
DILUPBiCGStab:  Solving for Ux, Initial residual = 0.0485644, Final residual = 1.79908e-15, No Iterations 5
DILUPBiCGStab:  Solving for Uy, Initial residual = 0.0627369, Final residual = 1.74758e-15, No Iterations 5
DILUPBiCGStab:  Solving for Uz, Initial residual = 0.129737, Final residual = 5.48077e-15, No Iterations 5
linear solve U 2077
[OGL LOG] init_host_sparsity_pattern : 1 ms
[OGL LOG] matrix not stored update host matrix
[OGL LOG] update_host_mtx : 0 ms
[OGL LOG] matrix is not yet sorted, sorting host matrix
[OGL LOG] sort_host_mtx_sparsity_pattern : 0 ms
[OGL LOG] sort_host_mtx : 0 ms
[OGL LOG] init_preconditioner : 0 ms
[OGL LOG] solve : 20 ms
nonecudaGKOIR:  Solving for p, Initial residual = 0.0359197, Final residual = 6.41909e-06, No Iterations 2
linear solve p 24049
time step continuity errors : sum local = 5.7178e-09, global = -2.77432e-20, cumulative = -1.25698e-20
[OGL LOG] init_host_sparsity_pattern : 1 ms
[OGL LOG] matrix not stored update host matrix
[OGL LOG] update_host_mtx : 0 ms
[OGL LOG] matrix is not yet sorted, sorting host matrix
[OGL LOG] sort_host_mtx_sparsity_pattern : 0 ms
[OGL LOG] sort_host_mtx : 0 ms
[OGL LOG] init_preconditioner : 0 ms
[OGL LOG] solve : 20 ms
nonecudaGKOIR:  Solving for p, Initial residual = 0.0152276, Final residual = 2.31703e-06, No Iterations 2
linear solve p 24470
time step continuity errors : sum local = 2.09513e-09, global = 2.09171e-21, cumulative = -1.04781e-20
ExecutionTime = 1.99 s  ClockTime = 2 s

Time = 0.006

Courant Number mean: 0.0159484 max: 0.0908032
DILUPBiCGStab:  Solving for Ux, Initial residual = 0.0353498, Final residual = 1.17442e-15, No Iterations 5
DILUPBiCGStab:  Solving for Uy, Initial residual = 0.0460969, Final residual = 1.06313e-15, No Iterations 5
DILUPBiCGStab:  Solving for Uz, Initial residual = 0.099425, Final residual = 3.99311e-15, No Iterations 5
linear solve U 2082
[OGL LOG] init_host_sparsity_pattern : 1 ms
[OGL LOG] matrix not stored update host matrix
[OGL LOG] update_host_mtx : 0 ms
[OGL LOG] matrix is not yet sorted, sorting host matrix
[OGL LOG] sort_host_mtx_sparsity_pattern : 0 ms
[OGL LOG] sort_host_mtx : 0 ms
[OGL LOG] init_preconditioner : 0 ms
[OGL LOG] solve : 20 ms
nonecudaGKOIR:  Solving for p, Initial residual = 0.0288126, Final residual = 4.96251e-06, No Iterations 2
linear solve p 24108
time step continuity errors : sum local = 4.56251e-09, global = 2.01752e-20, cumulative = 9.69716e-21
[OGL LOG] init_host_sparsity_pattern : 1 ms
[OGL LOG] matrix not stored update host matrix
[OGL LOG] update_host_mtx : 0 ms
[OGL LOG] matrix is not yet sorted, sorting host matrix
[OGL LOG] sort_host_mtx_sparsity_pattern : 0 ms
[OGL LOG] sort_host_mtx : 0 ms
[OGL LOG] init_preconditioner : 0 ms
[OGL LOG] solve : 20 ms
nonecudaGKOIR:  Solving for p, Initial residual = 0.0109993, Final residual = 1.69311e-06, No Iterations 2
linear solve p 24484
time step continuity errors : sum local = 1.57771e-09, global = -2.06579e-20, cumulative = -1.09608e-20
ExecutionTime = 2.05 s  ClockTime = 2 s

Time = 0.007

Courant Number mean: 0.0172719 max: 0.0958251
DILUPBiCGStab:  Solving for Ux, Initial residual = 0.0271635, Final residual = 8.7084e-16, No Iterations 5
DILUPBiCGStab:  Solving for Uy, Initial residual = 0.0356259, Final residual = 7.40809e-16, No Iterations 5
DILUPBiCGStab:  Solving for Uz, Initial residual = 0.0794056, Final residual = 3.117e-15, No Iterations 5
linear solve U 2079
[OGL LOG] init_host_sparsity_pattern : 1 ms
[OGL LOG] matrix not stored update host matrix
[OGL LOG] update_host_mtx : 0 ms
[OGL LOG] matrix is not yet sorted, sorting host matrix
[OGL LOG] sort_host_mtx_sparsity_pattern : 0 ms
[OGL LOG] sort_host_mtx : 0 ms
[OGL LOG] init_preconditioner : 0 ms
[OGL LOG] solve : 20 ms
nonecudaGKOIR:  Solving for p, Initial residual = 0.0217358, Final residual = 3.47381e-06, No Iterations 2
linear solve p 24265
time step continuity errors : sum local = 3.27315e-09, global = 7.58546e-20, cumulative = 6.48938e-20
[OGL LOG] init_host_sparsity_pattern : 1 ms
[OGL LOG] matrix not stored update host matrix
[OGL LOG] update_host_mtx : 0 ms
[OGL LOG] matrix is not yet sorted, sorting host matrix
[OGL LOG] sort_host_mtx_sparsity_pattern : 0 ms
[OGL LOG] sort_host_mtx : 0 ms
[OGL LOG] init_preconditioner : 0 ms
[OGL LOG] solve : 20 ms
nonecudaGKOIR:  Solving for p, Initial residual = 0.00859426, Final residual = 1.10953e-06, No Iterations 2
linear solve p 24154
time step continuity errors : sum local = 1.0555e-09, global = -3.73137e-20, cumulative = 2.75802e-20
ExecutionTime = 2.1 s  ClockTime = 2 s

Time = 0.008

Courant Number mean: 0.0183555 max: 0.0995502
DILUPBiCGStab:  Solving for Ux, Initial residual = 0.0216576, Final residual = 6.38776e-16, No Iterations 5
DILUPBiCGStab:  Solving for Uy, Initial residual = 0.0286128, Final residual = 5.78977e-16, No Iterations 5
DILUPBiCGStab:  Solving for Uz, Initial residual = 0.0649491, Final residual = 2.45056e-15, No Iterations 5
linear solve U 2067
[OGL LOG] init_host_sparsity_pattern : 1 ms
[OGL LOG] matrix not stored update host matrix
[OGL LOG] update_host_mtx : 0 ms
[OGL LOG] matrix is not yet sorted, sorting host matrix
[OGL LOG] sort_host_mtx_sparsity_pattern : 0 ms
[OGL LOG] sort_host_mtx : 0 ms
[OGL LOG] init_preconditioner : 0 ms
[OGL LOG] solve : 19 ms
nonecudaGKOIR:  Solving for p, Initial residual = 0.0162662, Final residual = 2.70815e-06, No Iterations 2
linear solve p 23490
time step continuity errors : sum local = 2.59857e-09, global = 1.03206e-20, cumulative = 3.79008e-20
[OGL LOG] init_host_sparsity_pattern : 1 ms
[OGL LOG] matrix not stored update host matrix
[OGL LOG] update_host_mtx : 0 ms
[OGL LOG] matrix is not yet sorted, sorting host matrix
[OGL LOG] sort_host_mtx_sparsity_pattern : 0 ms
[OGL LOG] sort_host_mtx : 0 ms
[OGL LOG] init_preconditioner : 0 ms
[OGL LOG] solve : 6 ms
nonecudaGKOIR:  Solving for p, Initial residual = 0.00660545, Final residual = 9.68837e-05, No Iterations 1
linear solve p 10419
time step continuity errors : sum local = 1.13652e-07, global = 9.1664e-21, cumulative = 4.70672e-20
ExecutionTime = 2.14 s  ClockTime = 2 s

Time = 0.009

Courant Number mean: 0.0192552 max: 0.102395
DILUPBiCGStab:  Solving for Ux, Initial residual = 0.0176784, Final residual = 4.37129e-16, No Iterations 5
DILUPBiCGStab:  Solving for Uy, Initial residual = 0.0236275, Final residual = 4.82773e-16, No Iterations 5
DILUPBiCGStab:  Solving for Uz, Initial residual = 0.0543691, Final residual = 1.95081e-15, No Iterations 5
linear solve U 2072
[OGL LOG] init_host_sparsity_pattern : 1 ms
[OGL LOG] matrix not stored update host matrix
[OGL LOG] update_host_mtx : 0 ms
[OGL LOG] matrix is not yet sorted, sorting host matrix
[OGL LOG] sort_host_mtx_sparsity_pattern : 0 ms
[OGL LOG] sort_host_mtx : 0 ms
[OGL LOG] init_preconditioner : 0 ms
[OGL LOG] solve : 20 ms
nonecudaGKOIR:  Solving for p, Initial residual = 0.0133017, Final residual = 2.47334e-06, No Iterations 2
linear solve p 23719
time step continuity errors : sum local = 2.41086e-09, global = -6.12622e-21, cumulative = 4.0941e-20
[OGL LOG] init_host_sparsity_pattern : 1 ms
[OGL LOG] matrix not stored update host matrix
[OGL LOG] update_host_mtx : 0 ms
[OGL LOG] matrix is not yet sorted, sorting host matrix
[OGL LOG] sort_host_mtx_sparsity_pattern : 0 ms
[OGL LOG] sort_host_mtx : 0 ms
[OGL LOG] init_preconditioner : 0 ms
[OGL LOG] solve : 6 ms
nonecudaGKOIR:  Solving for p, Initial residual = 0.00539432, Final residual = 8.34051e-05, No Iterations 1
linear solve p 10272
time step continuity errors : sum local = 9.12002e-08, global = -4.40163e-22, cumulative = 4.05008e-20
ExecutionTime = 2.17 s  ClockTime = 2 s

Time = 0.01

Courant Number mean: 0.0200142 max: 0.104627
DILUPBiCGStab:  Solving for Ux, Initial residual = 0.0147299, Final residual = 2.84314e-16, No Iterations 5
DILUPBiCGStab:  Solving for Uy, Initial residual = 0.0199286, Final residual = 4.01575e-16, No Iterations 5
DILUPBiCGStab:  Solving for Uz, Initial residual = 0.0462899, Final residual = 1.56451e-15, No Iterations 5
linear solve U 2101
[OGL LOG] init_host_sparsity_pattern : 1 ms
[OGL LOG] matrix not stored update host matrix
[OGL LOG] update_host_mtx : 0 ms
[OGL LOG] matrix is not yet sorted, sorting host matrix
[OGL LOG] sort_host_mtx_sparsity_pattern : 0 ms
[OGL LOG] sort_host_mtx : 0 ms
[OGL LOG] init_preconditioner : 0 ms
[OGL LOG] solve : 20 ms
nonecudaGKOIR:  Solving for p, Initial residual = 0.0111355, Final residual = 1.38501e-06, No Iterations 2
linear solve p 23724
time step continuity errors : sum local = 1.36905e-09, global = -8.12571e-21, cumulative = 3.23751e-20
[OGL LOG] init_host_sparsity_pattern : 1 ms
[OGL LOG] matrix not stored update host matrix
[OGL LOG] update_host_mtx : 0 ms
[OGL LOG] matrix is not yet sorted, sorting host matrix
[OGL LOG] sort_host_mtx_sparsity_pattern : 0 ms
[OGL LOG] sort_host_mtx : 0 ms
[OGL LOG] init_preconditioner : 0 ms
[OGL LOG] solve : 6 ms
nonecudaGKOIR:  Solving for p, Initial residual = 0.00446755, Final residual = 6.57765e-05, No Iterations 1
linear solve p 10411
time step continuity errors : sum local = 7.72268e-08, global = 7.64522e-21, cumulative = 4.00203e-20
ExecutionTime = 2.21 s  ClockTime = 2 s

End

