/*---------------------------------------------------------------------------*\
  =========                 |
  \\      /  F ield         | OpenFOAM: The Open Source CFD Toolbox
   \\    /   O peration     | Website:  https://openfoam.org
    \\  /    A nd           | Version:  8
     \\/     M anipulation  |
\*---------------------------------------------------------------------------*/
Build  : 8-ef60d22ea792
Exec   : icoFoam
Date   : Jul 29 2021
Time   : 00:40:40
Host   : "uc2n414.localdomain"
PID    : 2841101
I/O    : uncollated
Case   : /pfs/data5/home/kit/scc/nq7776/code/OBR/lidDrivenCavity3D/Variation_mesh/40/Variation_matrix_solver/BiCGStab_BJ_OMP/base
nProcs : 1
sigFpe : Enabling floating point exception trapping (FOAM_SIGFPE).
fileModificationChecking : Monitoring run-time modified files using timeStampMaster (fileModificationSkew 10)
allowSystemOperations : Allowing user-supplied system call operations

// * * * * * * * * * * * * * * * * * * * * * * * * * * * * * * * * * * * * * //
Create time

Create mesh for time = 0

Reading transportProperties

Reading field p

Reading field U

Reading/calculating face flux field phi


Starting time loop

Time = 0.001

Courant Number mean: 0 max: 0
DILUPBiCGStab:  Solving for Ux, Initial residual = 1, Final residual = 1.19415e-05, No Iterations 5
DILUPBiCGStab:  Solving for Uy:  solution singularity
DILUPBiCGStab:  Solving for Uz:  solution singularity
linear solve U 26014
[OGL LOG] init_host_sparsity_pattern : 17 ms
[OGL LOG] matrix not stored update host matrix
[OGL LOG] update_host_mtx : 9 ms
[OGL LOG] matrix is not yet sorted, compute sorting idxs
[OGL LOG] compute_sort : 481 ms
[OGL LOG] matrix is not yet sorted, sorting host matrix
[OGL LOG] sort_host_mtx_sparsity_pattern : 12 ms
[OGL LOG] sort_host_mtx : 7 ms
[OGL LOG] init_preconditioner : 17 ms
[OGL LOG] solve : 2122 ms
BJompGKOBiCGStab:  Solving for p, Initial residual = 1, Final residual = 4.41066e-05, No Iterations 200
linear solve p 2681785
time step continuity errors : sum local = 2.09234e-07, global = -1.98192e-21, cumulative = -1.98192e-21
[OGL LOG] init_host_sparsity_pattern : 18 ms
[OGL LOG] matrix not stored update host matrix
[OGL LOG] update_host_mtx : 9 ms
[OGL LOG] matrix is not yet sorted, sorting host matrix
[OGL LOG] sort_host_mtx_sparsity_pattern : 12 ms
[OGL LOG] sort_host_mtx : 6 ms
[OGL LOG] init_preconditioner : 0 ms
[OGL LOG] solve : 2100 ms
BJompGKOBiCGStab:  Solving for p, Initial residual = 0.607849, Final residual = 8.94156e-05, No Iterations 198
linear solve p 2155150
time step continuity errors : sum local = 1.30621e-06, global = 7.5898e-21, cumulative = 5.60787e-21
ExecutionTime = 5.13 s  ClockTime = 5 s

Time = 0.002

Courant Number mean: 0.0213849 max: 0.237108
DILUPBiCGStab:  Solving for Ux, Initial residual = 0.178928, Final residual = 2.29118e-06, No Iterations 5
DILUPBiCGStab:  Solving for Uy, Initial residual = 0.291113, Final residual = 3.22825e-06, No Iterations 5
DILUPBiCGStab:  Solving for Uz, Initial residual = 0.919576, Final residual = 1.30438e-05, No Iterations 5
linear solve U 46628
[OGL LOG] init_host_sparsity_pattern : 17 ms
[OGL LOG] matrix not stored update host matrix
[OGL LOG] update_host_mtx : 9 ms
[OGL LOG] matrix is not yet sorted, sorting host matrix
[OGL LOG] sort_host_mtx_sparsity_pattern : 12 ms
[OGL LOG] sort_host_mtx : 6 ms
[OGL LOG] init_preconditioner : 0 ms
[OGL LOG] solve : 2063 ms
BJompGKOBiCGStab:  Solving for p, Initial residual = 0.460226, Final residual = 9.54898e-05, No Iterations 194
linear solve p 2117698
time step continuity errors : sum local = 1.97482e-07, global = -2.89586e-21, cumulative = 2.71202e-21
[OGL LOG] init_host_sparsity_pattern : 18 ms
[OGL LOG] matrix not stored update host matrix
[OGL LOG] update_host_mtx : 9 ms
[OGL LOG] matrix is not yet sorted, sorting host matrix
[OGL LOG] sort_host_mtx_sparsity_pattern : 12 ms
[OGL LOG] sort_host_mtx : 6 ms
[OGL LOG] init_preconditioner : 0 ms
[OGL LOG] solve : 1199 ms
BJompGKOBiCGStab:  Solving for p, Initial residual = 0.365196, Final residual = 9.9918e-05, No Iterations 113
linear solve p 1254225
time step continuity errors : sum local = 1.65889e-07, global = -1.11248e-20, cumulative = -8.41276e-21
ExecutionTime = 8.57 s  ClockTime = 9 s

Time = 0.003

Courant Number mean: 0.0325243 max: 0.306671
DILUPBiCGStab:  Solving for Ux, Initial residual = 0.0650372, Final residual = 7.62239e-07, No Iterations 5
DILUPBiCGStab:  Solving for Uy, Initial residual = 0.105007, Final residual = 6.02906e-07, No Iterations 5
DILUPBiCGStab:  Solving for Uz, Initial residual = 0.165081, Final residual = 2.06912e-06, No Iterations 5
linear solve U 47045
[OGL LOG] init_host_sparsity_pattern : 17 ms
[OGL LOG] matrix not stored update host matrix
[OGL LOG] update_host_mtx : 9 ms
[OGL LOG] matrix is not yet sorted, sorting host matrix
[OGL LOG] sort_host_mtx_sparsity_pattern : 12 ms
[OGL LOG] sort_host_mtx : 6 ms
[OGL LOG] init_preconditioner : 0 ms
[OGL LOG] solve : 1709 ms
BJompGKOBiCGStab:  Solving for p, Initial residual = 0.165346, Final residual = 9.96598e-05, No Iterations 161
linear solve p 1763813
time step continuity errors : sum local = 1.06691e-07, global = -8.445e-21, cumulative = -1.68578e-20
[OGL LOG] init_host_sparsity_pattern : 17 ms
[OGL LOG] matrix not stored update host matrix
[OGL LOG] update_host_mtx : 9 ms
[OGL LOG] matrix is not yet sorted, sorting host matrix
[OGL LOG] sort_host_mtx_sparsity_pattern : 12 ms
[OGL LOG] sort_host_mtx : 6 ms
[OGL LOG] init_preconditioner : 0 ms
[OGL LOG] solve : 1608 ms
BJompGKOBiCGStab:  Solving for p, Initial residual = 0.130522, Final residual = 9.60611e-05, No Iterations 151
linear solve p 1662635
time step continuity errors : sum local = 1.32881e-07, global = -3.18209e-21, cumulative = -2.00398e-20
ExecutionTime = 12.07 s  ClockTime = 12 s

Time = 0.004

Courant Number mean: 0.039101 max: 0.328165
DILUPBiCGStab:  Solving for Ux, Initial residual = 0.0379723, Final residual = 2.90043e-07, No Iterations 5
DILUPBiCGStab:  Solving for Uy, Initial residual = 0.0660484, Final residual = 3.10942e-07, No Iterations 5
DILUPBiCGStab:  Solving for Uz, Initial residual = 0.127349, Final residual = 1.26398e-06, No Iterations 5
linear solve U 44891
[OGL LOG] init_host_sparsity_pattern : 16 ms
[OGL LOG] matrix not stored update host matrix
[OGL LOG] update_host_mtx : 8 ms
[OGL LOG] matrix is not yet sorted, sorting host matrix
[OGL LOG] sort_host_mtx_sparsity_pattern : 12 ms
[OGL LOG] sort_host_mtx : 6 ms
[OGL LOG] init_preconditioner : 0 ms
[OGL LOG] solve : 1867 ms
BJompGKOBiCGStab:  Solving for p, Initial residual = 0.0849847, Final residual = 8.73774e-05, No Iterations 176
linear solve p 1920915
time step continuity errors : sum local = 1.0573e-07, global = -6.3659e-21, cumulative = -2.64058e-20
[OGL LOG] init_host_sparsity_pattern : 17 ms
[OGL LOG] matrix not stored update host matrix
[OGL LOG] update_host_mtx : 9 ms
[OGL LOG] matrix is not yet sorted, sorting host matrix
[OGL LOG] sort_host_mtx_sparsity_pattern : 12 ms
[OGL LOG] sort_host_mtx : 6 ms
[OGL LOG] init_preconditioner : 0 ms
[OGL LOG] solve : 1839 ms
BJompGKOBiCGStab:  Solving for p, Initial residual = 0.0663097, Final residual = 4.48492e-05, No Iterations 173
linear solve p 1893570
time step continuity errors : sum local = 3.75226e-07, global = 6.93899e-21, cumulative = -1.94668e-20
ExecutionTime = 15.95 s  ClockTime = 16 s

Time = 0.005

Courant Number mean: 0.0438794 max: 0.33839
DILUPBiCGStab:  Solving for Ux, Initial residual = 0.026341, Final residual = 7.83838e-08, No Iterations 5
DILUPBiCGStab:  Solving for Uy, Initial residual = 0.0459066, Final residual = 1.78522e-07, No Iterations 5
DILUPBiCGStab:  Solving for Uz, Initial residual = 0.0938583, Final residual = 7.49446e-07, No Iterations 5
linear solve U 46772
[OGL LOG] init_host_sparsity_pattern : 17 ms
[OGL LOG] matrix not stored update host matrix
[OGL LOG] update_host_mtx : 9 ms
[OGL LOG] matrix is not yet sorted, sorting host matrix
[OGL LOG] sort_host_mtx_sparsity_pattern : 13 ms
[OGL LOG] sort_host_mtx : 6 ms
[OGL LOG] init_preconditioner : 0 ms
[OGL LOG] solve : 1992 ms
BJompGKOBiCGStab:  Solving for p, Initial residual = 0.0456312, Final residual = 9.55454e-05, No Iterations 187
linear solve p 2047626
time step continuity errors : sum local = 1.77253e-07, global = 1.3444e-20, cumulative = -6.02272e-21
[OGL LOG] init_host_sparsity_pattern : 17 ms
[OGL LOG] matrix not stored update host matrix
[OGL LOG] update_host_mtx : 9 ms
[OGL LOG] matrix is not yet sorted, sorting host matrix
[OGL LOG] sort_host_mtx_sparsity_pattern : 12 ms
[OGL LOG] sort_host_mtx : 6 ms
[OGL LOG] init_preconditioner : 0 ms
[OGL LOG] solve : 1908 ms
BJompGKOBiCGStab:  Solving for p, Initial residual = 0.0371497, Final residual = 2.65911e-05, No Iterations 179
linear solve p 1962469
time step continuity errors : sum local = 4.06419e-07, global = 1.69204e-20, cumulative = 1.08977e-20
ExecutionTime = 20.02 s  ClockTime = 20 s

Time = 0.006

Courant Number mean: 0.0475617 max: 0.344483
DILUPBiCGStab:  Solving for Ux, Initial residual = 0.0200918, Final residual = 3.54741e-08, No Iterations 5
DILUPBiCGStab:  Solving for Uy, Initial residual = 0.0348252, Final residual = 8.29089e-08, No Iterations 5
DILUPBiCGStab:  Solving for Uz, Initial residual = 0.067543, Final residual = 3.81706e-07, No Iterations 5
linear solve U 45017
[OGL LOG] init_host_sparsity_pattern : 16 ms
[OGL LOG] matrix not stored update host matrix
[OGL LOG] update_host_mtx : 8 ms
[OGL LOG] matrix is not yet sorted, sorting host matrix
[OGL LOG] sort_host_mtx_sparsity_pattern : 12 ms
[OGL LOG] sort_host_mtx : 6 ms
[OGL LOG] init_preconditioner : 0 ms
[OGL LOG] solve : 1754 ms
BJompGKOBiCGStab:  Solving for p, Initial residual = 0.0304203, Final residual = 9.42049e-05, No Iterations 166
linear solve p 1807245
time step continuity errors : sum local = 6.83754e-08, global = -1.22224e-20, cumulative = -1.32472e-21
[OGL LOG] init_host_sparsity_pattern : 17 ms
[OGL LOG] matrix not stored update host matrix
[OGL LOG] update_host_mtx : 9 ms
[OGL LOG] matrix is not yet sorted, sorting host matrix
[OGL LOG] sort_host_mtx_sparsity_pattern : 12 ms
[OGL LOG] sort_host_mtx : 6 ms
[OGL LOG] init_preconditioner : 0 ms
[OGL LOG] solve : 1801 ms
BJompGKOBiCGStab:  Solving for p, Initial residual = 0.0248496, Final residual = 9.36389e-05, No Iterations 170
linear solve p 1855522
time step continuity errors : sum local = 6.64185e-08, global = 1.87331e-20, cumulative = 1.74084e-20
ExecutionTime = 23.75 s  ClockTime = 24 s

Time = 0.007

Courant Number mean: 0.0505738 max: 0.348643
DILUPBiCGStab:  Solving for Ux, Initial residual = 0.0159138, Final residual = 2.14032e-08, No Iterations 5
DILUPBiCGStab:  Solving for Uy, Initial residual = 0.0279702, Final residual = 5.00195e-08, No Iterations 5
DILUPBiCGStab:  Solving for Uz, Initial residual = 0.0537414, Final residual = 2.53697e-07, No Iterations 5
linear solve U 46300
[OGL LOG] init_host_sparsity_pattern : 16 ms
[OGL LOG] matrix not stored update host matrix
[OGL LOG] update_host_mtx : 8 ms
[OGL LOG] matrix is not yet sorted, sorting host matrix
[OGL LOG] sort_host_mtx_sparsity_pattern : 12 ms
[OGL LOG] sort_host_mtx : 6 ms
[OGL LOG] init_preconditioner : 0 ms
[OGL LOG] solve : 687 ms
BJompGKOBiCGStab:  Solving for p, Initial residual = 0.0234703, Final residual = 7.55889e-05, No Iterations 64
linear solve p 740619
time step continuity errors : sum local = 1.22479e-07, global = -1.1645e-21, cumulative = 1.62439e-20
[OGL LOG] init_host_sparsity_pattern : 17 ms
[OGL LOG] matrix not stored update host matrix
[OGL LOG] update_host_mtx : 9 ms
[OGL LOG] matrix is not yet sorted, sorting host matrix
[OGL LOG] sort_host_mtx_sparsity_pattern : 12 ms
[OGL LOG] sort_host_mtx : 6 ms
[OGL LOG] init_preconditioner : 0 ms
[OGL LOG] solve : 633 ms
BJompGKOBiCGStab:  Solving for p, Initial residual = 0.0195632, Final residual = 9.86309e-05, No Iterations 59
linear solve p 687019
time step continuity errors : sum local = 1.06617e-07, global = 8.74159e-21, cumulative = 2.49855e-20
ExecutionTime = 25.25 s  ClockTime = 26 s

Time = 0.008

Courant Number mean: 0.0531127 max: 0.351711
DILUPBiCGStab:  Solving for Ux, Initial residual = 0.0130161, Final residual = 1.51566e-08, No Iterations 5
DILUPBiCGStab:  Solving for Uy, Initial residual = 0.0231529, Final residual = 3.73783e-08, No Iterations 5
DILUPBiCGStab:  Solving for Uz, Initial residual = 0.0430264, Final residual = 1.13629e-07, No Iterations 5
linear solve U 44959
[OGL LOG] init_host_sparsity_pattern : 16 ms
[OGL LOG] matrix not stored update host matrix
[OGL LOG] update_host_mtx : 8 ms
[OGL LOG] matrix is not yet sorted, sorting host matrix
[OGL LOG] sort_host_mtx_sparsity_pattern : 12 ms
[OGL LOG] sort_host_mtx : 6 ms
[OGL LOG] init_preconditioner : 0 ms
[OGL LOG] solve : 708 ms
BJompGKOBiCGStab:  Solving for p, Initial residual = 0.0187689, Final residual = 9.61061e-05, No Iterations 66
linear solve p 761884
time step continuity errors : sum local = 8.88242e-08, global = -5.21674e-21, cumulative = 1.97687e-20
[OGL LOG] init_host_sparsity_pattern : 17 ms
[OGL LOG] matrix not stored update host matrix
[OGL LOG] update_host_mtx : 9 ms
[OGL LOG] matrix is not yet sorted, sorting host matrix
[OGL LOG] sort_host_mtx_sparsity_pattern : 12 ms
[OGL LOG] sort_host_mtx : 6 ms
[OGL LOG] init_preconditioner : 0 ms
[OGL LOG] solve : 655 ms
BJompGKOBiCGStab:  Solving for p, Initial residual = 0.0158938, Final residual = 9.78973e-05, No Iterations 61
linear solve p 709144
time step continuity errors : sum local = 9.26844e-08, global = -2.08805e-21, cumulative = 1.76807e-20
ExecutionTime = 26.8 s  ClockTime = 27 s

Time = 0.009

Courant Number mean: 0.0552697 max: 0.354071
DILUPBiCGStab:  Solving for Ux, Initial residual = 0.0109133, Final residual = 1.13925e-08, No Iterations 5
DILUPBiCGStab:  Solving for Uy, Initial residual = 0.0195911, Final residual = 2.78909e-08, No Iterations 5
DILUPBiCGStab:  Solving for Uz, Initial residual = 0.0359237, Final residual = 9.50343e-08, No Iterations 5
linear solve U 46302
[OGL LOG] init_host_sparsity_pattern : 16 ms
[OGL LOG] matrix not stored update host matrix
[OGL LOG] update_host_mtx : 8 ms
[OGL LOG] matrix is not yet sorted, sorting host matrix
[OGL LOG] sort_host_mtx_sparsity_pattern : 13 ms
[OGL LOG] sort_host_mtx : 6 ms
[OGL LOG] init_preconditioner : 0 ms
[OGL LOG] solve : 666 ms
BJompGKOBiCGStab:  Solving for p, Initial residual = 0.0155189, Final residual = 8.26041e-05, No Iterations 62
linear solve p 719514
time step continuity errors : sum local = 1.48792e-07, global = -2.07695e-20, cumulative = -3.08885e-21
[OGL LOG] init_host_sparsity_pattern : 17 ms
[OGL LOG] matrix not stored update host matrix
[OGL LOG] update_host_mtx : 9 ms
[OGL LOG] matrix is not yet sorted, sorting host matrix
[OGL LOG] sort_host_mtx_sparsity_pattern : 12 ms
[OGL LOG] sort_host_mtx : 6 ms
[OGL LOG] init_preconditioner : 0 ms
[OGL LOG] solve : 610 ms
BJompGKOBiCGStab:  Solving for p, Initial residual = 0.0132707, Final residual = 9.10551e-05, No Iterations 57
linear solve p 664002
time step continuity errors : sum local = 9.30535e-08, global = -1.32789e-20, cumulative = -1.63677e-20
ExecutionTime = 28.26 s  ClockTime = 29 s

Time = 0.01

Courant Number mean: 0.0571251 max: 0.355961
DILUPBiCGStab:  Solving for Ux, Initial residual = 0.00930571, Final residual = 9.0439e-09, No Iterations 5
DILUPBiCGStab:  Solving for Uy, Initial residual = 0.016859, Final residual = 2.03725e-08, No Iterations 5
DILUPBiCGStab:  Solving for Uz, Initial residual = 0.0318687, Final residual = 8.68578e-08, No Iterations 5
linear solve U 45408
[OGL LOG] init_host_sparsity_pattern : 16 ms
[OGL LOG] matrix not stored update host matrix
[OGL LOG] update_host_mtx : 8 ms
[OGL LOG] matrix is not yet sorted, sorting host matrix
[OGL LOG] sort_host_mtx_sparsity_pattern : 12 ms
[OGL LOG] sort_host_mtx : 6 ms
[OGL LOG] init_preconditioner : 0 ms
[OGL LOG] solve : 631 ms
BJompGKOBiCGStab:  Solving for p, Initial residual = 0.0134676, Final residual = 9.24339e-05, No Iterations 59
linear solve p 684035
time step continuity errors : sum local = 8.88196e-08, global = -2.2958e-20, cumulative = -3.93257e-20
[OGL LOG] init_host_sparsity_pattern : 18 ms
[OGL LOG] matrix not stored update host matrix
[OGL LOG] update_host_mtx : 9 ms
[OGL LOG] matrix is not yet sorted, sorting host matrix
[OGL LOG] sort_host_mtx_sparsity_pattern : 12 ms
[OGL LOG] sort_host_mtx : 6 ms
[OGL LOG] init_preconditioner : 0 ms
[OGL LOG] solve : 601 ms
BJompGKOBiCGStab:  Solving for p, Initial residual = 0.0114815, Final residual = 8.66628e-05, No Iterations 56
linear solve p 655490
time step continuity errors : sum local = 8.68813e-08, global = -8.62672e-22, cumulative = -4.01884e-20
ExecutionTime = 29.66 s  ClockTime = 30 s

End

