/*---------------------------------------------------------------------------*\
  =========                 |
  \\      /  F ield         | OpenFOAM: The Open Source CFD Toolbox
   \\    /   O peration     | Website:  https://openfoam.org
    \\  /    A nd           | Version:  8
     \\/     M anipulation  |
\*---------------------------------------------------------------------------*/
Build  : 8-40a5a48f630f
Exec   : icoFoam
Date   : Jul 28 2021
Time   : 12:16:53
Host   : "uc2n463.localdomain"
PID    : 1724250
I/O    : uncollated
Case   : /pfs/data5/home/kit/scc/nq7776/code/OBR/lidDrivenCavity3D/Variation_mesh/40/Variation_matrix_solver/CG_NoPrecond_OMP/base
nProcs : 1
sigFpe : Enabling floating point exception trapping (FOAM_SIGFPE).
fileModificationChecking : Monitoring run-time modified files using timeStampMaster (fileModificationSkew 10)
allowSystemOperations : Allowing user-supplied system call operations

// * * * * * * * * * * * * * * * * * * * * * * * * * * * * * * * * * * * * * //
Create time

Create mesh for time = 0

Reading transportProperties

Reading field p

Reading field U

Reading/calculating face flux field phi


Starting time loop

Time = 0.001

Courant Number mean: 0 max: 0
nonePBiCGStab:  Solving for Ux, Initial residual = 1, Final residual = 0.0197517, No Iterations 5
nonePBiCGStab:  Solving for Uy, Initial residual = 0, Final residual = 0, No Iterations 0
nonePBiCGStab:  Solving for Uz, Initial residual = 0, Final residual = 0, No Iterations 0
linear solve U 14
[OGL LOG] init_host_sparsity_pattern : 18 ms
[OGL LOG] matrix not stored update host matrix
[OGL LOG] update_host_mtx : 9 ms
[OGL LOG] matrix is not yet sorted, compute sorting idxs
[OGL LOG] compute_sort : 482 ms
[OGL LOG] matrix is not yet sorted, sorting host matrix
[OGL LOG] sort_host_mtx_sparsity_pattern : 12 ms
[OGL LOG] sort_host_mtx : 7 ms
[OGL LOG] init_preconditioner : 0 ms
[OGL LOG] solve : 531 ms
noneompGKOCG:  Solving for p, Initial residual = 1, Final residual = 9.75113e-05, No Iterations 310
linear solve p 1075
time step continuity errors : sum local = 5.24521e-08, global = -2.00551e-20, cumulative = -2.00551e-20
[OGL LOG] init_host_sparsity_pattern : 18 ms
[OGL LOG] matrix not stored update host matrix
[OGL LOG] update_host_mtx : 9 ms
[OGL LOG] matrix is not yet sorted, sorting host matrix
[OGL LOG] sort_host_mtx_sparsity_pattern : 12 ms
[OGL LOG] sort_host_mtx : 6 ms
[OGL LOG] init_preconditioner : 0 ms
[OGL LOG] solve : 522 ms
noneompGKOCG:  Solving for p, Initial residual = 0.598231, Final residual = 8.91128e-05, No Iterations 306
linear solve p 576
time step continuity errors : sum local = 7.19914e-08, global = 7.58744e-21, cumulative = -1.24677e-20
ExecutionTime = 1.94 s  ClockTime = 2 s

Time = 0.002

Courant Number mean: 0.0210244 max: 0.237018
nonePBiCGStab:  Solving for Ux, Initial residual = 0.177642, Final residual = 0.00670775, No Iterations 5
nonePBiCGStab:  Solving for Uy, Initial residual = 0.294212, Final residual = 0.00767226, No Iterations 5
nonePBiCGStab:  Solving for Uz, Initial residual = 0.957341, Final residual = 0.0372561, No Iterations 5
linear solve U 26
[OGL LOG] init_host_sparsity_pattern : 16 ms
[OGL LOG] matrix not stored update host matrix
[OGL LOG] update_host_mtx : 9 ms
[OGL LOG] matrix is not yet sorted, sorting host matrix
[OGL LOG] sort_host_mtx_sparsity_pattern : 12 ms
[OGL LOG] sort_host_mtx : 6 ms
[OGL LOG] init_preconditioner : 0 ms
[OGL LOG] solve : 519 ms
noneompGKOCG:  Solving for p, Initial residual = 0.457547, Final residual = 7.71482e-05, No Iterations 304
linear solve p 572
time step continuity errors : sum local = 6.13817e-08, global = -9.34299e-21, cumulative = -2.18106e-20
[OGL LOG] init_host_sparsity_pattern : 16 ms
[OGL LOG] matrix not stored update host matrix
[OGL LOG] update_host_mtx : 8 ms
[OGL LOG] matrix is not yet sorted, sorting host matrix
[OGL LOG] sort_host_mtx_sparsity_pattern : 12 ms
[OGL LOG] sort_host_mtx : 6 ms
[OGL LOG] init_preconditioner : 0 ms
[OGL LOG] solve : 517 ms
noneompGKOCG:  Solving for p, Initial residual = 0.360878, Final residual = 8.08324e-05, No Iterations 302
linear solve p 568
time step continuity errors : sum local = 6.69409e-08, global = 1.33352e-20, cumulative = -8.47544e-21
ExecutionTime = 3.14 s  ClockTime = 3 s

Time = 0.003

Courant Number mean: 0.0321026 max: 0.305901
nonePBiCGStab:  Solving for Ux, Initial residual = 0.0657761, Final residual = 0.0012412, No Iterations 5
nonePBiCGStab:  Solving for Uy, Initial residual = 0.107436, Final residual = 0.00172165, No Iterations 5
nonePBiCGStab:  Solving for Uz, Initial residual = 0.159297, Final residual = 0.00583315, No Iterations 5
linear solve U 26
[OGL LOG] init_host_sparsity_pattern : 17 ms
[OGL LOG] matrix not stored update host matrix
[OGL LOG] update_host_mtx : 9 ms
[OGL LOG] matrix is not yet sorted, sorting host matrix
[OGL LOG] sort_host_mtx_sparsity_pattern : 12 ms
[OGL LOG] sort_host_mtx : 6 ms
[OGL LOG] init_preconditioner : 0 ms
[OGL LOG] solve : 491 ms
noneompGKOCG:  Solving for p, Initial residual = 0.162752, Final residual = 9.14308e-05, No Iterations 287
linear solve p 544
time step continuity errors : sum local = 5.854e-08, global = 8.79939e-22, cumulative = -7.5955e-21
[OGL LOG] init_host_sparsity_pattern : 16 ms
[OGL LOG] matrix not stored update host matrix
[OGL LOG] update_host_mtx : 8 ms
[OGL LOG] matrix is not yet sorted, sorting host matrix
[OGL LOG] sort_host_mtx_sparsity_pattern : 12 ms
[OGL LOG] sort_host_mtx : 6 ms
[OGL LOG] init_preconditioner : 0 ms
[OGL LOG] solve : 489 ms
noneompGKOCG:  Solving for p, Initial residual = 0.127415, Final residual = 9.60036e-05, No Iterations 284
linear solve p 540
time step continuity errors : sum local = 6.12402e-08, global = 1.04395e-20, cumulative = 2.84397e-21
ExecutionTime = 4.28 s  ClockTime = 4 s

Time = 0.004

Courant Number mean: 0.0386764 max: 0.327554
nonePBiCGStab:  Solving for Ux, Initial residual = 0.0387329, Final residual = 0.000519067, No Iterations 5
nonePBiCGStab:  Solving for Uy, Initial residual = 0.0670673, Final residual = 0.000634203, No Iterations 5
nonePBiCGStab:  Solving for Uz, Initial residual = 0.113075, Final residual = 0.00269044, No Iterations 5
linear solve U 26
[OGL LOG] init_host_sparsity_pattern : 17 ms
[OGL LOG] matrix not stored update host matrix
[OGL LOG] update_host_mtx : 9 ms
[OGL LOG] matrix is not yet sorted, sorting host matrix
[OGL LOG] sort_host_mtx_sparsity_pattern : 12 ms
[OGL LOG] sort_host_mtx : 6 ms
[OGL LOG] init_preconditioner : 0 ms
[OGL LOG] solve : 472 ms
noneompGKOCG:  Solving for p, Initial residual = 0.0844222, Final residual = 9.71703e-05, No Iterations 277
linear solve p 526
time step continuity errors : sum local = 6.02827e-08, global = -1.93043e-20, cumulative = -1.64603e-20
[OGL LOG] init_host_sparsity_pattern : 17 ms
[OGL LOG] matrix not stored update host matrix
[OGL LOG] update_host_mtx : 9 ms
[OGL LOG] matrix is not yet sorted, sorting host matrix
[OGL LOG] sort_host_mtx_sparsity_pattern : 12 ms
[OGL LOG] sort_host_mtx : 6 ms
[OGL LOG] init_preconditioner : 0 ms
[OGL LOG] solve : 470 ms
noneompGKOCG:  Solving for p, Initial residual = 0.065063, Final residual = 9.16624e-05, No Iterations 275
linear solve p 523
time step continuity errors : sum local = 5.7612e-08, global = 3.49548e-23, cumulative = -1.64254e-20
ExecutionTime = 5.38 s  ClockTime = 5 s

Time = 0.005

Courant Number mean: 0.0434825 max: 0.337868
nonePBiCGStab:  Solving for Ux, Initial residual = 0.0269766, Final residual = 0.000295796, No Iterations 5
nonePBiCGStab:  Solving for Uy, Initial residual = 0.0465263, Final residual = 0.00039215, No Iterations 5
nonePBiCGStab:  Solving for Uz, Initial residual = 0.0802922, Final residual = 0.00157685, No Iterations 5
linear solve U 26
[OGL LOG] init_host_sparsity_pattern : 17 ms
[OGL LOG] matrix not stored update host matrix
[OGL LOG] update_host_mtx : 9 ms
[OGL LOG] matrix is not yet sorted, sorting host matrix
[OGL LOG] sort_host_mtx_sparsity_pattern : 12 ms
[OGL LOG] sort_host_mtx : 6 ms
[OGL LOG] init_preconditioner : 0 ms
[OGL LOG] solve : 463 ms
noneompGKOCG:  Solving for p, Initial residual = 0.0436417, Final residual = 9.56502e-05, No Iterations 272
linear solve p 517
time step continuity errors : sum local = 5.9292e-08, global = 1.23355e-20, cumulative = -4.08988e-21
[OGL LOG] init_host_sparsity_pattern : 17 ms
[OGL LOG] matrix not stored update host matrix
[OGL LOG] update_host_mtx : 9 ms
[OGL LOG] matrix is not yet sorted, sorting host matrix
[OGL LOG] sort_host_mtx_sparsity_pattern : 13 ms
[OGL LOG] sort_host_mtx : 6 ms
[OGL LOG] init_preconditioner : 0 ms
[OGL LOG] solve : 463 ms
noneompGKOCG:  Solving for p, Initial residual = 0.035008, Final residual = 8.48866e-05, No Iterations 271
linear solve p 518
time step continuity errors : sum local = 5.2833e-08, global = -9.28374e-21, cumulative = -1.33736e-20
ExecutionTime = 6.48 s  ClockTime = 6 s

Time = 0.006

Courant Number mean: 0.0472031 max: 0.344032
nonePBiCGStab:  Solving for Ux, Initial residual = 0.0204447, Final residual = 0.000225064, No Iterations 5
nonePBiCGStab:  Solving for Uy, Initial residual = 0.0355731, Final residual = 0.000192995, No Iterations 5
nonePBiCGStab:  Solving for Uz, Initial residual = 0.0629284, Final residual = 0.000823249, No Iterations 5
linear solve U 26
[OGL LOG] init_host_sparsity_pattern : 17 ms
[OGL LOG] matrix not stored update host matrix
[OGL LOG] update_host_mtx : 9 ms
[OGL LOG] matrix is not yet sorted, sorting host matrix
[OGL LOG] sort_host_mtx_sparsity_pattern : 12 ms
[OGL LOG] sort_host_mtx : 6 ms
[OGL LOG] init_preconditioner : 0 ms
[OGL LOG] solve : 233 ms
noneompGKOCG:  Solving for p, Initial residual = 0.0293282, Final residual = 9.77914e-05, No Iterations 137
linear solve p 287
time step continuity errors : sum local = 7.46074e-08, global = -5.78016e-21, cumulative = -1.91538e-20
[OGL LOG] init_host_sparsity_pattern : 18 ms
[OGL LOG] matrix not stored update host matrix
[OGL LOG] update_host_mtx : 9 ms
[OGL LOG] matrix is not yet sorted, sorting host matrix
[OGL LOG] sort_host_mtx_sparsity_pattern : 13 ms
[OGL LOG] sort_host_mtx : 6 ms
[OGL LOG] init_preconditioner : 0 ms
[OGL LOG] solve : 216 ms
noneompGKOCG:  Solving for p, Initial residual = 0.0239204, Final residual = 9.59823e-05, No Iterations 125
linear solve p 271
time step continuity errors : sum local = 6.48846e-08, global = -1.55934e-20, cumulative = -3.47472e-20
ExecutionTime = 7.09 s  ClockTime = 7 s

Time = 0.007

Courant Number mean: 0.0502373 max: 0.34826
nonePBiCGStab:  Solving for Ux, Initial residual = 0.0162551, Final residual = 0.000135526, No Iterations 5
nonePBiCGStab:  Solving for Uy, Initial residual = 0.0284586, Final residual = 0.000157866, No Iterations 5
nonePBiCGStab:  Solving for Uz, Initial residual = 0.0518077, Final residual = 0.000784935, No Iterations 5
linear solve U 26
[OGL LOG] init_host_sparsity_pattern : 17 ms
[OGL LOG] matrix not stored update host matrix
[OGL LOG] update_host_mtx : 9 ms
[OGL LOG] matrix is not yet sorted, sorting host matrix
[OGL LOG] sort_host_mtx_sparsity_pattern : 12 ms
[OGL LOG] sort_host_mtx : 6 ms
[OGL LOG] init_preconditioner : 0 ms
[OGL LOG] solve : 216 ms
noneompGKOCG:  Solving for p, Initial residual = 0.0227805, Final residual = 8.99864e-05, No Iterations 126
linear solve p 270
time step continuity errors : sum local = 6.57263e-08, global = 1.80049e-20, cumulative = -1.67423e-20
[OGL LOG] init_host_sparsity_pattern : 17 ms
[OGL LOG] matrix not stored update host matrix
[OGL LOG] update_host_mtx : 9 ms
[OGL LOG] matrix is not yet sorted, sorting host matrix
[OGL LOG] sort_host_mtx_sparsity_pattern : 12 ms
[OGL LOG] sort_host_mtx : 6 ms
[OGL LOG] init_preconditioner : 0 ms
[OGL LOG] solve : 208 ms
noneompGKOCG:  Solving for p, Initial residual = 0.0189872, Final residual = 9.78493e-05, No Iterations 121
linear solve p 262
time step continuity errors : sum local = 6.66278e-08, global = -3.14249e-20, cumulative = -4.81672e-20
ExecutionTime = 7.68 s  ClockTime = 7 s

Time = 0.008

Courant Number mean: 0.0528073 max: 0.351375
nonePBiCGStab:  Solving for Ux, Initial residual = 0.0133491, Final residual = 9.02129e-05, No Iterations 5
nonePBiCGStab:  Solving for Uy, Initial residual = 0.0235143, Final residual = 0.000100186, No Iterations 5
nonePBiCGStab:  Solving for Uz, Initial residual = 0.0437281, Final residual = 0.000469118, No Iterations 5
linear solve U 26
[OGL LOG] init_host_sparsity_pattern : 17 ms
[OGL LOG] matrix not stored update host matrix
[OGL LOG] update_host_mtx : 9 ms
[OGL LOG] matrix is not yet sorted, sorting host matrix
[OGL LOG] sort_host_mtx_sparsity_pattern : 12 ms
[OGL LOG] sort_host_mtx : 6 ms
[OGL LOG] init_preconditioner : 0 ms
[OGL LOG] solve : 211 ms
noneompGKOCG:  Solving for p, Initial residual = 0.0180705, Final residual = 9.61482e-05, No Iterations 123
linear solve p 265
time step continuity errors : sum local = 7.20346e-08, global = -3.60428e-21, cumulative = -5.17715e-20
[OGL LOG] init_host_sparsity_pattern : 17 ms
[OGL LOG] matrix not stored update host matrix
[OGL LOG] update_host_mtx : 9 ms
[OGL LOG] matrix is not yet sorted, sorting host matrix
[OGL LOG] sort_host_mtx_sparsity_pattern : 12 ms
[OGL LOG] sort_host_mtx : 6 ms
[OGL LOG] init_preconditioner : 0 ms
[OGL LOG] solve : 202 ms
noneompGKOCG:  Solving for p, Initial residual = 0.0152184, Final residual = 9.54719e-05, No Iterations 118
linear solve p 256
time step continuity errors : sum local = 6.7016e-08, global = -1.99283e-20, cumulative = -7.16998e-20
ExecutionTime = 8.26 s  ClockTime = 8 s

Time = 0.009

Courant Number mean: 0.0549945 max: 0.353787
nonePBiCGStab:  Solving for Ux, Initial residual = 0.0112083, Final residual = 6.76936e-05, No Iterations 5
nonePBiCGStab:  Solving for Uy, Initial residual = 0.0198645, Final residual = 8.2502e-05, No Iterations 5
nonePBiCGStab:  Solving for Uz, Initial residual = 0.0375613, Final residual = 0.000425308, No Iterations 5
linear solve U 26
[OGL LOG] init_host_sparsity_pattern : 17 ms
[OGL LOG] matrix not stored update host matrix
[OGL LOG] update_host_mtx : 9 ms
[OGL LOG] matrix is not yet sorted, sorting host matrix
[OGL LOG] sort_host_mtx_sparsity_pattern : 12 ms
[OGL LOG] sort_host_mtx : 6 ms
[OGL LOG] init_preconditioner : 0 ms
[OGL LOG] solve : 206 ms
noneompGKOCG:  Solving for p, Initial residual = 0.0151742, Final residual = 9.88696e-05, No Iterations 120
linear solve p 260
time step continuity errors : sum local = 7.31035e-08, global = -2.14145e-20, cumulative = -9.31143e-20
[OGL LOG] init_host_sparsity_pattern : 17 ms
[OGL LOG] matrix not stored update host matrix
[OGL LOG] update_host_mtx : 9 ms
[OGL LOG] matrix is not yet sorted, sorting host matrix
[OGL LOG] sort_host_mtx_sparsity_pattern : 12 ms
[OGL LOG] sort_host_mtx : 6 ms
[OGL LOG] init_preconditioner : 0 ms
[OGL LOG] solve : 201 ms
noneompGKOCG:  Solving for p, Initial residual = 0.0128412, Final residual = 9.28437e-05, No Iterations 117
linear solve p 255
time step continuity errors : sum local = 6.61824e-08, global = 6.99996e-21, cumulative = -8.61143e-20
ExecutionTime = 8.83 s  ClockTime = 9 s

Time = 0.01

Courant Number mean: 0.0568767 max: 0.355714
nonePBiCGStab:  Solving for Ux, Initial residual = 0.00956516, Final residual = 4.57462e-05, No Iterations 5
nonePBiCGStab:  Solving for Uy, Initial residual = 0.0170655, Final residual = 5.94232e-05, No Iterations 5
nonePBiCGStab:  Solving for Uz, Initial residual = 0.0327032, Final residual = 0.000271153, No Iterations 5
linear solve U 26
[OGL LOG] init_host_sparsity_pattern : 17 ms
[OGL LOG] matrix not stored update host matrix
[OGL LOG] update_host_mtx : 9 ms
[OGL LOG] matrix is not yet sorted, sorting host matrix
[OGL LOG] sort_host_mtx_sparsity_pattern : 12 ms
[OGL LOG] sort_host_mtx : 6 ms
[OGL LOG] init_preconditioner : 0 ms
[OGL LOG] solve : 203 ms
noneompGKOCG:  Solving for p, Initial residual = 0.0129104, Final residual = 9.70725e-05, No Iterations 118
linear solve p 256
time step continuity errors : sum local = 7.28846e-08, global = 1.12259e-20, cumulative = -7.48884e-20
[OGL LOG] init_host_sparsity_pattern : 17 ms
[OGL LOG] matrix not stored update host matrix
[OGL LOG] update_host_mtx : 9 ms
[OGL LOG] matrix is not yet sorted, sorting host matrix
[OGL LOG] sort_host_mtx_sparsity_pattern : 12 ms
[OGL LOG] sort_host_mtx : 6 ms
[OGL LOG] init_preconditioner : 0 ms
[OGL LOG] solve : 193 ms
noneompGKOCG:  Solving for p, Initial residual = 0.0109605, Final residual = 9.78224e-05, No Iterations 113
linear solve p 247
time step continuity errors : sum local = 7.037e-08, global = 1.17126e-20, cumulative = -6.31758e-20
ExecutionTime = 9.39 s  ClockTime = 9 s

End

