/*---------------------------------------------------------------------------*\
  =========                 |
  \\      /  F ield         | OpenFOAM: The Open Source CFD Toolbox
   \\    /   O peration     | Website:  https://openfoam.org
    \\  /    A nd           | Version:  8
     \\/     M anipulation  |
\*---------------------------------------------------------------------------*/
Build  : 8-40a5a48f630f
Exec   : icoFoam
Date   : Jul 28 2021
Time   : 12:14:20
Host   : "uc2n412.localdomain"
PID    : 4076783
I/O    : uncollated
Case   : /pfs/data5/home/kit/scc/nq7776/code/OBR/lidDrivenCavity3D/Variation_mesh/65/Variation_matrix_solver/BiCGStab_NoPrecond_OMP/base
nProcs : 1
sigFpe : Enabling floating point exception trapping (FOAM_SIGFPE).
fileModificationChecking : Monitoring run-time modified files using timeStampMaster (fileModificationSkew 10)
allowSystemOperations : Allowing user-supplied system call operations

// * * * * * * * * * * * * * * * * * * * * * * * * * * * * * * * * * * * * * //
Create time

Create mesh for time = 0

Reading transportProperties

Reading field p

Reading field U

Reading/calculating face flux field phi


Starting time loop

Time = 0.001

Courant Number mean: 0 max: 0
nonePBiCGStab:  Solving for Ux, Initial residual = 1, Final residual = 0.053017, No Iterations 5
nonePBiCGStab:  Solving for Uy, Initial residual = 0, Final residual = 0, No Iterations 0
nonePBiCGStab:  Solving for Uz, Initial residual = 0, Final residual = 0, No Iterations 0
linear solve U 71
[OGL LOG] init_host_sparsity_pattern : 83 ms
[OGL LOG] matrix not stored update host matrix
[OGL LOG] update_host_mtx : 41 ms
[OGL LOG] matrix is not yet sorted, compute sorting idxs
[OGL LOG] compute_sort : 2492 ms
[OGL LOG] matrix is not yet sorted, sorting host matrix
[OGL LOG] sort_host_mtx_sparsity_pattern : 56 ms
[OGL LOG] sort_host_mtx : 33 ms
[OGL LOG] init_preconditioner : 0 ms
[OGL LOG] solve : 2170 ms
noneompGKOBiCGStab:  Solving for p, Initial residual = 1, Final residual = 9.23015e-05, No Iterations 415
linear solve p 4936
time step continuity errors : sum local = 6.93906e-07, global = -1.28647e-21, cumulative = -1.28647e-21
[OGL LOG] init_host_sparsity_pattern : 75 ms
[OGL LOG] matrix not stored update host matrix
[OGL LOG] update_host_mtx : 40 ms
[OGL LOG] matrix is not yet sorted, sorting host matrix
[OGL LOG] sort_host_mtx_sparsity_pattern : 56 ms
[OGL LOG] sort_host_mtx : 28 ms
[OGL LOG] init_preconditioner : 0 ms
[OGL LOG] solve : 2042 ms
noneompGKOBiCGStab:  Solving for p, Initial residual = 0.674727, Final residual = 8.90556e-05, No Iterations 399
linear solve p 2275
time step continuity errors : sum local = 2.70397e-06, global = -2.81119e-21, cumulative = -4.09766e-21
ExecutionTime = 38.03 s  ClockTime = 8 s

Time = 0.002

Courant Number mean: 0.0326868 max: 0.468251
nonePBiCGStab:  Solving for Ux, Initial residual = 0.152135, Final residual = 0.021227, No Iterations 5
nonePBiCGStab:  Solving for Uy, Initial residual = 0.364729, Final residual = 0.046745, No Iterations 5
nonePBiCGStab:  Solving for Uz, Initial residual = 0.958731, Final residual = 0.15663, No Iterations 5
linear solve U 138
[OGL LOG] init_host_sparsity_pattern : 74 ms
[OGL LOG] matrix not stored update host matrix
[OGL LOG] update_host_mtx : 39 ms
[OGL LOG] matrix is not yet sorted, sorting host matrix
[OGL LOG] sort_host_mtx_sparsity_pattern : 58 ms
[OGL LOG] sort_host_mtx : 27 ms
[OGL LOG] init_preconditioner : 0 ms
[OGL LOG] solve : 1891 ms
noneompGKOBiCGStab:  Solving for p, Initial residual = 0.655854, Final residual = 8.96874e-05, No Iterations 370
linear solve p 2127
time step continuity errors : sum local = 1.5147e-07, global = -4.94943e-21, cumulative = -9.04709e-21
[OGL LOG] init_host_sparsity_pattern : 78 ms
[OGL LOG] matrix not stored update host matrix
[OGL LOG] update_host_mtx : 40 ms
[OGL LOG] matrix is not yet sorted, sorting host matrix
[OGL LOG] sort_host_mtx_sparsity_pattern : 56 ms
[OGL LOG] sort_host_mtx : 27 ms
[OGL LOG] init_preconditioner : 0 ms
[OGL LOG] solve : 1904 ms
noneompGKOBiCGStab:  Solving for p, Initial residual = 0.572506, Final residual = 2.12465e-05, No Iterations 385
linear solve p 2141
time step continuity errors : sum local = 3.34018e-06, global = 1.12816e-20, cumulative = 2.23448e-21
ExecutionTime = 69.24 s  ClockTime = 13 s

Time = 0.003

Courant Number mean: 0.0502146 max: 0.556554
nonePBiCGStab:  Solving for Ux, Initial residual = 0.0552083, Final residual = 0.00602013, No Iterations 5
nonePBiCGStab:  Solving for Uy, Initial residual = 0.126059, Final residual = 0.0174391, No Iterations 5
nonePBiCGStab:  Solving for Uz, Initial residual = 0.376996, Final residual = 0.0696916, No Iterations 5
linear solve U 136
[OGL LOG] init_host_sparsity_pattern : 74 ms
[OGL LOG] matrix not stored update host matrix
[OGL LOG] update_host_mtx : 40 ms
[OGL LOG] matrix is not yet sorted, sorting host matrix
[OGL LOG] sort_host_mtx_sparsity_pattern : 56 ms
[OGL LOG] sort_host_mtx : 28 ms
[OGL LOG] init_preconditioner : 0 ms
[OGL LOG] solve : 1876 ms
noneompGKOBiCGStab:  Solving for p, Initial residual = 0.558633, Final residual = 9.72193e-05, No Iterations 369
linear solve p 2112
time step continuity errors : sum local = 3.62771e-07, global = 1.14478e-20, cumulative = 1.36823e-20
[OGL LOG] init_host_sparsity_pattern : 72 ms
[OGL LOG] matrix not stored update host matrix
[OGL LOG] update_host_mtx : 35 ms
[OGL LOG] matrix is not yet sorted, sorting host matrix
[OGL LOG] sort_host_mtx_sparsity_pattern : 57 ms
[OGL LOG] sort_host_mtx : 27 ms
[OGL LOG] init_preconditioner : 0 ms
[OGL LOG] solve : 1629 ms
noneompGKOBiCGStab:  Solving for p, Initial residual = 0.492189, Final residual = 9.81979e-05, No Iterations 337
linear solve p 1855
time step continuity errors : sum local = 8.51738e-08, global = 1.09631e-20, cumulative = 2.46454e-20
ExecutionTime = 98.11 s  ClockTime = 17 s

Time = 0.004

Courant Number mean: 0.0602328 max: 0.574956
nonePBiCGStab:  Solving for Ux, Initial residual = 0.0333346, Final residual = 0.00322561, No Iterations 5
nonePBiCGStab:  Solving for Uy, Initial residual = 0.0808293, Final residual = 0.00775404, No Iterations 5
nonePBiCGStab:  Solving for Uz, Initial residual = 0.228268, Final residual = 0.0333797, No Iterations 5
linear solve U 138
[OGL LOG] init_host_sparsity_pattern : 75 ms
[OGL LOG] matrix not stored update host matrix
[OGL LOG] update_host_mtx : 40 ms
[OGL LOG] matrix is not yet sorted, sorting host matrix
[OGL LOG] sort_host_mtx_sparsity_pattern : 57 ms
[OGL LOG] sort_host_mtx : 29 ms
[OGL LOG] init_preconditioner : 0 ms
[OGL LOG] solve : 1806 ms
noneompGKOBiCGStab:  Solving for p, Initial residual = 0.358347, Final residual = 9.61125e-05, No Iterations 357
linear solve p 2045
time step continuity errors : sum local = 5.04561e-07, global = -5.64868e-21, cumulative = 1.89967e-20
[OGL LOG] init_host_sparsity_pattern : 72 ms
[OGL LOG] matrix not stored update host matrix
[OGL LOG] update_host_mtx : 35 ms
[OGL LOG] matrix is not yet sorted, sorting host matrix
[OGL LOG] sort_host_mtx_sparsity_pattern : 56 ms
[OGL LOG] sort_host_mtx : 27 ms
[OGL LOG] init_preconditioner : 0 ms
[OGL LOG] solve : 924 ms
noneompGKOBiCGStab:  Solving for p, Initial residual = 0.297045, Final residual = 9.99835e-05, No Iterations 182
linear solve p 1147
time step continuity errors : sum local = 1.09481e-07, global = 1.34242e-22, cumulative = 1.9131e-20
ExecutionTime = 120.8 s  ClockTime = 21 s

Time = 0.005

Courant Number mean: 0.0682032 max: 0.585587
nonePBiCGStab:  Solving for Ux, Initial residual = 0.0235326, Final residual = 0.00186831, No Iterations 5
nonePBiCGStab:  Solving for Uy, Initial residual = 0.0540904, Final residual = 0.0041374, No Iterations 5
nonePBiCGStab:  Solving for Uz, Initial residual = 0.146727, Final residual = 0.026309, No Iterations 5
linear solve U 136
[OGL LOG] init_host_sparsity_pattern : 74 ms
[OGL LOG] matrix not stored update host matrix
[OGL LOG] update_host_mtx : 40 ms
[OGL LOG] matrix is not yet sorted, sorting host matrix
[OGL LOG] sort_host_mtx_sparsity_pattern : 56 ms
[OGL LOG] sort_host_mtx : 27 ms
[OGL LOG] init_preconditioner : 0 ms
[OGL LOG] solve : 1612 ms
noneompGKOBiCGStab:  Solving for p, Initial residual = 0.280185, Final residual = 9.62722e-05, No Iterations 317
linear solve p 1843
time step continuity errors : sum local = 8.24872e-07, global = -1.7551e-21, cumulative = 1.73759e-20
[OGL LOG] init_host_sparsity_pattern : 72 ms
[OGL LOG] matrix not stored update host matrix
[OGL LOG] update_host_mtx : 35 ms
[OGL LOG] matrix is not yet sorted, sorting host matrix
[OGL LOG] sort_host_mtx_sparsity_pattern : 55 ms
[OGL LOG] sort_host_mtx : 27 ms
[OGL LOG] init_preconditioner : 0 ms
[OGL LOG] solve : 1570 ms
noneompGKOBiCGStab:  Solving for p, Initial residual = 0.238559, Final residual = 9.67557e-05, No Iterations 313
linear solve p 1795
time step continuity errors : sum local = 6.06675e-07, global = -6.09771e-21, cumulative = 1.12781e-20
ExecutionTime = 147.07 s  ClockTime = 25 s

Time = 0.006

Courant Number mean: 0.0744862 max: 0.592151
nonePBiCGStab:  Solving for Ux, Initial residual = 0.018039, Final residual = 0.00142291, No Iterations 5
nonePBiCGStab:  Solving for Uy, Initial residual = 0.0400262, Final residual = 0.00272291, No Iterations 5
nonePBiCGStab:  Solving for Uz, Initial residual = 0.125418, Final residual = 0.0241836, No Iterations 5
linear solve U 139
[OGL LOG] init_host_sparsity_pattern : 74 ms
[OGL LOG] matrix not stored update host matrix
[OGL LOG] update_host_mtx : 40 ms
[OGL LOG] matrix is not yet sorted, sorting host matrix
[OGL LOG] sort_host_mtx_sparsity_pattern : 57 ms
[OGL LOG] sort_host_mtx : 27 ms
[OGL LOG] init_preconditioner : 0 ms
[OGL LOG] solve : 1914 ms
noneompGKOBiCGStab:  Solving for p, Initial residual = 0.196229, Final residual = 8.30033e-06, No Iterations 377
linear solve p 2150
time step continuity errors : sum local = 4.14439e-07, global = -3.07587e-21, cumulative = 8.20228e-21
[OGL LOG] init_host_sparsity_pattern : 72 ms
[OGL LOG] matrix not stored update host matrix
[OGL LOG] update_host_mtx : 35 ms
[OGL LOG] matrix is not yet sorted, sorting host matrix
[OGL LOG] sort_host_mtx_sparsity_pattern : 56 ms
[OGL LOG] sort_host_mtx : 28 ms
[OGL LOG] init_preconditioner : 0 ms
[OGL LOG] solve : 1968 ms
noneompGKOBiCGStab:  Solving for p, Initial residual = 0.163841, Final residual = 9.91795e-05, No Iterations 386
linear solve p 2192
time step continuity errors : sum local = 8.16251e-08, global = -1.53852e-20, cumulative = -7.18293e-21
ExecutionTime = 178.96 s  ClockTime = 29 s

Time = 0.007

Courant Number mean: 0.079685 max: 0.596648
nonePBiCGStab:  Solving for Ux, Initial residual = 0.0141282, Final residual = 0.000990873, No Iterations 5
nonePBiCGStab:  Solving for Uy, Initial residual = 0.0321465, Final residual = 0.00187745, No Iterations 5
nonePBiCGStab:  Solving for Uz, Initial residual = 0.100208, Final residual = 0.0166831, No Iterations 5
linear solve U 138
[OGL LOG] init_host_sparsity_pattern : 74 ms
[OGL LOG] matrix not stored update host matrix
[OGL LOG] update_host_mtx : 40 ms
[OGL LOG] matrix is not yet sorted, sorting host matrix
[OGL LOG] sort_host_mtx_sparsity_pattern : 56 ms
[OGL LOG] sort_host_mtx : 27 ms
[OGL LOG] init_preconditioner : 0 ms
[OGL LOG] solve : 1558 ms
noneompGKOBiCGStab:  Solving for p, Initial residual = 0.149535, Final residual = 9.71913e-05, No Iterations 307
linear solve p 1787
time step continuity errors : sum local = 4.69435e-07, global = 1.8997e-20, cumulative = 1.1814e-20
[OGL LOG] init_host_sparsity_pattern : 73 ms
[OGL LOG] matrix not stored update host matrix
[OGL LOG] update_host_mtx : 35 ms
[OGL LOG] matrix is not yet sorted, sorting host matrix
[OGL LOG] sort_host_mtx_sparsity_pattern : 53 ms
[OGL LOG] sort_host_mtx : 28 ms
[OGL LOG] init_preconditioner : 0 ms
[OGL LOG] solve : 1542 ms
noneompGKOBiCGStab:  Solving for p, Initial residual = 0.125951, Final residual = 9.97741e-05, No Iterations 301
linear solve p 1764
time step continuity errors : sum local = 1.10056e-07, global = 1.51206e-20, cumulative = 2.69347e-20
ExecutionTime = 204.56 s  ClockTime = 33 s

Time = 0.008

Courant Number mean: 0.0840511 max: 0.600091
nonePBiCGStab:  Solving for Ux, Initial residual = 0.0117268, Final residual = 0.000840062, No Iterations 5
nonePBiCGStab:  Solving for Uy, Initial residual = 0.0255746, Final residual = 0.00148353, No Iterations 5
nonePBiCGStab:  Solving for Uz, Initial residual = 0.0838847, Final residual = 0.015982, No Iterations 5
linear solve U 135
[OGL LOG] init_host_sparsity_pattern : 72 ms
[OGL LOG] matrix not stored update host matrix
[OGL LOG] update_host_mtx : 38 ms
[OGL LOG] matrix is not yet sorted, sorting host matrix
[OGL LOG] sort_host_mtx_sparsity_pattern : 56 ms
[OGL LOG] sort_host_mtx : 27 ms
[OGL LOG] init_preconditioner : 0 ms
[OGL LOG] solve : 1753 ms
noneompGKOBiCGStab:  Solving for p, Initial residual = 0.115941, Final residual = 9.06277e-05, No Iterations 355
linear solve p 1980
time step continuity errors : sum local = 4.40496e-08, global = -1.16307e-20, cumulative = 1.5304e-20
[OGL LOG] init_host_sparsity_pattern : 73 ms
[OGL LOG] matrix not stored update host matrix
[OGL LOG] update_host_mtx : 38 ms
[OGL LOG] matrix is not yet sorted, sorting host matrix
[OGL LOG] sort_host_mtx_sparsity_pattern : 57 ms
[OGL LOG] sort_host_mtx : 28 ms
[OGL LOG] init_preconditioner : 0 ms
[OGL LOG] solve : 1975 ms
noneompGKOBiCGStab:  Solving for p, Initial residual = 0.0972354, Final residual = 8.05853e-05, No Iterations 388
linear solve p 2209
time step continuity errors : sum local = 8.03677e-08, global = -2.58742e-20, cumulative = -1.05702e-20
ExecutionTime = 235.21 s  ClockTime = 38 s

Time = 0.009

Courant Number mean: 0.0877952 max: 0.60265
nonePBiCGStab:  Solving for Ux, Initial residual = 0.00968604, Final residual = 0.000549776, No Iterations 5
nonePBiCGStab:  Solving for Uy, Initial residual = 0.0219545, Final residual = 0.000950878, No Iterations 5
nonePBiCGStab:  Solving for Uz, Initial residual = 0.0660309, Final residual = 0.00762368, No Iterations 5
linear solve U 136
[OGL LOG] init_host_sparsity_pattern : 72 ms
[OGL LOG] matrix not stored update host matrix
[OGL LOG] update_host_mtx : 39 ms
[OGL LOG] matrix is not yet sorted, sorting host matrix
[OGL LOG] sort_host_mtx_sparsity_pattern : 56 ms
[OGL LOG] sort_host_mtx : 27 ms
[OGL LOG] init_preconditioner : 0 ms
[OGL LOG] solve : 1479 ms
noneompGKOBiCGStab:  Solving for p, Initial residual = 0.0909344, Final residual = 9.99922e-05, No Iterations 292
linear solve p 1706
time step continuity errors : sum local = 1.59677e-07, global = -3.48032e-21, cumulative = -1.40505e-20
[OGL LOG] init_host_sparsity_pattern : 75 ms
[OGL LOG] matrix not stored update host matrix
[OGL LOG] update_host_mtx : 40 ms
[OGL LOG] matrix is not yet sorted, sorting host matrix
[OGL LOG] sort_host_mtx_sparsity_pattern : 56 ms
[OGL LOG] sort_host_mtx : 27 ms
[OGL LOG] init_preconditioner : 0 ms
[OGL LOG] solve : 733 ms
noneompGKOBiCGStab:  Solving for p, Initial residual = 0.0761064, Final residual = 8.98437e-05, No Iterations 143
linear solve p 966
time step continuity errors : sum local = 7.26483e-08, global = -1.47231e-20, cumulative = -2.87736e-20
ExecutionTime = 253.75 s  ClockTime = 41 s

Time = 0.01

Courant Number mean: 0.0910489 max: 0.604766
nonePBiCGStab:  Solving for Ux, Initial residual = 0.0082965, Final residual = 0.000490003, No Iterations 5
nonePBiCGStab:  Solving for Uy, Initial residual = 0.0183063, Final residual = 0.000791207, No Iterations 5
nonePBiCGStab:  Solving for Uz, Initial residual = 0.0566487, Final residual = 0.00964649, No Iterations 5
linear solve U 135
[OGL LOG] init_host_sparsity_pattern : 72 ms
[OGL LOG] matrix not stored update host matrix
[OGL LOG] update_host_mtx : 40 ms
[OGL LOG] matrix is not yet sorted, sorting host matrix
[OGL LOG] sort_host_mtx_sparsity_pattern : 56 ms
[OGL LOG] sort_host_mtx : 27 ms
[OGL LOG] init_preconditioner : 0 ms
[OGL LOG] solve : 1584 ms
noneompGKOBiCGStab:  Solving for p, Initial residual = 0.0738716, Final residual = 9.61206e-05, No Iterations 310
linear solve p 1813
time step continuity errors : sum local = 1.26268e-06, global = 4.74937e-21, cumulative = -2.40242e-20
[OGL LOG] init_host_sparsity_pattern : 72 ms
[OGL LOG] matrix not stored update host matrix
[OGL LOG] update_host_mtx : 37 ms
[OGL LOG] matrix is not yet sorted, sorting host matrix
[OGL LOG] sort_host_mtx_sparsity_pattern : 56 ms
[OGL LOG] sort_host_mtx : 27 ms
[OGL LOG] init_preconditioner : 0 ms
[OGL LOG] solve : 1517 ms
noneompGKOBiCGStab:  Solving for p, Initial residual = 0.0644454, Final residual = 9.62582e-05, No Iterations 300
linear solve p 1743
time step continuity errors : sum local = 2.27122e-07, global = 1.25584e-21, cumulative = -2.27684e-20
ExecutionTime = 279.37 s  ClockTime = 45 s

End

