/*---------------------------------------------------------------------------*\
  =========                 |
  \\      /  F ield         | OpenFOAM: The Open Source CFD Toolbox
   \\    /   O peration     | Website:  https://openfoam.org
    \\  /    A nd           | Version:  8
     \\/     M anipulation  |
\*---------------------------------------------------------------------------*/
Build  : 8-ef60d22ea792
Exec   : icoFoam
Date   : Jul 28 2021
Time   : 21:57:28
Host   : "uc2n452.localdomain"
PID    : 1910158
I/O    : uncollated
Case   : /pfs/data5/home/kit/scc/nq7776/code/OBR/lidDrivenCavity3D/Variation_mesh/15/Variation_matrix_solver/BiCGStab_BJ_OMP/base
nProcs : 1
sigFpe : Enabling floating point exception trapping (FOAM_SIGFPE).
fileModificationChecking : Monitoring run-time modified files using timeStampMaster (fileModificationSkew 10)
allowSystemOperations : Allowing user-supplied system call operations

// * * * * * * * * * * * * * * * * * * * * * * * * * * * * * * * * * * * * * //
Create time

Create mesh for time = 0

Reading transportProperties

Reading field p

Reading field U

Reading/calculating face flux field phi


Starting time loop

Time = 0.001

Courant Number mean: 0 max: 0
DILUPBiCGStab:  Solving for Ux, Initial residual = 1, Final residual = 1.1028e-13, No Iterations 5
DILUPBiCGStab:  Solving for Uy:  solution singularity
DILUPBiCGStab:  Solving for Uz:  solution singularity
linear solve U 1196
[OGL LOG] init_host_sparsity_pattern : 0 ms
[OGL LOG] matrix not stored update host matrix
[OGL LOG] update_host_mtx : 0 ms
[OGL LOG] matrix is not yet sorted, compute sorting idxs
[OGL LOG] compute_sort : 20 ms
[OGL LOG] matrix is not yet sorted, sorting host matrix
[OGL LOG] sort_host_mtx_sparsity_pattern : 0 ms
[OGL LOG] sort_host_mtx : 0 ms
[OGL LOG] init_preconditioner : 0 ms
[OGL LOG] solve : 15 ms
BJompGKOBiCGStab:  Solving for p, Initial residual = 1, Final residual = 8.76396e-05, No Iterations 69
linear solve p 40868
time step continuity errors : sum local = 5.57236e-07, global = -1.16269e-20, cumulative = -1.16269e-20
[OGL LOG] init_host_sparsity_pattern : 0 ms
[OGL LOG] matrix not stored update host matrix
[OGL LOG] update_host_mtx : 0 ms
[OGL LOG] matrix is not yet sorted, sorting host matrix
[OGL LOG] sort_host_mtx_sparsity_pattern : 0 ms
[OGL LOG] sort_host_mtx : 0 ms
[OGL LOG] init_preconditioner : 0 ms
[OGL LOG] solve : 14 ms
BJompGKOBiCGStab:  Solving for p, Initial residual = 0.317331, Final residual = 7.85627e-05, No Iterations 64
linear solve p 17381
time step continuity errors : sum local = 1.15815e-06, global = 4.07733e-21, cumulative = -7.54952e-21
ExecutionTime = 0.25 s  ClockTime = 0 s

Time = 0.002

Courant Number mean: 0.00559529 max: 0.0357001
DILUPBiCGStab:  Solving for Ux, Initial residual = 0.2425, Final residual = 1.14001e-14, No Iterations 5
DILUPBiCGStab:  Solving for Uy, Initial residual = 0.296107, Final residual = 1.12424e-14, No Iterations 5
DILUPBiCGStab:  Solving for Uz, Initial residual = 0.663021, Final residual = 3.00324e-14, No Iterations 5
linear solve U 1963
[OGL LOG] init_host_sparsity_pattern : 0 ms
[OGL LOG] matrix not stored update host matrix
[OGL LOG] update_host_mtx : 0 ms
[OGL LOG] matrix is not yet sorted, sorting host matrix
[OGL LOG] sort_host_mtx_sparsity_pattern : 0 ms
[OGL LOG] sort_host_mtx : 0 ms
[OGL LOG] init_preconditioner : 0 ms
[OGL LOG] solve : 13 ms
BJompGKOBiCGStab:  Solving for p, Initial residual = 0.158199, Final residual = 5.58317e-05, No Iterations 61
linear solve p 16330
time step continuity errors : sum local = 1.86226e-06, global = 1.74204e-20, cumulative = 9.8709e-21
[OGL LOG] init_host_sparsity_pattern : 0 ms
[OGL LOG] matrix not stored update host matrix
[OGL LOG] update_host_mtx : 0 ms
[OGL LOG] matrix is not yet sorted, sorting host matrix
[OGL LOG] sort_host_mtx_sparsity_pattern : 0 ms
[OGL LOG] sort_host_mtx : 0 ms
[OGL LOG] init_preconditioner : 0 ms
[OGL LOG] solve : 12 ms
BJompGKOBiCGStab:  Solving for p, Initial residual = 0.062621, Final residual = 9.7155e-05, No Iterations 55
linear solve p 14998
time step continuity errors : sum local = 3.20959e-07, global = 6.84905e-21, cumulative = 1.672e-20
ExecutionTime = 0.41 s  ClockTime = 1 s

Time = 0.003

Courant Number mean: 0.00940323 max: 0.0587301
DILUPBiCGStab:  Solving for Ux, Initial residual = 0.117876, Final residual = 5.34269e-15, No Iterations 5
DILUPBiCGStab:  Solving for Uy, Initial residual = 0.148908, Final residual = 5.35177e-15, No Iterations 5
DILUPBiCGStab:  Solving for Uz, Initial residual = 0.336423, Final residual = 2.11935e-14, No Iterations 5
linear solve U 1965
[OGL LOG] init_host_sparsity_pattern : 0 ms
[OGL LOG] matrix not stored update host matrix
[OGL LOG] update_host_mtx : 0 ms
[OGL LOG] matrix is not yet sorted, sorting host matrix
[OGL LOG] sort_host_mtx_sparsity_pattern : 0 ms
[OGL LOG] sort_host_mtx : 0 ms
[OGL LOG] init_preconditioner : 0 ms
[OGL LOG] solve : 7 ms
BJompGKOBiCGStab:  Solving for p, Initial residual = 0.076616, Final residual = 9.73727e-05, No Iterations 32
linear solve p 10077
time step continuity errors : sum local = 9.33985e-08, global = -9.47287e-21, cumulative = 7.24708e-21
[OGL LOG] init_host_sparsity_pattern : 0 ms
[OGL LOG] matrix not stored update host matrix
[OGL LOG] update_host_mtx : 0 ms
[OGL LOG] matrix is not yet sorted, sorting host matrix
[OGL LOG] sort_host_mtx_sparsity_pattern : 0 ms
[OGL LOG] sort_host_mtx : 0 ms
[OGL LOG] init_preconditioner : 0 ms
[OGL LOG] solve : 4 ms
BJompGKOBiCGStab:  Solving for p, Initial residual = 0.0342919, Final residual = 8.05077e-05, No Iterations 21
linear solve p 7676
time step continuity errors : sum local = 1.51228e-07, global = -1.84318e-20, cumulative = -1.11847e-20
ExecutionTime = 0.51 s  ClockTime = 1 s

Time = 0.004

Courant Number mean: 0.0121903 max: 0.0737273
DILUPBiCGStab:  Solving for Ux, Initial residual = 0.0723124, Final residual = 2.99045e-15, No Iterations 5
DILUPBiCGStab:  Solving for Uy, Initial residual = 0.0916685, Final residual = 3.02131e-15, No Iterations 5
DILUPBiCGStab:  Solving for Uz, Initial residual = 0.183217, Final residual = 7.14148e-15, No Iterations 5
linear solve U 1970
[OGL LOG] init_host_sparsity_pattern : 0 ms
[OGL LOG] matrix not stored update host matrix
[OGL LOG] update_host_mtx : 0 ms
[OGL LOG] matrix is not yet sorted, sorting host matrix
[OGL LOG] sort_host_mtx_sparsity_pattern : 0 ms
[OGL LOG] sort_host_mtx : 0 ms
[OGL LOG] init_preconditioner : 0 ms
[OGL LOG] solve : 5 ms
BJompGKOBiCGStab:  Solving for p, Initial residual = 0.0492697, Final residual = 9.87022e-05, No Iterations 26
linear solve p 8708
time step continuity errors : sum local = 1.5762e-07, global = 1.84211e-20, cumulative = 7.23643e-21
[OGL LOG] init_host_sparsity_pattern : 0 ms
[OGL LOG] matrix not stored update host matrix
[OGL LOG] update_host_mtx : 0 ms
[OGL LOG] matrix is not yet sorted, sorting host matrix
[OGL LOG] sort_host_mtx_sparsity_pattern : 0 ms
[OGL LOG] sort_host_mtx : 0 ms
[OGL LOG] init_preconditioner : 0 ms
[OGL LOG] solve : 4 ms
BJompGKOBiCGStab:  Solving for p, Initial residual = 0.0221712, Final residual = 8.01441e-05, No Iterations 21
linear solve p 7616
time step continuity errors : sum local = 1.28807e-07, global = 1.90471e-20, cumulative = 2.62835e-20
ExecutionTime = 0.6 s  ClockTime = 1 s

Time = 0.005

Courant Number mean: 0.0143059 max: 0.0838052
DILUPBiCGStab:  Solving for Ux, Initial residual = 0.0485578, Final residual = 1.79915e-15, No Iterations 5
DILUPBiCGStab:  Solving for Uy, Initial residual = 0.0627393, Final residual = 1.74795e-15, No Iterations 5
DILUPBiCGStab:  Solving for Uz, Initial residual = 0.130187, Final residual = 5.16296e-15, No Iterations 5
linear solve U 1978
[OGL LOG] init_host_sparsity_pattern : 0 ms
[OGL LOG] matrix not stored update host matrix
[OGL LOG] update_host_mtx : 0 ms
[OGL LOG] matrix is not yet sorted, sorting host matrix
[OGL LOG] sort_host_mtx_sparsity_pattern : 0 ms
[OGL LOG] sort_host_mtx : 0 ms
[OGL LOG] init_preconditioner : 0 ms
[OGL LOG] solve : 10 ms
BJompGKOBiCGStab:  Solving for p, Initial residual = 0.0358919, Final residual = 9.96617e-05, No Iterations 47
linear solve p 13258
time step continuity errors : sum local = 3.27363e-07, global = -1.0042e-21, cumulative = 2.52793e-20
[OGL LOG] init_host_sparsity_pattern : 0 ms
[OGL LOG] matrix not stored update host matrix
[OGL LOG] update_host_mtx : 0 ms
[OGL LOG] matrix is not yet sorted, sorting host matrix
[OGL LOG] sort_host_mtx_sparsity_pattern : 0 ms
[OGL LOG] sort_host_mtx : 0 ms
[OGL LOG] init_preconditioner : 0 ms
[OGL LOG] solve : 4 ms
BJompGKOBiCGStab:  Solving for p, Initial residual = 0.0153687, Final residual = 9.50232e-05, No Iterations 21
linear solve p 7610
time step continuity errors : sum local = 1.92838e-07, global = -7.92191e-21, cumulative = 1.73574e-20
ExecutionTime = 0.71 s  ClockTime = 1 s

Time = 0.006

Courant Number mean: 0.0159485 max: 0.0908034
DILUPBiCGStab:  Solving for Ux, Initial residual = 0.0353354, Final residual = 1.17496e-15, No Iterations 5
DILUPBiCGStab:  Solving for Uy, Initial residual = 0.0461229, Final residual = 1.06288e-15, No Iterations 5
DILUPBiCGStab:  Solving for Uz, Initial residual = 0.0994872, Final residual = 3.97854e-15, No Iterations 5
linear solve U 1978
[OGL LOG] init_host_sparsity_pattern : 0 ms
[OGL LOG] matrix not stored update host matrix
[OGL LOG] update_host_mtx : 0 ms
[OGL LOG] matrix is not yet sorted, sorting host matrix
[OGL LOG] sort_host_mtx_sparsity_pattern : 0 ms
[OGL LOG] sort_host_mtx : 0 ms
[OGL LOG] init_preconditioner : 0 ms
[OGL LOG] solve : 12 ms
BJompGKOBiCGStab:  Solving for p, Initial residual = 0.0289306, Final residual = 9.43906e-05, No Iterations 58
linear solve p 15630
time step continuity errors : sum local = 1.5772e-07, global = 1.72517e-20, cumulative = 3.46091e-20
[OGL LOG] init_host_sparsity_pattern : 0 ms
[OGL LOG] matrix not stored update host matrix
[OGL LOG] update_host_mtx : 0 ms
[OGL LOG] matrix is not yet sorted, sorting host matrix
[OGL LOG] sort_host_mtx_sparsity_pattern : 0 ms
[OGL LOG] sort_host_mtx : 0 ms
[OGL LOG] init_preconditioner : 0 ms
[OGL LOG] solve : 4 ms
BJompGKOBiCGStab:  Solving for p, Initial residual = 0.0110731, Final residual = 8.3839e-05, No Iterations 22
linear solve p 7798
time step continuity errors : sum local = 1.31599e-07, global = -2.08026e-20, cumulative = 1.38065e-20
ExecutionTime = 0.84 s  ClockTime = 1 s

Time = 0.007

Courant Number mean: 0.0172718 max: 0.0958253
DILUPBiCGStab:  Solving for Ux, Initial residual = 0.0271534, Final residual = 8.7127e-16, No Iterations 5
DILUPBiCGStab:  Solving for Uy, Initial residual = 0.0356557, Final residual = 7.40136e-16, No Iterations 5
DILUPBiCGStab:  Solving for Uz, Initial residual = 0.0803052, Final residual = 3.5719e-15, No Iterations 5
linear solve U 2044
[OGL LOG] init_host_sparsity_pattern : 0 ms
[OGL LOG] matrix not stored update host matrix
[OGL LOG] update_host_mtx : 0 ms
[OGL LOG] matrix is not yet sorted, sorting host matrix
[OGL LOG] sort_host_mtx_sparsity_pattern : 0 ms
[OGL LOG] sort_host_mtx : 0 ms
[OGL LOG] init_preconditioner : 0 ms
[OGL LOG] solve : 5 ms
BJompGKOBiCGStab:  Solving for p, Initial residual = 0.0219064, Final residual = 8.81026e-05, No Iterations 22
linear solve p 8054
time step continuity errors : sum local = 1.52512e-07, global = 2.35796e-20, cumulative = 3.73861e-20
[OGL LOG] init_host_sparsity_pattern : 0 ms
[OGL LOG] matrix not stored update host matrix
[OGL LOG] update_host_mtx : 0 ms
[OGL LOG] matrix is not yet sorted, sorting host matrix
[OGL LOG] sort_host_mtx_sparsity_pattern : 0 ms
[OGL LOG] sort_host_mtx : 0 ms
[OGL LOG] init_preconditioner : 0 ms
[OGL LOG] solve : 5 ms
BJompGKOBiCGStab:  Solving for p, Initial residual = 0.00870058, Final residual = 7.24391e-05, No Iterations 22
linear solve p 7885
time step continuity errors : sum local = 3.72745e-07, global = 1.84713e-20, cumulative = 5.58574e-20
ExecutionTime = 0.93 s  ClockTime = 1 s

Time = 0.008

Courant Number mean: 0.0183554 max: 0.0995501
DILUPBiCGStab:  Solving for Ux, Initial residual = 0.0216825, Final residual = 6.37981e-16, No Iterations 5
DILUPBiCGStab:  Solving for Uy, Initial residual = 0.0285695, Final residual = 5.79622e-16, No Iterations 5
DILUPBiCGStab:  Solving for Uz, Initial residual = 0.0645323, Final residual = 2.42514e-15, No Iterations 5
linear solve U 2085
[OGL LOG] init_host_sparsity_pattern : 0 ms
[OGL LOG] matrix not stored update host matrix
[OGL LOG] update_host_mtx : 0 ms
[OGL LOG] matrix is not yet sorted, sorting host matrix
[OGL LOG] sort_host_mtx_sparsity_pattern : 0 ms
[OGL LOG] sort_host_mtx : 0 ms
[OGL LOG] init_preconditioner : 0 ms
[OGL LOG] solve : 5 ms
BJompGKOBiCGStab:  Solving for p, Initial residual = 0.0166049, Final residual = 8.04034e-05, No Iterations 23
linear solve p 8156
time step continuity errors : sum local = 1.09855e-07, global = 1.24396e-20, cumulative = 6.82969e-20
[OGL LOG] init_host_sparsity_pattern : 0 ms
[OGL LOG] matrix not stored update host matrix
[OGL LOG] update_host_mtx : 0 ms
[OGL LOG] matrix is not yet sorted, sorting host matrix
[OGL LOG] sort_host_mtx_sparsity_pattern : 0 ms
[OGL LOG] sort_host_mtx : 0 ms
[OGL LOG] init_preconditioner : 0 ms
[OGL LOG] solve : 4 ms
BJompGKOBiCGStab:  Solving for p, Initial residual = 0.00668445, Final residual = 7.58262e-05, No Iterations 20
linear solve p 7342
time step continuity errors : sum local = 8.41854e-08, global = -2.40748e-20, cumulative = 4.42222e-20
ExecutionTime = 1.02 s  ClockTime = 1 s

Time = 0.009

Courant Number mean: 0.0192551 max: 0.102395
DILUPBiCGStab:  Solving for Ux, Initial residual = 0.0176514, Final residual = 4.37657e-16, No Iterations 5
DILUPBiCGStab:  Solving for Uy, Initial residual = 0.0236655, Final residual = 4.82237e-16, No Iterations 5
DILUPBiCGStab:  Solving for Uz, Initial residual = 0.0547795, Final residual = 1.87044e-15, No Iterations 5
linear solve U 1966
[OGL LOG] init_host_sparsity_pattern : 0 ms
[OGL LOG] matrix not stored update host matrix
[OGL LOG] update_host_mtx : 0 ms
[OGL LOG] matrix is not yet sorted, sorting host matrix
[OGL LOG] sort_host_mtx_sparsity_pattern : 0 ms
[OGL LOG] sort_host_mtx : 0 ms
[OGL LOG] init_preconditioner : 0 ms
[OGL LOG] solve : 4 ms
BJompGKOBiCGStab:  Solving for p, Initial residual = 0.013387, Final residual = 7.49492e-05, No Iterations 22
linear solve p 7929
time step continuity errors : sum local = 1.30317e-07, global = -3.90867e-20, cumulative = 5.1355e-21
[OGL LOG] init_host_sparsity_pattern : 0 ms
[OGL LOG] matrix not stored update host matrix
[OGL LOG] update_host_mtx : 0 ms
[OGL LOG] matrix is not yet sorted, sorting host matrix
[OGL LOG] sort_host_mtx_sparsity_pattern : 0 ms
[OGL LOG] sort_host_mtx : 0 ms
[OGL LOG] init_preconditioner : 0 ms
[OGL LOG] solve : 4 ms
BJompGKOBiCGStab:  Solving for p, Initial residual = 0.00546839, Final residual = 8.07557e-05, No Iterations 20
linear solve p 7446
time step continuity errors : sum local = 1.41681e-07, global = -2.29419e-20, cumulative = -1.78064e-20
ExecutionTime = 1.11 s  ClockTime = 1 s

Time = 0.01

Courant Number mean: 0.0200143 max: 0.104627
DILUPBiCGStab:  Solving for Ux, Initial residual = 0.0147172, Final residual = 2.8446e-16, No Iterations 5
DILUPBiCGStab:  Solving for Uy, Initial residual = 0.0199499, Final residual = 4.01353e-16, No Iterations 5
DILUPBiCGStab:  Solving for Uz, Initial residual = 0.0465782, Final residual = 1.53471e-15, No Iterations 5
linear solve U 1954
[OGL LOG] init_host_sparsity_pattern : 0 ms
[OGL LOG] matrix not stored update host matrix
[OGL LOG] update_host_mtx : 0 ms
[OGL LOG] matrix is not yet sorted, sorting host matrix
[OGL LOG] sort_host_mtx_sparsity_pattern : 0 ms
[OGL LOG] sort_host_mtx : 0 ms
[OGL LOG] init_preconditioner : 0 ms
[OGL LOG] solve : 4 ms
BJompGKOBiCGStab:  Solving for p, Initial residual = 0.0112518, Final residual = 9.97086e-05, No Iterations 22
linear solve p 7845
time step continuity errors : sum local = 1.31867e-07, global = 2.76861e-20, cumulative = 9.8798e-21
[OGL LOG] init_host_sparsity_pattern : 0 ms
[OGL LOG] matrix not stored update host matrix
[OGL LOG] update_host_mtx : 0 ms
[OGL LOG] matrix is not yet sorted, sorting host matrix
[OGL LOG] sort_host_mtx_sparsity_pattern : 0 ms
[OGL LOG] sort_host_mtx : 0 ms
[OGL LOG] init_preconditioner : 0 ms
[OGL LOG] solve : 4 ms
BJompGKOBiCGStab:  Solving for p, Initial residual = 0.00455397, Final residual = 9.98432e-05, No Iterations 20
linear solve p 7316
time step continuity errors : sum local = 1.24317e-07, global = -2.35933e-20, cumulative = -1.37135e-20
ExecutionTime = 1.2 s  ClockTime = 1 s

End

