/*---------------------------------------------------------------------------*\
  =========                 |
  \\      /  F ield         | OpenFOAM: The Open Source CFD Toolbox
   \\    /   O peration     | Website:  https://openfoam.org
    \\  /    A nd           | Version:  8
     \\/     M anipulation  |
\*---------------------------------------------------------------------------*/
Build  : 8-40a5a48f630f
Exec   : icoFoam
Date   : Jul 28 2021
Time   : 12:34:21
Host   : "uc2n463.localdomain"
PID    : 1726062
I/O    : uncollated
Case   : /pfs/data5/home/kit/scc/nq7776/code/OBR/lidDrivenCavity3D/Variation_mesh/65/Variation_matrix_solver/BiCGStab_NoPrecond_OMP/base
nProcs : 1
sigFpe : Enabling floating point exception trapping (FOAM_SIGFPE).
fileModificationChecking : Monitoring run-time modified files using timeStampMaster (fileModificationSkew 10)
allowSystemOperations : Allowing user-supplied system call operations

// * * * * * * * * * * * * * * * * * * * * * * * * * * * * * * * * * * * * * //
Create time

Create mesh for time = 0

Reading transportProperties

Reading field p

Reading field U

Reading/calculating face flux field phi


Starting time loop

Time = 0.001

Courant Number mean: 0 max: 0
nonePBiCGStab:  Solving for Ux, Initial residual = 1, Final residual = 0.053017, No Iterations 5
nonePBiCGStab:  Solving for Uy, Initial residual = 0, Final residual = 0, No Iterations 0
nonePBiCGStab:  Solving for Uz, Initial residual = 0, Final residual = 0, No Iterations 0
linear solve U 68
[OGL LOG] init_host_sparsity_pattern : 77 ms
[OGL LOG] matrix not stored update host matrix
[OGL LOG] update_host_mtx : 40 ms
[OGL LOG] matrix is not yet sorted, compute sorting idxs
[OGL LOG] compute_sort : 2389 ms
[OGL LOG] matrix is not yet sorted, sorting host matrix
[OGL LOG] sort_host_mtx_sparsity_pattern : 56 ms
[OGL LOG] sort_host_mtx : 33 ms
[OGL LOG] init_preconditioner : 0 ms
[OGL LOG] solve : 6403 ms
noneompGKOBiCGStab:  Solving for p, Initial residual = 1, Final residual = 9.23015e-05, No Iterations 415
linear solve p 9059
time step continuity errors : sum local = 1.54945e-07, global = -1.26331e-21, cumulative = -1.26331e-21
[OGL LOG] init_host_sparsity_pattern : 75 ms
[OGL LOG] matrix not stored update host matrix
[OGL LOG] update_host_mtx : 40 ms
[OGL LOG] matrix is not yet sorted, sorting host matrix
[OGL LOG] sort_host_mtx_sparsity_pattern : 55 ms
[OGL LOG] sort_host_mtx : 27 ms
[OGL LOG] init_preconditioner : 0 ms
[OGL LOG] solve : 6241 ms
noneompGKOBiCGStab:  Solving for p, Initial residual = 0.674596, Final residual = 9.84261e-05, No Iterations 404
linear solve p 6473
time step continuity errors : sum local = 6.36861e-07, global = -5.82292e-21, cumulative = -7.08624e-21
ExecutionTime = 16.72 s  ClockTime = 16 s

Time = 0.002

Courant Number mean: 0.0326867 max: 0.468251
nonePBiCGStab:  Solving for Ux, Initial residual = 0.152168, Final residual = 0.0211963, No Iterations 5
nonePBiCGStab:  Solving for Uy, Initial residual = 0.364749, Final residual = 0.0459879, No Iterations 5
nonePBiCGStab:  Solving for Uz, Initial residual = 0.964689, Final residual = 0.160303, No Iterations 5
linear solve U 136
[OGL LOG] init_host_sparsity_pattern : 72 ms
[OGL LOG] matrix not stored update host matrix
[OGL LOG] update_host_mtx : 37 ms
[OGL LOG] matrix is not yet sorted, sorting host matrix
[OGL LOG] sort_host_mtx_sparsity_pattern : 55 ms
[OGL LOG] sort_host_mtx : 27 ms
[OGL LOG] init_preconditioner : 0 ms
[OGL LOG] solve : 5744 ms
noneompGKOBiCGStab:  Solving for p, Initial residual = 0.655798, Final residual = 4.99053e-05, No Iterations 372
linear solve p 5972
time step continuity errors : sum local = 8.36763e-07, global = -6.03733e-21, cumulative = -1.31236e-20
[OGL LOG] init_host_sparsity_pattern : 78 ms
[OGL LOG] matrix not stored update host matrix
[OGL LOG] update_host_mtx : 40 ms
[OGL LOG] matrix is not yet sorted, sorting host matrix
[OGL LOG] sort_host_mtx_sparsity_pattern : 55 ms
[OGL LOG] sort_host_mtx : 28 ms
[OGL LOG] init_preconditioner : 0 ms
[OGL LOG] solve : 5591 ms
noneompGKOBiCGStab:  Solving for p, Initial residual = 0.574444, Final residual = 9.97611e-05, No Iterations 362
linear solve p 5828
time step continuity errors : sum local = 1.75256e-07, global = -1.95334e-21, cumulative = -1.50769e-20
ExecutionTime = 28.79 s  ClockTime = 28 s

Time = 0.003

Courant Number mean: 0.0502312 max: 0.556592
nonePBiCGStab:  Solving for Ux, Initial residual = 0.0549387, Final residual = 0.00592764, No Iterations 5
nonePBiCGStab:  Solving for Uy, Initial residual = 0.12787, Final residual = 0.0169098, No Iterations 5
nonePBiCGStab:  Solving for Uz, Initial residual = 0.462463, Final residual = 0.092676, No Iterations 5
linear solve U 136
[OGL LOG] init_host_sparsity_pattern : 74 ms
[OGL LOG] matrix not stored update host matrix
[OGL LOG] update_host_mtx : 40 ms
[OGL LOG] matrix is not yet sorted, sorting host matrix
[OGL LOG] sort_host_mtx_sparsity_pattern : 56 ms
[OGL LOG] sort_host_mtx : 27 ms
[OGL LOG] init_preconditioner : 0 ms
[OGL LOG] solve : 5696 ms
noneompGKOBiCGStab:  Solving for p, Initial residual = 0.561343, Final residual = 9.2836e-05, No Iterations 366
linear solve p 5927
time step continuity errors : sum local = 5.89217e-08, global = 4.48942e-21, cumulative = -1.05875e-20
[OGL LOG] init_host_sparsity_pattern : 74 ms
[OGL LOG] matrix not stored update host matrix
[OGL LOG] update_host_mtx : 35 ms
[OGL LOG] matrix is not yet sorted, sorting host matrix
[OGL LOG] sort_host_mtx_sparsity_pattern : 55 ms
[OGL LOG] sort_host_mtx : 27 ms
[OGL LOG] init_preconditioner : 0 ms
[OGL LOG] solve : 5022 ms
noneompGKOBiCGStab:  Solving for p, Initial residual = 0.494231, Final residual = 9.53987e-05, No Iterations 325
linear solve p 5248
time step continuity errors : sum local = 1.17824e-07, global = -9.68996e-21, cumulative = -2.02775e-20
ExecutionTime = 40.21 s  ClockTime = 40 s

Time = 0.004

Courant Number mean: 0.0602715 max: 0.574993
nonePBiCGStab:  Solving for Ux, Initial residual = 0.0336897, Final residual = 0.00311493, No Iterations 5
nonePBiCGStab:  Solving for Uy, Initial residual = 0.0812199, Final residual = 0.00708252, No Iterations 5
nonePBiCGStab:  Solving for Uz, Initial residual = 0.272809, Final residual = 0.0354249, No Iterations 5
linear solve U 138
[OGL LOG] init_host_sparsity_pattern : 75 ms
[OGL LOG] matrix not stored update host matrix
[OGL LOG] update_host_mtx : 40 ms
[OGL LOG] matrix is not yet sorted, sorting host matrix
[OGL LOG] sort_host_mtx_sparsity_pattern : 56 ms
[OGL LOG] sort_host_mtx : 27 ms
[OGL LOG] init_preconditioner : 0 ms
[OGL LOG] solve : 5430 ms
noneompGKOBiCGStab:  Solving for p, Initial residual = 0.357805, Final residual = 9.20811e-05, No Iterations 352
linear solve p 5662
time step continuity errors : sum local = 1.14545e-07, global = 1.43854e-20, cumulative = -5.89205e-21
[OGL LOG] init_host_sparsity_pattern : 72 ms
[OGL LOG] matrix not stored update host matrix
[OGL LOG] update_host_mtx : 35 ms
[OGL LOG] matrix is not yet sorted, sorting host matrix
[OGL LOG] sort_host_mtx_sparsity_pattern : 55 ms
[OGL LOG] sort_host_mtx : 27 ms
[OGL LOG] init_preconditioner : 0 ms
[OGL LOG] solve : 5843 ms
noneompGKOBiCGStab:  Solving for p, Initial residual = 0.2962, Final residual = 9.64284e-05, No Iterations 378
linear solve p 6066
time step continuity errors : sum local = 9.7768e-08, global = 2.02552e-20, cumulative = 1.43632e-20
ExecutionTime = 52.2 s  ClockTime = 52 s

Time = 0.005

Courant Number mean: 0.0682475 max: 0.585636
nonePBiCGStab:  Solving for Ux, Initial residual = 0.0236105, Final residual = 0.00198075, No Iterations 5
nonePBiCGStab:  Solving for Uy, Initial residual = 0.0541179, Final residual = 0.00401495, No Iterations 5
nonePBiCGStab:  Solving for Uz, Initial residual = 0.157727, Final residual = 0.0277537, No Iterations 5
linear solve U 135
[OGL LOG] init_host_sparsity_pattern : 74 ms
[OGL LOG] matrix not stored update host matrix
[OGL LOG] update_host_mtx : 40 ms
[OGL LOG] matrix is not yet sorted, sorting host matrix
[OGL LOG] sort_host_mtx_sparsity_pattern : 56 ms
[OGL LOG] sort_host_mtx : 27 ms
[OGL LOG] init_preconditioner : 0 ms
[OGL LOG] solve : 4817 ms
noneompGKOBiCGStab:  Solving for p, Initial residual = 0.280308, Final residual = 8.96689e-05, No Iterations 312
linear solve p 5048
time step continuity errors : sum local = 1.12197e-07, global = 4.22821e-21, cumulative = 1.85914e-20
[OGL LOG] init_host_sparsity_pattern : 72 ms
[OGL LOG] matrix not stored update host matrix
[OGL LOG] update_host_mtx : 35 ms
[OGL LOG] matrix is not yet sorted, sorting host matrix
[OGL LOG] sort_host_mtx_sparsity_pattern : 55 ms
[OGL LOG] sort_host_mtx : 27 ms
[OGL LOG] init_preconditioner : 0 ms
[OGL LOG] solve : 4893 ms
noneompGKOBiCGStab:  Solving for p, Initial residual = 0.238045, Final residual = 7.90979e-05, No Iterations 316
linear solve p 5117
time step continuity errors : sum local = 1.21721e-07, global = 7.96937e-21, cumulative = 2.65608e-20
ExecutionTime = 62.62 s  ClockTime = 62 s

Time = 0.006

Courant Number mean: 0.0745201 max: 0.592193
nonePBiCGStab:  Solving for Ux, Initial residual = 0.0180599, Final residual = 0.00133552, No Iterations 5
nonePBiCGStab:  Solving for Uy, Initial residual = 0.0399419, Final residual = 0.00213799, No Iterations 5
nonePBiCGStab:  Solving for Uz, Initial residual = 0.128332, Final residual = 0.0217487, No Iterations 5
linear solve U 137
[OGL LOG] init_host_sparsity_pattern : 77 ms
[OGL LOG] matrix not stored update host matrix
[OGL LOG] update_host_mtx : 40 ms
[OGL LOG] matrix is not yet sorted, sorting host matrix
[OGL LOG] sort_host_mtx_sparsity_pattern : 55 ms
[OGL LOG] sort_host_mtx : 29 ms
[OGL LOG] init_preconditioner : 0 ms
[OGL LOG] solve : 5958 ms
noneompGKOBiCGStab:  Solving for p, Initial residual = 0.19076, Final residual = 8.86782e-05, No Iterations 386
linear solve p 6196
time step continuity errors : sum local = 1.46534e-07, global = -3.44237e-20, cumulative = -7.86294e-21
[OGL LOG] init_host_sparsity_pattern : 74 ms
[OGL LOG] matrix not stored update host matrix
[OGL LOG] update_host_mtx : 37 ms
[OGL LOG] matrix is not yet sorted, sorting host matrix
[OGL LOG] sort_host_mtx_sparsity_pattern : 55 ms
[OGL LOG] sort_host_mtx : 27 ms
[OGL LOG] init_preconditioner : 0 ms
[OGL LOG] solve : 5678 ms
noneompGKOBiCGStab:  Solving for p, Initial residual = 0.158898, Final residual = 8.75648e-05, No Iterations 367
linear solve p 5908
time step continuity errors : sum local = 7.0348e-08, global = 6.4429e-21, cumulative = -1.42004e-21
ExecutionTime = 74.99 s  ClockTime = 75 s

Time = 0.007

Courant Number mean: 0.0797236 max: 0.596685
nonePBiCGStab:  Solving for Ux, Initial residual = 0.0141317, Final residual = 0.000865667, No Iterations 5
nonePBiCGStab:  Solving for Uy, Initial residual = 0.0320109, Final residual = 0.00152392, No Iterations 5
nonePBiCGStab:  Solving for Uz, Initial residual = 0.101917, Final residual = 0.0127116, No Iterations 5
linear solve U 134
[OGL LOG] init_host_sparsity_pattern : 75 ms
[OGL LOG] matrix not stored update host matrix
[OGL LOG] update_host_mtx : 40 ms
[OGL LOG] matrix is not yet sorted, sorting host matrix
[OGL LOG] sort_host_mtx_sparsity_pattern : 56 ms
[OGL LOG] sort_host_mtx : 27 ms
[OGL LOG] init_preconditioner : 0 ms
[OGL LOG] solve : 4600 ms
noneompGKOBiCGStab:  Solving for p, Initial residual = 0.141463, Final residual = 9.93058e-05, No Iterations 297
linear solve p 4832
time step continuity errors : sum local = 9.82823e-08, global = -4.28953e-21, cumulative = -5.70958e-21
[OGL LOG] init_host_sparsity_pattern : 72 ms
[OGL LOG] matrix not stored update host matrix
[OGL LOG] update_host_mtx : 37 ms
[OGL LOG] matrix is not yet sorted, sorting host matrix
[OGL LOG] sort_host_mtx_sparsity_pattern : 55 ms
[OGL LOG] sort_host_mtx : 27 ms
[OGL LOG] init_preconditioner : 0 ms
[OGL LOG] solve : 4646 ms
noneompGKOBiCGStab:  Solving for p, Initial residual = 0.118642, Final residual = 9.71894e-05, No Iterations 300
linear solve p 4875
time step continuity errors : sum local = 1.04144e-07, global = 8.03009e-21, cumulative = 2.32051e-21
ExecutionTime = 84.94 s  ClockTime = 85 s

Time = 0.008

Courant Number mean: 0.0840916 max: 0.600112
nonePBiCGStab:  Solving for Ux, Initial residual = 0.0117087, Final residual = 0.000759132, No Iterations 5
nonePBiCGStab:  Solving for Uy, Initial residual = 0.0255013, Final residual = 0.00127707, No Iterations 5
nonePBiCGStab:  Solving for Uz, Initial residual = 0.0857069, Final residual = 0.0150559, No Iterations 5
linear solve U 135
[OGL LOG] init_host_sparsity_pattern : 72 ms
[OGL LOG] matrix not stored update host matrix
[OGL LOG] update_host_mtx : 38 ms
[OGL LOG] matrix is not yet sorted, sorting host matrix
[OGL LOG] sort_host_mtx_sparsity_pattern : 57 ms
[OGL LOG] sort_host_mtx : 27 ms
[OGL LOG] init_preconditioner : 0 ms
[OGL LOG] solve : 5094 ms
noneompGKOBiCGStab:  Solving for p, Initial residual = 0.106713, Final residual = 9.18465e-05, No Iterations 330
linear solve p 5323
time step continuity errors : sum local = 4.96465e-08, global = 1.08516e-20, cumulative = 1.31721e-20
[OGL LOG] init_host_sparsity_pattern : 75 ms
[OGL LOG] matrix not stored update host matrix
[OGL LOG] update_host_mtx : 40 ms
[OGL LOG] matrix is not yet sorted, sorting host matrix
[OGL LOG] sort_host_mtx_sparsity_pattern : 55 ms
[OGL LOG] sort_host_mtx : 27 ms
[OGL LOG] init_preconditioner : 0 ms
[OGL LOG] solve : 5822 ms
noneompGKOBiCGStab:  Solving for p, Initial residual = 0.0897745, Final residual = 6.47606e-05, No Iterations 376
linear solve p 6057
time step continuity errors : sum local = 6.77213e-08, global = -5.02876e-21, cumulative = 8.14338e-21
ExecutionTime = 96.56 s  ClockTime = 96 s

Time = 0.009

Courant Number mean: 0.0878368 max: 0.602655
nonePBiCGStab:  Solving for Ux, Initial residual = 0.00967667, Final residual = 0.000475765, No Iterations 5
nonePBiCGStab:  Solving for Uy, Initial residual = 0.0219036, Final residual = 0.000854295, No Iterations 5
nonePBiCGStab:  Solving for Uz, Initial residual = 0.0688663, Final residual = 0.00821852, No Iterations 5
linear solve U 134
[OGL LOG] init_host_sparsity_pattern : 75 ms
[OGL LOG] matrix not stored update host matrix
[OGL LOG] update_host_mtx : 40 ms
[OGL LOG] matrix is not yet sorted, sorting host matrix
[OGL LOG] sort_host_mtx_sparsity_pattern : 55 ms
[OGL LOG] sort_host_mtx : 27 ms
[OGL LOG] init_preconditioner : 0 ms
[OGL LOG] solve : 4522 ms
noneompGKOBiCGStab:  Solving for p, Initial residual = 0.0820588, Final residual = 9.14268e-05, No Iterations 292
linear solve p 4754
time step continuity errors : sum local = 1.10997e-07, global = -1.32805e-20, cumulative = -5.13707e-21
[OGL LOG] init_host_sparsity_pattern : 72 ms
[OGL LOG] matrix not stored update host matrix
[OGL LOG] update_host_mtx : 37 ms
[OGL LOG] matrix is not yet sorted, sorting host matrix
[OGL LOG] sort_host_mtx_sparsity_pattern : 56 ms
[OGL LOG] sort_host_mtx : 27 ms
[OGL LOG] init_preconditioner : 0 ms
[OGL LOG] solve : 2302 ms
noneompGKOBiCGStab:  Solving for p, Initial residual = 0.0689558, Final residual = 9.89319e-05, No Iterations 148
linear solve p 2529
time step continuity errors : sum local = 7.36926e-08, global = 1.54263e-20, cumulative = 1.02893e-20
ExecutionTime = 104.1 s  ClockTime = 104 s

Time = 0.01

Courant Number mean: 0.0910898 max: 0.604778
nonePBiCGStab:  Solving for Ux, Initial residual = 0.00831098, Final residual = 0.000498242, No Iterations 5
nonePBiCGStab:  Solving for Uy, Initial residual = 0.0183019, Final residual = 0.000815909, No Iterations 5
nonePBiCGStab:  Solving for Uz, Initial residual = 0.0599297, Final residual = 0.0103273, No Iterations 5
linear solve U 137
[OGL LOG] init_host_sparsity_pattern : 72 ms
[OGL LOG] matrix not stored update host matrix
[OGL LOG] update_host_mtx : 38 ms
[OGL LOG] matrix is not yet sorted, sorting host matrix
[OGL LOG] sort_host_mtx_sparsity_pattern : 55 ms
[OGL LOG] sort_host_mtx : 27 ms
[OGL LOG] init_preconditioner : 0 ms
[OGL LOG] solve : 4906 ms
noneompGKOBiCGStab:  Solving for p, Initial residual = 0.0672734, Final residual = 9.69809e-05, No Iterations 317
linear solve p 5134
time step continuity errors : sum local = 2.02737e-07, global = -2.25846e-20, cumulative = -1.22953e-20
[OGL LOG] init_host_sparsity_pattern : 75 ms
[OGL LOG] matrix not stored update host matrix
[OGL LOG] update_host_mtx : 42 ms
[OGL LOG] matrix is not yet sorted, sorting host matrix
[OGL LOG] sort_host_mtx_sparsity_pattern : 55 ms
[OGL LOG] sort_host_mtx : 27 ms
[OGL LOG] init_preconditioner : 0 ms
[OGL LOG] solve : 5588 ms
noneompGKOBiCGStab:  Solving for p, Initial residual = 0.0571703, Final residual = 9.92154e-05, No Iterations 362
linear solve p 5824
time step continuity errors : sum local = 4.4149e-08, global = -2.54922e-22, cumulative = -1.25502e-20
ExecutionTime = 115.31 s  ClockTime = 115 s

End

