/*---------------------------------------------------------------------------*\
  =========                 |
  \\      /  F ield         | OpenFOAM: The Open Source CFD Toolbox
   \\    /   O peration     | Website:  https://openfoam.org
    \\  /    A nd           | Version:  8
     \\/     M anipulation  |
\*---------------------------------------------------------------------------*/
Build  : 8-ef60d22ea792
Exec   : icoFoam
Date   : Jul 29 2021
Time   : 03:18:02
Host   : "uc2n489.localdomain"
PID    : 3420058
I/O    : uncollated
Case   : /pfs/data5/home/kit/scc/nq7776/code/OBR/lidDrivenCavity3D/Variation_mesh/70/Variation_matrix_solver/CG_BJ_CUDA/base
nProcs : 1
sigFpe : Enabling floating point exception trapping (FOAM_SIGFPE).
fileModificationChecking : Monitoring run-time modified files using timeStampMaster (fileModificationSkew 10)
allowSystemOperations : Allowing user-supplied system call operations

// * * * * * * * * * * * * * * * * * * * * * * * * * * * * * * * * * * * * * //
Create time

Create mesh for time = 0

Reading transportProperties

Reading field p

Reading field U

Reading/calculating face flux field phi


Starting time loop

Time = 0.001

Courant Number mean: 0 max: 0
DILUPBiCGStab:  Solving for Ux, Initial residual = 1, Final residual = 0.00143011, No Iterations 5
DILUPBiCGStab:  Solving for Uy:  solution singularity
DILUPBiCGStab:  Solving for Uz:  solution singularity
linear solve U 166895
[OGL LOG] init_host_sparsity_pattern : 93 ms
[OGL LOG] matrix not stored update host matrix
[OGL LOG] update_host_mtx : 50 ms
[OGL LOG] matrix is not yet sorted, compute sorting idxs
[OGL LOG] compute_sort : 2949 ms
[OGL LOG] matrix is not yet sorted, sorting host matrix
[OGL LOG] sort_host_mtx_sparsity_pattern : 70 ms
[OGL LOG] sort_host_mtx : 38 ms
[OGL LOG] init_preconditioner : 37 ms
 CG create  precond 
[OGL LOG] solve : 294 ms
BJcudaGKOCG:  Solving for p, Initial residual = 1, Final residual = 9.95369e-05, No Iterations 464
linear solve p 4293367
time step continuity errors : sum local = 5.85427e-08, global = 1.21862e-21, cumulative = 1.21862e-21
[OGL LOG] init_host_sparsity_pattern : 92 ms
[OGL LOG] matrix not stored update host matrix
[OGL LOG] update_host_mtx : 50 ms
[OGL LOG] matrix is not yet sorted, sorting host matrix
[OGL LOG] sort_host_mtx_sparsity_pattern : 70 ms
[OGL LOG] sort_host_mtx : 35 ms
[OGL LOG] init_preconditioner : 0 ms
 CG create  precond 
[OGL LOG] solve : 277 ms
BJcudaGKOCG:  Solving for p, Initial residual = 0.723816, Final residual = 9.65588e-05, No Iterations 447
linear solve p 545328
time step continuity errors : sum local = 7.54958e-08, global = -7.75015e-21, cumulative = -6.53153e-21
ExecutionTime = 6.44 s  ClockTime = 7 s

Time = 0.002

Courant Number mean: 0.0394021 max: 0.518352
DILUPBiCGStab:  Solving for Ux, Initial residual = 0.151291, Final residual = 0.000459808, No Iterations 5
DILUPBiCGStab:  Solving for Uy, Initial residual = 0.361768, Final residual = 0.000929263, No Iterations 5
DILUPBiCGStab:  Solving for Uz, Initial residual = 0.984653, Final residual = 0.0030302, No Iterations 5
linear solve U 332149
[OGL LOG] init_host_sparsity_pattern : 90 ms
[OGL LOG] matrix not stored update host matrix
[OGL LOG] update_host_mtx : 44 ms
[OGL LOG] matrix is not yet sorted, sorting host matrix
[OGL LOG] sort_host_mtx_sparsity_pattern : 67 ms
[OGL LOG] sort_host_mtx : 35 ms
[OGL LOG] init_preconditioner : 0 ms
 CG create  precond 
[OGL LOG] solve : 276 ms
BJcudaGKOCG:  Solving for p, Initial residual = 0.674247, Final residual = 9.44653e-05, No Iterations 441
linear solve p 534717
time step continuity errors : sum local = 8.08239e-08, global = 4.52391e-21, cumulative = -2.00763e-21
[OGL LOG] init_host_sparsity_pattern : 90 ms
[OGL LOG] matrix not stored update host matrix
[OGL LOG] update_host_mtx : 44 ms
[OGL LOG] matrix is not yet sorted, sorting host matrix
[OGL LOG] sort_host_mtx_sparsity_pattern : 66 ms
[OGL LOG] sort_host_mtx : 35 ms
[OGL LOG] init_preconditioner : 0 ms
 CG create  precond 
[OGL LOG] solve : 273 ms
BJcudaGKOCG:  Solving for p, Initial residual = 0.601573, Final residual = 9.67927e-05, No Iterations 438
linear solve p 530368
time step continuity errors : sum local = 8.46901e-08, global = -1.92751e-21, cumulative = -3.93513e-21
ExecutionTime = 8.04 s  ClockTime = 8 s

Time = 0.003

Courant Number mean: 0.059136 max: 0.61629
DILUPBiCGStab:  Solving for Ux, Initial residual = 0.0520837, Final residual = 0.000108122, No Iterations 5
DILUPBiCGStab:  Solving for Uy, Initial residual = 0.118686, Final residual = 0.000223833, No Iterations 5
DILUPBiCGStab:  Solving for Uz, Initial residual = 0.504056, Final residual = 0.00145515, No Iterations 5
linear solve U 332171
[OGL LOG] init_host_sparsity_pattern : 90 ms
[OGL LOG] matrix not stored update host matrix
[OGL LOG] update_host_mtx : 44 ms
[OGL LOG] matrix is not yet sorted, sorting host matrix
[OGL LOG] sort_host_mtx_sparsity_pattern : 65 ms
[OGL LOG] sort_host_mtx : 35 ms
[OGL LOG] init_preconditioner : 0 ms
 CG create  precond 
[OGL LOG] solve : 270 ms
BJcudaGKOCG:  Solving for p, Initial residual = 0.609231, Final residual = 9.07907e-05, No Iterations 436
linear solve p 526842
time step continuity errors : sum local = 5.56617e-08, global = -9.38012e-21, cumulative = -1.33152e-20
[OGL LOG] init_host_sparsity_pattern : 90 ms
[OGL LOG] matrix not stored update host matrix
[OGL LOG] update_host_mtx : 44 ms
[OGL LOG] matrix is not yet sorted, sorting host matrix
[OGL LOG] sort_host_mtx_sparsity_pattern : 63 ms
[OGL LOG] sort_host_mtx : 35 ms
[OGL LOG] init_preconditioner : 0 ms
 CG create  precond 
[OGL LOG] solve : 270 ms
BJcudaGKOCG:  Solving for p, Initial residual = 0.557347, Final residual = 9.99225e-05, No Iterations 434
linear solve p 524521
time step continuity errors : sum local = 5.94779e-08, global = 1.60196e-20, cumulative = 2.70437e-21
ExecutionTime = 9.62 s  ClockTime = 10 s

Time = 0.004

Courant Number mean: 0.0695971 max: 0.629497
DILUPBiCGStab:  Solving for Ux, Initial residual = 0.0286858, Final residual = 5.77619e-05, No Iterations 5
DILUPBiCGStab:  Solving for Uy, Initial residual = 0.0790528, Final residual = 0.000132055, No Iterations 5
DILUPBiCGStab:  Solving for Uz, Initial residual = 0.26212, Final residual = 0.000583209, No Iterations 5
linear solve U 338499
[OGL LOG] init_host_sparsity_pattern : 93 ms
[OGL LOG] matrix not stored update host matrix
[OGL LOG] update_host_mtx : 43 ms
[OGL LOG] matrix is not yet sorted, sorting host matrix
[OGL LOG] sort_host_mtx_sparsity_pattern : 63 ms
[OGL LOG] sort_host_mtx : 35 ms
[OGL LOG] init_preconditioner : 0 ms
 CG create  precond 
[OGL LOG] solve : 270 ms
BJcudaGKOCG:  Solving for p, Initial residual = 0.385806, Final residual = 9.527e-05, No Iterations 428
linear solve p 527077
time step continuity errors : sum local = 5.07918e-08, global = 2.41194e-20, cumulative = 2.68238e-20
[OGL LOG] init_host_sparsity_pattern : 90 ms
[OGL LOG] matrix not stored update host matrix
[OGL LOG] update_host_mtx : 44 ms
[OGL LOG] matrix is not yet sorted, sorting host matrix
[OGL LOG] sort_host_mtx_sparsity_pattern : 63 ms
[OGL LOG] sort_host_mtx : 35 ms
[OGL LOG] init_preconditioner : 0 ms
 CG create  precond 
[OGL LOG] solve : 265 ms
BJcudaGKOCG:  Solving for p, Initial residual = 0.325481, Final residual = 9.57239e-05, No Iterations 426
linear solve p 520242
time step continuity errors : sum local = 5.16666e-08, global = -1.25987e-20, cumulative = 1.42251e-20
ExecutionTime = 11.21 s  ClockTime = 11 s

Time = 0.005

Courant Number mean: 0.0778345 max: 0.639339
DILUPBiCGStab:  Solving for Ux, Initial residual = 0.0206103, Final residual = 3.14e-05, No Iterations 5
DILUPBiCGStab:  Solving for Uy, Initial residual = 0.0456785, Final residual = 6.1053e-05, No Iterations 5
DILUPBiCGStab:  Solving for Uz, Initial residual = 0.0901728, Final residual = 0.000191472, No Iterations 5
linear solve U 330897
[OGL LOG] init_host_sparsity_pattern : 91 ms
[OGL LOG] matrix not stored update host matrix
[OGL LOG] update_host_mtx : 47 ms
[OGL LOG] matrix is not yet sorted, sorting host matrix
[OGL LOG] sort_host_mtx_sparsity_pattern : 67 ms
[OGL LOG] sort_host_mtx : 35 ms
[OGL LOG] init_preconditioner : 0 ms
 CG create  precond 
[OGL LOG] solve : 247 ms
BJcudaGKOCG:  Solving for p, Initial residual = 0.289544, Final residual = 9.81705e-05, No Iterations 397
linear solve p 508933
time step continuity errors : sum local = 4.36908e-08, global = -1.91989e-20, cumulative = -4.97385e-21
[OGL LOG] init_host_sparsity_pattern : 90 ms
[OGL LOG] matrix not stored update host matrix
[OGL LOG] update_host_mtx : 44 ms
[OGL LOG] matrix is not yet sorted, sorting host matrix
[OGL LOG] sort_host_mtx_sparsity_pattern : 63 ms
[OGL LOG] sort_host_mtx : 35 ms
[OGL LOG] init_preconditioner : 0 ms
 CG create  precond 
[OGL LOG] solve : 249 ms
BJcudaGKOCG:  Solving for p, Initial residual = 0.247293, Final residual = 9.78366e-05, No Iterations 396
linear solve p 503949
time step continuity errors : sum local = 4.32057e-08, global = -1.40689e-20, cumulative = -1.90427e-20
ExecutionTime = 12.75 s  ClockTime = 13 s

Time = 0.006

Courant Number mean: 0.0841385 max: 0.645083
DILUPBiCGStab:  Solving for Ux, Initial residual = 0.014895, Final residual = 2.1975e-05, No Iterations 5
DILUPBiCGStab:  Solving for Uy, Initial residual = 0.0354636, Final residual = 3.66459e-05, No Iterations 5
DILUPBiCGStab:  Solving for Uz, Initial residual = 0.0796079, Final residual = 0.000157433, No Iterations 5
linear solve U 334103
[OGL LOG] init_host_sparsity_pattern : 90 ms
[OGL LOG] matrix not stored update host matrix
[OGL LOG] update_host_mtx : 44 ms
[OGL LOG] matrix is not yet sorted, sorting host matrix
[OGL LOG] sort_host_mtx_sparsity_pattern : 65 ms
[OGL LOG] sort_host_mtx : 35 ms
[OGL LOG] init_preconditioner : 0 ms
 CG create  precond 
[OGL LOG] solve : 124 ms
BJcudaGKOCG:  Solving for p, Initial residual = 0.177452, Final residual = 9.27276e-05, No Iterations 197
linear solve p 379726
time step continuity errors : sum local = 4.77927e-08, global = 1.96663e-20, cumulative = 6.23534e-22
[OGL LOG] init_host_sparsity_pattern : 90 ms
[OGL LOG] matrix not stored update host matrix
[OGL LOG] update_host_mtx : 44 ms
[OGL LOG] matrix is not yet sorted, sorting host matrix
[OGL LOG] sort_host_mtx_sparsity_pattern : 63 ms
[OGL LOG] sort_host_mtx : 35 ms
[OGL LOG] init_preconditioner : 0 ms
 CG create  precond 
[OGL LOG] solve : 122 ms
BJcudaGKOCG:  Solving for p, Initial residual = 0.146803, Final residual = 8.94435e-05, No Iterations 195
linear solve p 376916
time step continuity errors : sum local = 4.11892e-08, global = 5.09977e-21, cumulative = 5.7233e-21
ExecutionTime = 14.04 s  ClockTime = 14 s

Time = 0.007

Courant Number mean: 0.0893567 max: 0.648975
DILUPBiCGStab:  Solving for Ux, Initial residual = 0.011884, Final residual = 1.23412e-05, No Iterations 5
DILUPBiCGStab:  Solving for Uy, Initial residual = 0.0272429, Final residual = 2.86798e-05, No Iterations 5
DILUPBiCGStab:  Solving for Uz, Initial residual = 0.049756, Final residual = 7.73909e-05, No Iterations 5
linear solve U 332899
[OGL LOG] init_host_sparsity_pattern : 90 ms
[OGL LOG] matrix not stored update host matrix
[OGL LOG] update_host_mtx : 44 ms
[OGL LOG] matrix is not yet sorted, sorting host matrix
[OGL LOG] sort_host_mtx_sparsity_pattern : 64 ms
[OGL LOG] sort_host_mtx : 35 ms
[OGL LOG] init_preconditioner : 0 ms
 CG create  precond 
[OGL LOG] solve : 122 ms
BJcudaGKOCG:  Solving for p, Initial residual = 0.124037, Final residual = 9.60658e-05, No Iterations 194
linear solve p 377197
time step continuity errors : sum local = 3.99189e-08, global = 3.39694e-21, cumulative = 9.12024e-21
[OGL LOG] init_host_sparsity_pattern : 90 ms
[OGL LOG] matrix not stored update host matrix
[OGL LOG] update_host_mtx : 44 ms
[OGL LOG] matrix is not yet sorted, sorting host matrix
[OGL LOG] sort_host_mtx_sparsity_pattern : 63 ms
[OGL LOG] sort_host_mtx : 35 ms
[OGL LOG] init_preconditioner : 0 ms
 CG create  precond 
[OGL LOG] solve : 120 ms
BJcudaGKOCG:  Solving for p, Initial residual = 0.103537, Final residual = 9.8538e-05, No Iterations 189
linear solve p 373569
time step continuity errors : sum local = 4.11592e-08, global = -9.84579e-21, cumulative = -7.25545e-22
ExecutionTime = 15.31 s  ClockTime = 15 s

Time = 0.008

Courant Number mean: 0.0937058 max: 0.652003
DILUPBiCGStab:  Solving for Ux, Initial residual = 0.00969377, Final residual = 1.01163e-05, No Iterations 5
DILUPBiCGStab:  Solving for Uy, Initial residual = 0.0223562, Final residual = 1.32891e-05, No Iterations 5
DILUPBiCGStab:  Solving for Uz, Initial residual = 0.0440588, Final residual = 5.64883e-05, No Iterations 5
linear solve U 338815
[OGL LOG] init_host_sparsity_pattern : 93 ms
[OGL LOG] matrix not stored update host matrix
[OGL LOG] update_host_mtx : 44 ms
[OGL LOG] matrix is not yet sorted, sorting host matrix
[OGL LOG] sort_host_mtx_sparsity_pattern : 63 ms
[OGL LOG] sort_host_mtx : 35 ms
[OGL LOG] init_preconditioner : 0 ms
 CG create  precond 
[OGL LOG] solve : 120 ms
BJcudaGKOCG:  Solving for p, Initial residual = 0.0805663, Final residual = 9.98907e-05, No Iterations 189
linear solve p 377312
time step continuity errors : sum local = 4.89983e-08, global = -1.38012e-20, cumulative = -1.45268e-20
[OGL LOG] init_host_sparsity_pattern : 90 ms
[OGL LOG] matrix not stored update host matrix
[OGL LOG] update_host_mtx : 43 ms
[OGL LOG] matrix is not yet sorted, sorting host matrix
[OGL LOG] sort_host_mtx_sparsity_pattern : 63 ms
[OGL LOG] sort_host_mtx : 35 ms
[OGL LOG] init_preconditioner : 0 ms
 CG create  precond 
[OGL LOG] solve : 116 ms
BJcudaGKOCG:  Solving for p, Initial residual = 0.0665251, Final residual = 9.93964e-05, No Iterations 183
linear solve p 369856
time step continuity errors : sum local = 4.35824e-08, global = 2.61485e-20, cumulative = 1.16217e-20
ExecutionTime = 16.59 s  ClockTime = 17 s

Time = 0.009

Courant Number mean: 0.0974484 max: 0.654263
DILUPBiCGStab:  Solving for Ux, Initial residual = 0.00810224, Final residual = 5.39981e-06, No Iterations 5
DILUPBiCGStab:  Solving for Uy, Initial residual = 0.0188558, Final residual = 1.31747e-05, No Iterations 5
DILUPBiCGStab:  Solving for Uz, Initial residual = 0.0361132, Final residual = 4.39439e-05, No Iterations 5
linear solve U 331040
[OGL LOG] init_host_sparsity_pattern : 93 ms
[OGL LOG] matrix not stored update host matrix
[OGL LOG] update_host_mtx : 47 ms
[OGL LOG] matrix is not yet sorted, sorting host matrix
[OGL LOG] sort_host_mtx_sparsity_pattern : 67 ms
[OGL LOG] sort_host_mtx : 35 ms
[OGL LOG] init_preconditioner : 0 ms
 CG create  precond 
[OGL LOG] solve : 115 ms
BJcudaGKOCG:  Solving for p, Initial residual = 0.0584234, Final residual = 9.69119e-05, No Iterations 183
linear solve p 379801
time step continuity errors : sum local = 4.17354e-08, global = -4.17402e-21, cumulative = 7.44769e-21
[OGL LOG] init_host_sparsity_pattern : 90 ms
[OGL LOG] matrix not stored update host matrix
[OGL LOG] update_host_mtx : 44 ms
[OGL LOG] matrix is not yet sorted, sorting host matrix
[OGL LOG] sort_host_mtx_sparsity_pattern : 63 ms
[OGL LOG] sort_host_mtx : 35 ms
[OGL LOG] init_preconditioner : 0 ms
 CG create  precond 
[OGL LOG] solve : 115 ms
BJcudaGKOCG:  Solving for p, Initial residual = 0.048739, Final residual = 9.36979e-05, No Iterations 181
linear solve p 369364
time step continuity errors : sum local = 3.7862e-08, global = 1.14768e-20, cumulative = 1.89245e-20
ExecutionTime = 17.87 s  ClockTime = 18 s

Time = 0.01

Courant Number mean: 0.100691 max: 0.656135
DILUPBiCGStab:  Solving for Ux, Initial residual = 0.0069496, Final residual = 4.37993e-06, No Iterations 5
DILUPBiCGStab:  Solving for Uy, Initial residual = 0.0160994, Final residual = 6.7309e-06, No Iterations 5
DILUPBiCGStab:  Solving for Uz, Initial residual = 0.0319673, Final residual = 3.22178e-05, No Iterations 5
linear solve U 331080
[OGL LOG] init_host_sparsity_pattern : 90 ms
[OGL LOG] matrix not stored update host matrix
[OGL LOG] update_host_mtx : 44 ms
[OGL LOG] matrix is not yet sorted, sorting host matrix
[OGL LOG] sort_host_mtx_sparsity_pattern : 63 ms
[OGL LOG] sort_host_mtx : 35 ms
[OGL LOG] init_preconditioner : 0 ms
 CG create  precond 
[OGL LOG] solve : 244 ms
BJcudaGKOCG:  Solving for p, Initial residual = 0.0395101, Final residual = 9.13195e-05, No Iterations 389
linear solve p 498283
time step continuity errors : sum local = 3.65428e-08, global = 1.32715e-20, cumulative = 3.2196e-20
[OGL LOG] init_host_sparsity_pattern : 90 ms
[OGL LOG] matrix not stored update host matrix
[OGL LOG] update_host_mtx : 44 ms
[OGL LOG] matrix is not yet sorted, sorting host matrix
[OGL LOG] sort_host_mtx_sparsity_pattern : 65 ms
[OGL LOG] sort_host_mtx : 35 ms
[OGL LOG] init_preconditioner : 0 ms
 CG create  precond 
[OGL LOG] solve : 241 ms
BJcudaGKOCG:  Solving for p, Initial residual = 0.0332935, Final residual = 9.02633e-05, No Iterations 388
linear solve p 498327
time step continuity errors : sum local = 3.61468e-08, global = 1.38102e-20, cumulative = 4.60062e-20
ExecutionTime = 19.41 s  ClockTime = 20 s

End

