/*---------------------------------------------------------------------------*\
  =========                 |
  \\      /  F ield         | OpenFOAM: The Open Source CFD Toolbox
   \\    /   O peration     | Website:  https://openfoam.org
    \\  /    A nd           | Version:  8
     \\/     M anipulation  |
\*---------------------------------------------------------------------------*/
Build  : 8-14d69e1ee166
Exec   : icoFoam
Date   : Jul 29 2021
Time   : 08:03:04
Host   : "guyot.icl.utk.edu"
PID    : 80346
I/O    : uncollated
Case   : /home/greole/code/OBR/lidDrivenCavity3D/Variation_mesh/40/Variation_matrix_solver/CG_BJ_CUDA/base
nProcs : 1
sigFpe : Enabling floating point exception trapping (FOAM_SIGFPE).
fileModificationChecking : Monitoring run-time modified files using timeStampMaster (fileModificationSkew 10)
allowSystemOperations : Allowing user-supplied system call operations

// * * * * * * * * * * * * * * * * * * * * * * * * * * * * * * * * * * * * * //
Create time

Create mesh for time = 0

Reading transportProperties

Reading field p

Reading field U

Reading/calculating face flux field phi


Starting time loop

Time = 0.001

Courant Number mean: 0 max: 0
DILUPBiCGStab:  Solving for Ux, Initial residual = 1, Final residual = 1.19415e-05, No Iterations 5
DILUPBiCGStab:  Solving for Uy:  solution singularity
DILUPBiCGStab:  Solving for Uz:  solution singularity
linear solve U 23457
[OGL LOG] init_host_sparsity_pattern : 28 ms
[OGL LOG] matrix not stored update host matrix
[OGL LOG] update_host_mtx : 14 ms
[OGL LOG] matrix is not yet sorted, compute sorting idxs
[OGL LOG] compute_sort : 543 ms
[OGL LOG] matrix is not yet sorted, sorting host matrix
[OGL LOG] sort_host_mtx_sparsity_pattern : 11 ms
[OGL LOG] sort_host_mtx : 7 ms
[OGL LOG] init_preconditioner : 10 ms
 CG create  precond 
[OGL LOG] solve : 56 ms
BJcudaGKOCG:  Solving for p, Initial residual = 1, Final residual = 9.7379e-05, No Iterations 255
linear solve p 2317350
time step continuity errors : sum local = 5.49898e-08, global = 4.23589e-21, cumulative = 4.23589e-21
[OGL LOG] init_host_sparsity_pattern : 27 ms
[OGL LOG] matrix not stored update host matrix
[OGL LOG] update_host_mtx : 14 ms
[OGL LOG] matrix is not yet sorted, sorting host matrix
[OGL LOG] sort_host_mtx_sparsity_pattern : 11 ms
[OGL LOG] sort_host_mtx : 6 ms
[OGL LOG] init_preconditioner : 0 ms
 CG create  precond 
[OGL LOG] solve : 54 ms
BJcudaGKOCG:  Solving for p, Initial residual = 0.607442, Final residual = 8.49115e-05, No Iterations 245
linear solve p 118691
time step continuity errors : sum local = 7.08741e-08, global = -5.71489e-21, cumulative = -1.479e-21
ExecutionTime = 2.74 s  ClockTime = 2 s

Time = 0.002

Courant Number mean: 0.0213818 max: 0.237104
DILUPBiCGStab:  Solving for Ux, Initial residual = 0.179109, Final residual = 2.29029e-06, No Iterations 5
DILUPBiCGStab:  Solving for Uy, Initial residual = 0.290839, Final residual = 3.23158e-06, No Iterations 5
DILUPBiCGStab:  Solving for Uz, Initial residual = 0.958255, Final residual = 1.25361e-05, No Iterations 5
linear solve U 44125
[OGL LOG] init_host_sparsity_pattern : 26 ms
[OGL LOG] matrix not stored update host matrix
[OGL LOG] update_host_mtx : 13 ms
[OGL LOG] matrix is not yet sorted, sorting host matrix
[OGL LOG] sort_host_mtx_sparsity_pattern : 10 ms
[OGL LOG] sort_host_mtx : 6 ms
[OGL LOG] init_preconditioner : 0 ms
 CG create  precond 
[OGL LOG] solve : 53 ms
BJcudaGKOCG:  Solving for p, Initial residual = 0.459157, Final residual = 8.58462e-05, No Iterations 243
linear solve p 115932
time step continuity errors : sum local = 6.83176e-08, global = 1.37721e-20, cumulative = 1.22931e-20
[OGL LOG] init_host_sparsity_pattern : 27 ms
[OGL LOG] matrix not stored update host matrix
[OGL LOG] update_host_mtx : 14 ms
[OGL LOG] matrix is not yet sorted, sorting host matrix
[OGL LOG] sort_host_mtx_sparsity_pattern : 10 ms
[OGL LOG] sort_host_mtx : 6 ms
[OGL LOG] init_preconditioner : 0 ms
 CG create  precond 
[OGL LOG] solve : 52 ms
BJcudaGKOCG:  Solving for p, Initial residual = 0.363695, Final residual = 9.31056e-05, No Iterations 241
linear solve p 115699
time step continuity errors : sum local = 7.7163e-08, global = -1.06906e-20, cumulative = 1.60248e-21
ExecutionTime = 3.05 s  ClockTime = 3 s

Time = 0.003

Courant Number mean: 0.032521 max: 0.306672
DILUPBiCGStab:  Solving for Ux, Initial residual = 0.0649077, Final residual = 7.63596e-07, No Iterations 5
DILUPBiCGStab:  Solving for Uy, Initial residual = 0.1051, Final residual = 6.05276e-07, No Iterations 5
DILUPBiCGStab:  Solving for Uz, Initial residual = 0.144792, Final residual = 1.64916e-06, No Iterations 5
linear solve U 44215
[OGL LOG] init_host_sparsity_pattern : 26 ms
[OGL LOG] matrix not stored update host matrix
[OGL LOG] update_host_mtx : 14 ms
[OGL LOG] matrix is not yet sorted, sorting host matrix
[OGL LOG] sort_host_mtx_sparsity_pattern : 10 ms
[OGL LOG] sort_host_mtx : 6 ms
[OGL LOG] init_preconditioner : 0 ms
 CG create  precond 
[OGL LOG] solve : 50 ms
BJcudaGKOCG:  Solving for p, Initial residual = 0.164461, Final residual = 8.25746e-05, No Iterations 230
linear solve p 113509
time step continuity errors : sum local = 5.30968e-08, global = -1.35193e-20, cumulative = -1.19169e-20
[OGL LOG] init_host_sparsity_pattern : 26 ms
[OGL LOG] matrix not stored update host matrix
[OGL LOG] update_host_mtx : 13 ms
[OGL LOG] matrix is not yet sorted, sorting host matrix
[OGL LOG] sort_host_mtx_sparsity_pattern : 10 ms
[OGL LOG] sort_host_mtx : 6 ms
[OGL LOG] init_preconditioner : 0 ms
 CG create  precond 
[OGL LOG] solve : 50 ms
BJcudaGKOCG:  Solving for p, Initial residual = 0.129726, Final residual = 9.03497e-05, No Iterations 228
linear solve p 112397
time step continuity errors : sum local = 5.79191e-08, global = 5.36479e-21, cumulative = -6.55207e-21
ExecutionTime = 3.35 s  ClockTime = 3 s

Time = 0.004

Courant Number mean: 0.0391011 max: 0.328163
DILUPBiCGStab:  Solving for Ux, Initial residual = 0.0380607, Final residual = 2.89176e-07, No Iterations 5
DILUPBiCGStab:  Solving for Uy, Initial residual = 0.06567, Final residual = 3.02507e-07, No Iterations 5
DILUPBiCGStab:  Solving for Uz, Initial residual = 0.105509, Final residual = 6.74472e-07, No Iterations 5
linear solve U 43996
[OGL LOG] init_host_sparsity_pattern : 27 ms
[OGL LOG] matrix not stored update host matrix
[OGL LOG] update_host_mtx : 13 ms
[OGL LOG] matrix is not yet sorted, sorting host matrix
[OGL LOG] sort_host_mtx_sparsity_pattern : 10 ms
[OGL LOG] sort_host_mtx : 6 ms
[OGL LOG] init_preconditioner : 0 ms
 CG create  precond 
[OGL LOG] solve : 49 ms
BJcudaGKOCG:  Solving for p, Initial residual = 0.0834309, Final residual = 9.74664e-05, No Iterations 223
linear solve p 111896
time step continuity errors : sum local = 6.05292e-08, global = 9.0415e-22, cumulative = -5.64792e-21
[OGL LOG] init_host_sparsity_pattern : 27 ms
[OGL LOG] matrix not stored update host matrix
[OGL LOG] update_host_mtx : 13 ms
[OGL LOG] matrix is not yet sorted, sorting host matrix
[OGL LOG] sort_host_mtx_sparsity_pattern : 10 ms
[OGL LOG] sort_host_mtx : 6 ms
[OGL LOG] init_preconditioner : 0 ms
 CG create  precond 
[OGL LOG] solve : 48 ms
BJcudaGKOCG:  Solving for p, Initial residual = 0.0649752, Final residual = 9.83045e-05, No Iterations 221
linear solve p 110912
time step continuity errors : sum local = 6.18435e-08, global = -2.8742e-21, cumulative = -8.52212e-21
ExecutionTime = 3.65 s  ClockTime = 3 s

Time = 0.005

Courant Number mean: 0.0438791 max: 0.338387
DILUPBiCGStab:  Solving for Ux, Initial residual = 0.0264322, Final residual = 7.82469e-08, No Iterations 5
DILUPBiCGStab:  Solving for Uy, Initial residual = 0.0455704, Final residual = 1.71085e-07, No Iterations 5
DILUPBiCGStab:  Solving for Uz, Initial residual = 0.0750429, Final residual = 2.93022e-07, No Iterations 5
linear solve U 44050
[OGL LOG] init_host_sparsity_pattern : 26 ms
[OGL LOG] matrix not stored update host matrix
[OGL LOG] update_host_mtx : 13 ms
[OGL LOG] matrix is not yet sorted, sorting host matrix
[OGL LOG] sort_host_mtx_sparsity_pattern : 10 ms
[OGL LOG] sort_host_mtx : 6 ms
[OGL LOG] init_preconditioner : 0 ms
 CG create  precond 
[OGL LOG] solve : 48 ms
BJcudaGKOCG:  Solving for p, Initial residual = 0.0440587, Final residual = 9.99267e-05, No Iterations 218
linear solve p 110887
time step continuity errors : sum local = 6.20274e-08, global = 1.30195e-20, cumulative = 4.49743e-21
[OGL LOG] init_host_sparsity_pattern : 26 ms
[OGL LOG] matrix not stored update host matrix
[OGL LOG] update_host_mtx : 14 ms
[OGL LOG] matrix is not yet sorted, sorting host matrix
[OGL LOG] sort_host_mtx_sparsity_pattern : 10 ms
[OGL LOG] sort_host_mtx : 6 ms
[OGL LOG] init_preconditioner : 0 ms
 CG create  precond 
[OGL LOG] solve : 47 ms
BJcudaGKOCG:  Solving for p, Initial residual = 0.0356672, Final residual = 9.75881e-05, No Iterations 216
linear solve p 110712
time step continuity errors : sum local = 6.08146e-08, global = 1.29127e-21, cumulative = 5.78869e-21
ExecutionTime = 3.94 s  ClockTime = 4 s

Time = 0.006

Courant Number mean: 0.0475595 max: 0.344477
DILUPBiCGStab:  Solving for Ux, Initial residual = 0.0200113, Final residual = 3.5502e-08, No Iterations 5
DILUPBiCGStab:  Solving for Uy, Initial residual = 0.0348385, Final residual = 8.01738e-08, No Iterations 5
DILUPBiCGStab:  Solving for Uz, Initial residual = 0.0588984, Final residual = 1.9149e-07, No Iterations 5
linear solve U 44422
[OGL LOG] init_host_sparsity_pattern : 26 ms
[OGL LOG] matrix not stored update host matrix
[OGL LOG] update_host_mtx : 13 ms
[OGL LOG] matrix is not yet sorted, sorting host matrix
[OGL LOG] sort_host_mtx_sparsity_pattern : 10 ms
[OGL LOG] sort_host_mtx : 6 ms
[OGL LOG] init_preconditioner : 0 ms
 CG create  precond 
[OGL LOG] solve : 47 ms
BJcudaGKOCG:  Solving for p, Initial residual = 0.0293745, Final residual = 9.75327e-05, No Iterations 216
linear solve p 110380
time step continuity errors : sum local = 6.07092e-08, global = -8.98744e-21, cumulative = -3.19875e-21
[OGL LOG] init_host_sparsity_pattern : 26 ms
[OGL LOG] matrix not stored update host matrix
[OGL LOG] update_host_mtx : 14 ms
[OGL LOG] matrix is not yet sorted, sorting host matrix
[OGL LOG] sort_host_mtx_sparsity_pattern : 10 ms
[OGL LOG] sort_host_mtx : 6 ms
[OGL LOG] init_preconditioner : 0 ms
 CG create  precond 
[OGL LOG] solve : 23 ms
BJcudaGKOCG:  Solving for p, Initial residual = 0.0240979, Final residual = 9.58668e-05, No Iterations 104
linear solve p 85931
time step continuity errors : sum local = 7.37893e-08, global = -4.65031e-23, cumulative = -3.24525e-21
ExecutionTime = 4.21 s  ClockTime = 4 s

Time = 0.007

Courant Number mean: 0.0505736 max: 0.348643
DILUPBiCGStab:  Solving for Ux, Initial residual = 0.0159051, Final residual = 2.12725e-08, No Iterations 5
DILUPBiCGStab:  Solving for Uy, Initial residual = 0.0279074, Final residual = 5.89282e-08, No Iterations 5
DILUPBiCGStab:  Solving for Uz, Initial residual = 0.0490415, Final residual = 1.37067e-07, No Iterations 5
linear solve U 44106
[OGL LOG] init_host_sparsity_pattern : 26 ms
[OGL LOG] matrix not stored update host matrix
[OGL LOG] update_host_mtx : 14 ms
[OGL LOG] matrix is not yet sorted, sorting host matrix
[OGL LOG] sort_host_mtx_sparsity_pattern : 10 ms
[OGL LOG] sort_host_mtx : 6 ms
[OGL LOG] init_preconditioner : 0 ms
 CG create  precond 
[OGL LOG] solve : 24 ms
BJcudaGKOCG:  Solving for p, Initial residual = 0.0230469, Final residual = 9.92781e-05, No Iterations 106
linear solve p 86853
time step continuity errors : sum local = 7.8658e-08, global = -3.93769e-21, cumulative = -7.18294e-21
[OGL LOG] init_host_sparsity_pattern : 27 ms
[OGL LOG] matrix not stored update host matrix
[OGL LOG] update_host_mtx : 14 ms
[OGL LOG] matrix is not yet sorted, sorting host matrix
[OGL LOG] sort_host_mtx_sparsity_pattern : 10 ms
[OGL LOG] sort_host_mtx : 6 ms
[OGL LOG] init_preconditioner : 0 ms
 CG create  precond 
[OGL LOG] solve : 47 ms
BJcudaGKOCG:  Solving for p, Initial residual = 0.0192921, Final residual = 9.30895e-05, No Iterations 214
linear solve p 110747
time step continuity errors : sum local = 5.84295e-08, global = 7.93925e-22, cumulative = -6.38901e-21
ExecutionTime = 4.48 s  ClockTime = 4 s

Time = 0.008

Courant Number mean: 0.053113 max: 0.351704
DILUPBiCGStab:  Solving for Ux, Initial residual = 0.0130942, Final residual = 1.51918e-08, No Iterations 5
DILUPBiCGStab:  Solving for Uy, Initial residual = 0.0230302, Final residual = 3.73976e-08, No Iterations 5
DILUPBiCGStab:  Solving for Uz, Initial residual = 0.042437, Final residual = 1.08813e-07, No Iterations 5
linear solve U 43998
[OGL LOG] init_host_sparsity_pattern : 26 ms
[OGL LOG] matrix not stored update host matrix
[OGL LOG] update_host_mtx : 13 ms
[OGL LOG] matrix is not yet sorted, sorting host matrix
[OGL LOG] sort_host_mtx_sparsity_pattern : 10 ms
[OGL LOG] sort_host_mtx : 6 ms
[OGL LOG] init_preconditioner : 0 ms
 CG create  precond 
[OGL LOG] solve : 47 ms
BJcudaGKOCG:  Solving for p, Initial residual = 0.0181884, Final residual = 8.5915e-05, No Iterations 215
linear solve p 110035
time step continuity errors : sum local = 5.39812e-08, global = 1.28496e-20, cumulative = 6.46063e-21
[OGL LOG] init_host_sparsity_pattern : 26 ms
[OGL LOG] matrix not stored update host matrix
[OGL LOG] update_host_mtx : 14 ms
[OGL LOG] matrix is not yet sorted, sorting host matrix
[OGL LOG] sort_host_mtx_sparsity_pattern : 10 ms
[OGL LOG] sort_host_mtx : 6 ms
[OGL LOG] init_preconditioner : 0 ms
 CG create  precond 
[OGL LOG] solve : 46 ms
BJcudaGKOCG:  Solving for p, Initial residual = 0.0153653, Final residual = 9.70972e-05, No Iterations 212
linear solve p 109360
time step continuity errors : sum local = 6.11406e-08, global = -9.83598e-21, cumulative = -3.37535e-21
ExecutionTime = 4.78 s  ClockTime = 4 s

Time = 0.009

Courant Number mean: 0.0552704 max: 0.354072
DILUPBiCGStab:  Solving for Ux, Initial residual = 0.0109816, Final residual = 1.14706e-08, No Iterations 5
DILUPBiCGStab:  Solving for Uy, Initial residual = 0.0194816, Final residual = 2.99219e-08, No Iterations 5
DILUPBiCGStab:  Solving for Uz, Initial residual = 0.0356756, Final residual = 9.39124e-08, No Iterations 5
linear solve U 44382
[OGL LOG] init_host_sparsity_pattern : 26 ms
[OGL LOG] matrix not stored update host matrix
[OGL LOG] update_host_mtx : 13 ms
[OGL LOG] matrix is not yet sorted, sorting host matrix
[OGL LOG] sort_host_mtx_sparsity_pattern : 10 ms
[OGL LOG] sort_host_mtx : 6 ms
[OGL LOG] init_preconditioner : 0 ms
 CG create  precond 
[OGL LOG] solve : 21 ms
BJcudaGKOCG:  Solving for p, Initial residual = 0.0151413, Final residual = 9.58573e-05, No Iterations 95
linear solve p 84292
time step continuity errors : sum local = 6.55737e-08, global = 2.89179e-20, cumulative = 2.55426e-20
[OGL LOG] init_host_sparsity_pattern : 27 ms
[OGL LOG] matrix not stored update host matrix
[OGL LOG] update_host_mtx : 13 ms
[OGL LOG] matrix is not yet sorted, sorting host matrix
[OGL LOG] sort_host_mtx_sparsity_pattern : 10 ms
[OGL LOG] sort_host_mtx : 6 ms
[OGL LOG] init_preconditioner : 0 ms
 CG create  precond 
[OGL LOG] solve : 20 ms
BJcudaGKOCG:  Solving for p, Initial residual = 0.0128548, Final residual = 9.01962e-05, No Iterations 93
linear solve p 83257
time step continuity errors : sum local = 5.83937e-08, global = -4.87012e-21, cumulative = 2.06725e-20
ExecutionTime = 5.02 s  ClockTime = 5 s

Time = 0.01

Courant Number mean: 0.057126 max: 0.355962
DILUPBiCGStab:  Solving for Ux, Initial residual = 0.00937307, Final residual = 9.20977e-09, No Iterations 5
DILUPBiCGStab:  Solving for Uy, Initial residual = 0.0167555, Final residual = 2.20982e-08, No Iterations 5
DILUPBiCGStab:  Solving for Uz, Initial residual = 0.0310263, Final residual = 7.93899e-08, No Iterations 5
linear solve U 43874
[OGL LOG] init_host_sparsity_pattern : 26 ms
[OGL LOG] matrix not stored update host matrix
[OGL LOG] update_host_mtx : 13 ms
[OGL LOG] matrix is not yet sorted, sorting host matrix
[OGL LOG] sort_host_mtx_sparsity_pattern : 10 ms
[OGL LOG] sort_host_mtx : 6 ms
[OGL LOG] init_preconditioner : 0 ms
 CG create  precond 
[OGL LOG] solve : 21 ms
BJcudaGKOCG:  Solving for p, Initial residual = 0.0129198, Final residual = 9.99149e-05, No Iterations 93
linear solve p 83642
time step continuity errors : sum local = 6.82488e-08, global = -8.07161e-21, cumulative = 1.26008e-20
[OGL LOG] init_host_sparsity_pattern : 27 ms
[OGL LOG] matrix not stored update host matrix
[OGL LOG] update_host_mtx : 14 ms
[OGL LOG] matrix is not yet sorted, sorting host matrix
[OGL LOG] sort_host_mtx_sparsity_pattern : 10 ms
[OGL LOG] sort_host_mtx : 6 ms
[OGL LOG] init_preconditioner : 0 ms
 CG create  precond 
[OGL LOG] solve : 20 ms
BJcudaGKOCG:  Solving for p, Initial residual = 0.0110062, Final residual = 8.93329e-05, No Iterations 92
linear solve p 83503
time step continuity errors : sum local = 5.86934e-08, global = 9.59489e-21, cumulative = 2.21957e-20
ExecutionTime = 5.26 s  ClockTime = 5 s

End

