/*---------------------------------------------------------------------------*\
  =========                 |
  \\      /  F ield         | OpenFOAM: The Open Source CFD Toolbox
   \\    /   O peration     | Website:  https://openfoam.org
    \\  /    A nd           | Version:  8
     \\/     M anipulation  |
\*---------------------------------------------------------------------------*/
Build  : 8-ef60d22ea792
Exec   : icoFoam
Date   : Jul 28 2021
Time   : 15:45:46
Host   : "nla-gpu2.ianm.kit.edu"
PID    : 1519374
I/O    : uncollated
Case   : /home/greole/code/OBR/lidDrivenCavity3D/Variation_mesh/95/Variation_matrix_solver/CG_NoPrecond_HIP/base
nProcs : 1
sigFpe : Enabling floating point exception trapping (FOAM_SIGFPE).
fileModificationChecking : Monitoring run-time modified files using timeStampMaster (fileModificationSkew 10)
allowSystemOperations : Allowing user-supplied system call operations

// * * * * * * * * * * * * * * * * * * * * * * * * * * * * * * * * * * * * * //
Create time

Create mesh for time = 0

Reading transportProperties

Reading field p

Reading field U

Reading/calculating face flux field phi


Starting time loop

Time = 0.001

Courant Number mean: 0 max: 0
DILUPBiCGStab:  Solving for Ux, Initial residual = 1, Final residual = 0.00597808, No Iterations 5
DILUPBiCGStab:  Solving for Uy:  solution singularity
DILUPBiCGStab:  Solving for Uz:  solution singularity
linear solve U 352865
[OGL LOG] init_host_sparsity_pattern : 403 ms
[OGL LOG] matrix not stored update host matrix
[OGL LOG] update_host_mtx : 194 ms
[OGL LOG] matrix is not yet sorted, compute sorting idxs
[OGL LOG] compute_sort : 8553 ms
[OGL LOG] matrix is not yet sorted, sorting host matrix
[OGL LOG] sort_host_mtx_sparsity_pattern : 176 ms
[OGL LOG] sort_host_mtx : 107 ms
[OGL LOG] init_preconditioner : 0 ms
[OGL LOG] solve : 416 ms
nonehipGKOCG:  Solving for p, Initial residual = 1, Final residual = 9.64148e-05, No Iterations 752
linear solve p 10340381
time step continuity errors : sum local = 5.56667e-08, global = 1.09706e-20, cumulative = 1.09706e-20
[OGL LOG] init_host_sparsity_pattern : 386 ms
[OGL LOG] matrix not stored update host matrix
[OGL LOG] update_host_mtx : 194 ms
[OGL LOG] matrix is not yet sorted, sorting host matrix
[OGL LOG] sort_host_mtx_sparsity_pattern : 166 ms
[OGL LOG] sort_host_mtx : 105 ms
[OGL LOG] init_preconditioner : 0 ms
[OGL LOG] solve : 389 ms
nonehipGKOCG:  Solving for p, Initial residual = 0.770647, Final residual = 9.98569e-05, No Iterations 742
linear solve p 1276332
time step continuity errors : sum local = 7.32221e-08, global = 9.38443e-22, cumulative = 1.19091e-20
ExecutionTime = 16.69 s  ClockTime = 16 s

Time = 0.002

Courant Number mean: 0.0534417 max: 0.757475
DILUPBiCGStab:  Solving for Ux, Initial residual = 0.140129, Final residual = 0.00255033, No Iterations 5
DILUPBiCGStab:  Solving for Uy, Initial residual = 0.419603, Final residual = 0.00695949, No Iterations 5
DILUPBiCGStab:  Solving for Uz, Initial residual = 0.989728, Final residual = 0.0177983, No Iterations 5
linear solve U 696529
[OGL LOG] init_host_sparsity_pattern : 385 ms
[OGL LOG] matrix not stored update host matrix
[OGL LOG] update_host_mtx : 190 ms
[OGL LOG] matrix is not yet sorted, sorting host matrix
[OGL LOG] sort_host_mtx_sparsity_pattern : 174 ms
[OGL LOG] sort_host_mtx : 106 ms
[OGL LOG] init_preconditioner : 0 ms
[OGL LOG] solve : 384 ms
nonehipGKOCG:  Solving for p, Initial residual = 0.783553, Final residual = 9.66065e-05, No Iterations 739
linear solve p 1276250
time step continuity errors : sum local = 9.56699e-08, global = -9.02629e-21, cumulative = 2.8828e-21
[OGL LOG] init_host_sparsity_pattern : 388 ms
[OGL LOG] matrix not stored update host matrix
[OGL LOG] update_host_mtx : 200 ms
[OGL LOG] matrix is not yet sorted, sorting host matrix
[OGL LOG] sort_host_mtx_sparsity_pattern : 170 ms
[OGL LOG] sort_host_mtx : 112 ms
[OGL LOG] init_preconditioner : 0 ms
[OGL LOG] solve : 389 ms
nonehipGKOCG:  Solving for p, Initial residual = 0.722897, Final residual = 9.62097e-05, No Iterations 737
linear solve p 1295129
time step continuity errors : sum local = 9.72386e-08, global = -8.03893e-21, cumulative = -5.15614e-21
ExecutionTime = 20.92 s  ClockTime = 19 s

Time = 0.003

Courant Number mean: 0.0810139 max: 0.886815
DILUPBiCGStab:  Solving for Ux, Initial residual = 0.0625977, Final residual = 0.00087712, No Iterations 5
DILUPBiCGStab:  Solving for Uy, Initial residual = 0.202715, Final residual = 0.00232247, No Iterations 5
DILUPBiCGStab:  Solving for Uz, Initial residual = 0.778862, Final residual = 0.0126322, No Iterations 5
linear solve U 692814
[OGL LOG] init_host_sparsity_pattern : 385 ms
[OGL LOG] matrix not stored update host matrix
[OGL LOG] update_host_mtx : 197 ms
[OGL LOG] matrix is not yet sorted, sorting host matrix
[OGL LOG] sort_host_mtx_sparsity_pattern : 179 ms
[OGL LOG] sort_host_mtx : 103 ms
[OGL LOG] init_preconditioner : 0 ms
[OGL LOG] solve : 232 ms
nonehipGKOCG:  Solving for p, Initial residual = 0.809018, Final residual = 9.82686e-05, No Iterations 440
linear solve p 1132688
time step continuity errors : sum local = 8.97067e-08, global = 9.81104e-21, cumulative = 4.6549e-21
[OGL LOG] init_host_sparsity_pattern : 389 ms
[OGL LOG] matrix not stored update host matrix
[OGL LOG] update_host_mtx : 197 ms
[OGL LOG] matrix is not yet sorted, sorting host matrix
[OGL LOG] sort_host_mtx_sparsity_pattern : 167 ms
[OGL LOG] sort_host_mtx : 104 ms
[OGL LOG] init_preconditioner : 0 ms
[OGL LOG] solve : 229 ms
nonehipGKOCG:  Solving for p, Initial residual = 0.776121, Final residual = 9.45213e-05, No Iterations 439
linear solve p 1122163
time step continuity errors : sum local = 8.24385e-08, global = 8.70407e-21, cumulative = 1.3359e-20
ExecutionTime = 24.62 s  ClockTime = 23 s

Time = 0.004

Courant Number mean: 0.0936152 max: 0.877113
DILUPBiCGStab:  Solving for Ux, Initial residual = 0.0356753, Final residual = 0.000617167, No Iterations 5
DILUPBiCGStab:  Solving for Uy, Initial residual = 0.148236, Final residual = 0.00224198, No Iterations 5
DILUPBiCGStab:  Solving for Uz, Initial residual = 0.579732, Final residual = 0.00799745, No Iterations 5
linear solve U 696314
[OGL LOG] init_host_sparsity_pattern : 386 ms
[OGL LOG] matrix not stored update host matrix
[OGL LOG] update_host_mtx : 205 ms
[OGL LOG] matrix is not yet sorted, sorting host matrix
[OGL LOG] sort_host_mtx_sparsity_pattern : 165 ms
[OGL LOG] sort_host_mtx : 108 ms
[OGL LOG] init_preconditioner : 0 ms
[OGL LOG] solve : 228 ms
nonehipGKOCG:  Solving for p, Initial residual = 0.70479, Final residual = 9.94319e-05, No Iterations 438
linear solve p 1129255
time step continuity errors : sum local = 8.26468e-08, global = -7.60482e-21, cumulative = 5.75415e-21
[OGL LOG] init_host_sparsity_pattern : 387 ms
[OGL LOG] matrix not stored update host matrix
[OGL LOG] update_host_mtx : 199 ms
[OGL LOG] matrix is not yet sorted, sorting host matrix
[OGL LOG] sort_host_mtx_sparsity_pattern : 175 ms
[OGL LOG] sort_host_mtx : 112 ms
[OGL LOG] init_preconditioner : 0 ms
[OGL LOG] solve : 212 ms
nonehipGKOCG:  Solving for p, Initial residual = 0.639061, Final residual = 9.67404e-05, No Iterations 403
linear solve p 1119046
time step continuity errors : sum local = 7.92546e-08, global = -1.01719e-21, cumulative = 4.73696e-21
ExecutionTime = 28.3 s  ClockTime = 26 s

Time = 0.005

Courant Number mean: 0.105259 max: 0.889662
DILUPBiCGStab:  Solving for Ux, Initial residual = 0.0274666, Final residual = 0.000432737, No Iterations 5
DILUPBiCGStab:  Solving for Uy, Initial residual = 0.081214, Final residual = 0.00141311, No Iterations 5
DILUPBiCGStab:  Solving for Uz, Initial residual = 0.484218, Final residual = 0.00623558, No Iterations 5
linear solve U 695408
[OGL LOG] init_host_sparsity_pattern : 386 ms
[OGL LOG] matrix not stored update host matrix
[OGL LOG] update_host_mtx : 198 ms
[OGL LOG] matrix is not yet sorted, sorting host matrix
[OGL LOG] sort_host_mtx_sparsity_pattern : 173 ms
[OGL LOG] sort_host_mtx : 109 ms
[OGL LOG] init_preconditioner : 0 ms
[OGL LOG] solve : 212 ms
nonehipGKOCG:  Solving for p, Initial residual = 0.699288, Final residual = 9.9611e-05, No Iterations 395
linear solve p 1114039
time step continuity errors : sum local = 7.0066e-08, global = -1.94817e-20, cumulative = -1.47448e-20
[OGL LOG] init_host_sparsity_pattern : 387 ms
[OGL LOG] matrix not stored update host matrix
[OGL LOG] update_host_mtx : 201 ms
[OGL LOG] matrix is not yet sorted, sorting host matrix
[OGL LOG] sort_host_mtx_sparsity_pattern : 170 ms
[OGL LOG] sort_host_mtx : 107 ms
[OGL LOG] init_preconditioner : 0 ms
[OGL LOG] solve : 206 ms
nonehipGKOCG:  Solving for p, Initial residual = 0.648227, Final residual = 9.85465e-05, No Iterations 387
linear solve p 1107838
time step continuity errors : sum local = 6.47053e-08, global = 9.78917e-21, cumulative = -4.95558e-21
ExecutionTime = 31.93 s  ClockTime = 30 s

Time = 0.006

Courant Number mean: 0.113391 max: 0.895056
DILUPBiCGStab:  Solving for Ux, Initial residual = 0.0177921, Final residual = 0.000284109, No Iterations 5
DILUPBiCGStab:  Solving for Uy, Initial residual = 0.0672164, Final residual = 0.00104597, No Iterations 5
DILUPBiCGStab:  Solving for Uz, Initial residual = 0.346893, Final residual = 0.00452796, No Iterations 5
linear solve U 691920
[OGL LOG] init_host_sparsity_pattern : 386 ms
[OGL LOG] matrix not stored update host matrix
[OGL LOG] update_host_mtx : 205 ms
[OGL LOG] matrix is not yet sorted, sorting host matrix
[OGL LOG] sort_host_mtx_sparsity_pattern : 171 ms
[OGL LOG] sort_host_mtx : 110 ms
[OGL LOG] init_preconditioner : 0 ms
[OGL LOG] solve : 205 ms
nonehipGKOCG:  Solving for p, Initial residual = 0.58199, Final residual = 9.62941e-05, No Iterations 387
linear solve p 1114945
time step continuity errors : sum local = 5.87248e-08, global = -5.02939e-21, cumulative = -9.98498e-21
[OGL LOG] init_host_sparsity_pattern : 389 ms
[OGL LOG] matrix not stored update host matrix
[OGL LOG] update_host_mtx : 198 ms
[OGL LOG] matrix is not yet sorted, sorting host matrix
[OGL LOG] sort_host_mtx_sparsity_pattern : 180 ms
[OGL LOG] sort_host_mtx : 105 ms
[OGL LOG] init_preconditioner : 0 ms
[OGL LOG] solve : 205 ms
nonehipGKOCG:  Solving for p, Initial residual = 0.52332, Final residual = 9.70516e-05, No Iterations 384
linear solve p 1112435
time step continuity errors : sum local = 5.82308e-08, global = -1.41795e-20, cumulative = -2.41645e-20
ExecutionTime = 35.57 s  ClockTime = 33 s

Time = 0.007

Courant Number mean: 0.120594 max: 0.898295
DILUPBiCGStab:  Solving for Ux, Initial residual = 0.0152426, Final residual = 0.000219134, No Iterations 5
DILUPBiCGStab:  Solving for Uy, Initial residual = 0.0437744, Final residual = 0.000706505, No Iterations 5
DILUPBiCGStab:  Solving for Uz, Initial residual = 0.264215, Final residual = 0.00348842, No Iterations 5
linear solve U 695836
[OGL LOG] init_host_sparsity_pattern : 382 ms
[OGL LOG] matrix not stored update host matrix
[OGL LOG] update_host_mtx : 200 ms
[OGL LOG] matrix is not yet sorted, sorting host matrix
[OGL LOG] sort_host_mtx_sparsity_pattern : 180 ms
[OGL LOG] sort_host_mtx : 107 ms
[OGL LOG] init_preconditioner : 0 ms
[OGL LOG] solve : 378 ms
nonehipGKOCG:  Solving for p, Initial residual = 0.562281, Final residual = 9.91334e-05, No Iterations 725
linear solve p 1284558
time step continuity errors : sum local = 4.91635e-08, global = 2.36033e-21, cumulative = -2.18041e-20
[OGL LOG] init_host_sparsity_pattern : 388 ms
[OGL LOG] matrix not stored update host matrix
[OGL LOG] update_host_mtx : 190 ms
[OGL LOG] matrix is not yet sorted, sorting host matrix
[OGL LOG] sort_host_mtx_sparsity_pattern : 172 ms
[OGL LOG] sort_host_mtx : 105 ms
[OGL LOG] init_preconditioner : 0 ms
[OGL LOG] solve : 381 ms
nonehipGKOCG:  Solving for p, Initial residual = 0.504909, Final residual = 9.96103e-05, No Iterations 724
linear solve p 1272582
time step continuity errors : sum local = 4.9188e-08, global = 5.90124e-21, cumulative = -1.59029e-20
ExecutionTime = 39.77 s  ClockTime = 37 s

Time = 0.008

Courant Number mean: 0.126416 max: 0.902024
DILUPBiCGStab:  Solving for Ux, Initial residual = 0.0110599, Final residual = 0.00014948, No Iterations 5
DILUPBiCGStab:  Solving for Uy, Initial residual = 0.0374998, Final residual = 0.00054766, No Iterations 5
DILUPBiCGStab:  Solving for Uz, Initial residual = 0.197215, Final residual = 0.00262221, No Iterations 5
linear solve U 697157
[OGL LOG] init_host_sparsity_pattern : 378 ms
[OGL LOG] matrix not stored update host matrix
[OGL LOG] update_host_mtx : 190 ms
[OGL LOG] matrix is not yet sorted, sorting host matrix
[OGL LOG] sort_host_mtx_sparsity_pattern : 176 ms
[OGL LOG] sort_host_mtx : 108 ms
[OGL LOG] init_preconditioner : 0 ms
[OGL LOG] solve : 190 ms
nonehipGKOCG:  Solving for p, Initial residual = 0.459242, Final residual = 9.84079e-05, No Iterations 359
linear solve p 1078669
time step continuity errors : sum local = 4.7946e-08, global = 2.61813e-21, cumulative = -1.32848e-20
[OGL LOG] init_host_sparsity_pattern : 387 ms
[OGL LOG] matrix not stored update host matrix
[OGL LOG] update_host_mtx : 198 ms
[OGL LOG] matrix is not yet sorted, sorting host matrix
[OGL LOG] sort_host_mtx_sparsity_pattern : 167 ms
[OGL LOG] sort_host_mtx : 110 ms
[OGL LOG] init_preconditioner : 0 ms
[OGL LOG] solve : 183 ms
nonehipGKOCG:  Solving for p, Initial residual = 0.40697, Final residual = 9.95373e-05, No Iterations 345
linear solve p 1081867
time step continuity errors : sum local = 4.79834e-08, global = 1.49481e-20, cumulative = 1.66335e-21
ExecutionTime = 43.32 s  ClockTime = 40 s

Time = 0.009

Courant Number mean: 0.131553 max: 0.903729
DILUPBiCGStab:  Solving for Ux, Initial residual = 0.00964989, Final residual = 0.000116434, No Iterations 5
DILUPBiCGStab:  Solving for Uy, Initial residual = 0.0273321, Final residual = 0.000335214, No Iterations 5
DILUPBiCGStab:  Solving for Uz, Initial residual = 0.147628, Final residual = 0.00216098, No Iterations 5
linear solve U 696445
[OGL LOG] init_host_sparsity_pattern : 385 ms
[OGL LOG] matrix not stored update host matrix
[OGL LOG] update_host_mtx : 201 ms
[OGL LOG] matrix is not yet sorted, sorting host matrix
[OGL LOG] sort_host_mtx_sparsity_pattern : 167 ms
[OGL LOG] sort_host_mtx : 109 ms
[OGL LOG] init_preconditioner : 0 ms
[OGL LOG] solve : 189 ms
nonehipGKOCG:  Solving for p, Initial residual = 0.428007, Final residual = 9.99248e-05, No Iterations 361
linear solve p 1087088
time step continuity errors : sum local = 4.70955e-08, global = 2.19759e-20, cumulative = 2.36393e-20
[OGL LOG] init_host_sparsity_pattern : 387 ms
[OGL LOG] matrix not stored update host matrix
[OGL LOG] update_host_mtx : 197 ms
[OGL LOG] matrix is not yet sorted, sorting host matrix
[OGL LOG] sort_host_mtx_sparsity_pattern : 170 ms
[OGL LOG] sort_host_mtx : 107 ms
[OGL LOG] init_preconditioner : 0 ms
[OGL LOG] solve : 183 ms
nonehipGKOCG:  Solving for p, Initial residual = 0.375849, Final residual = 9.64781e-05, No Iterations 341
linear solve p 1079466
time step continuity errors : sum local = 4.19032e-08, global = -1.46036e-20, cumulative = 9.03565e-21
ExecutionTime = 46.87 s  ClockTime = 43 s

Time = 0.01

Courant Number mean: 0.135966 max: 0.906069
DILUPBiCGStab:  Solving for Ux, Initial residual = 0.00755094, Final residual = 8.36522e-05, No Iterations 5
DILUPBiCGStab:  Solving for Uy, Initial residual = 0.0238494, Final residual = 0.000280384, No Iterations 5
DILUPBiCGStab:  Solving for Uz, Initial residual = 0.116256, Final residual = 0.00174172, No Iterations 5
linear solve U 700057
[OGL LOG] init_host_sparsity_pattern : 386 ms
[OGL LOG] matrix not stored update host matrix
[OGL LOG] update_host_mtx : 193 ms
[OGL LOG] matrix is not yet sorted, sorting host matrix
[OGL LOG] sort_host_mtx_sparsity_pattern : 167 ms
[OGL LOG] sort_host_mtx : 109 ms
[OGL LOG] init_preconditioner : 0 ms
[OGL LOG] solve : 372 ms
nonehipGKOCG:  Solving for p, Initial residual = 0.351158, Final residual = 9.92688e-05, No Iterations 715
linear solve p 1264223
time step continuity errors : sum local = 4.07034e-08, global = -2.60873e-21, cumulative = 6.42692e-21
[OGL LOG] init_host_sparsity_pattern : 387 ms
[OGL LOG] matrix not stored update host matrix
[OGL LOG] update_host_mtx : 192 ms
[OGL LOG] matrix is not yet sorted, sorting host matrix
[OGL LOG] sort_host_mtx_sparsity_pattern : 175 ms
[OGL LOG] sort_host_mtx : 107 ms
[OGL LOG] init_preconditioner : 0 ms
[OGL LOG] solve : 374 ms
nonehipGKOCG:  Solving for p, Initial residual = 0.307709, Final residual = 9.93549e-05, No Iterations 713
linear solve p 1270548
time step continuity errors : sum local = 4.05808e-08, global = -6.09625e-22, cumulative = 5.81729e-21
ExecutionTime = 51.05 s  ClockTime = 47 s

End

