/*---------------------------------------------------------------------------*\
  =========                 |
  \\      /  F ield         | OpenFOAM: The Open Source CFD Toolbox
   \\    /   O peration     | Website:  https://openfoam.org
    \\  /    A nd           | Version:  8
     \\/     M anipulation  |
\*---------------------------------------------------------------------------*/
Build  : 8-ef60d22ea792
Exec   : icoFoam
Date   : Jul 29 2021
Time   : 07:24:37
Host   : "nla-gpu2.ianm.kit.edu"
PID    : 1951811
I/O    : uncollated
Case   : /home/greole/code/OBR/lidDrivenCavity3D/Variation_mesh/20/Variation_matrix_solver/CG_NoPrecond_Serial/base
nProcs : 1
sigFpe : Enabling floating point exception trapping (FOAM_SIGFPE).
fileModificationChecking : Monitoring run-time modified files using timeStampMaster (fileModificationSkew 10)
allowSystemOperations : Allowing user-supplied system call operations

// * * * * * * * * * * * * * * * * * * * * * * * * * * * * * * * * * * * * * //
Create time

Create mesh for time = 0

Reading transportProperties

Reading field p

Reading field U

Reading/calculating face flux field phi


Starting time loop

Time = 0.001

Courant Number mean: 0 max: 0
DILUPBiCGStab:  Solving for Ux, Initial residual = 1, Final residual = 1.12203e-10, No Iterations 5
DILUPBiCGStab:  Solving for Uy:  solution singularity
DILUPBiCGStab:  Solving for Uz:  solution singularity
linear solve U 3078
nonePCG:  Solving for p, Initial residual = 1, Final residual = 7.43917e-05, No Iterations 152
linear solve p 12023
time step continuity errors : sum local = 3.55241e-08, global = 5.48351e-21, cumulative = 5.48351e-21
nonePCG:  Solving for p, Initial residual = 0.411873, Final residual = 8.96544e-05, No Iterations 146
linear solve p 11414
time step continuity errors : sum local = 7.17258e-08, global = -1.44901e-21, cumulative = 4.0345e-21
ExecutionTime = 0.13 s  ClockTime = 0 s

Time = 0.002

Courant Number mean: 0.00876191 max: 0.0682839
DILUPBiCGStab:  Solving for Ux, Initial residual = 0.225322, Final residual = 1.40293e-11, No Iterations 5
DILUPBiCGStab:  Solving for Uy, Initial residual = 0.289647, Final residual = 1.19241e-11, No Iterations 5
DILUPBiCGStab:  Solving for Uz, Initial residual = 0.825355, Final residual = 4.36315e-11, No Iterations 5
linear solve U 5349
nonePCG:  Solving for p, Initial residual = 0.212753, Final residual = 9.78011e-05, No Iterations 142
linear solve p 11043
time step continuity errors : sum local = 7.39806e-08, global = -5.2102e-22, cumulative = 3.51348e-21
nonePCG:  Solving for p, Initial residual = 0.123057, Final residual = 9.99292e-05, No Iterations 137
linear solve p 10678
time step continuity errors : sum local = 8.08172e-08, global = -1.0351e-20, cumulative = -6.83755e-21
ExecutionTime = 0.16 s  ClockTime = 0 s

Time = 0.003

Courant Number mean: 0.0142441 max: 0.104362
DILUPBiCGStab:  Solving for Ux, Initial residual = 0.102611, Final residual = 5.81881e-12, No Iterations 5
DILUPBiCGStab:  Solving for Uy, Initial residual = 0.135068, Final residual = 5.20353e-12, No Iterations 5
DILUPBiCGStab:  Solving for Uz, Initial residual = 0.293419, Final residual = 1.39851e-11, No Iterations 5
linear solve U 5076
nonePCG:  Solving for p, Initial residual = 0.0914604, Final residual = 9.69806e-05, No Iterations 136
linear solve p 10825
time step continuity errors : sum local = 7.78853e-08, global = 1.53554e-20, cumulative = 8.51781e-21
nonePCG:  Solving for p, Initial residual = 0.0549067, Final residual = 9.79144e-05, No Iterations 132
linear solve p 11292
time step continuity errors : sum local = 8.15159e-08, global = 1.3359e-21, cumulative = 9.85371e-21
ExecutionTime = 0.19 s  ClockTime = 0 s

Time = 0.004

Courant Number mean: 0.0178686 max: 0.123853
DILUPBiCGStab:  Solving for Ux, Initial residual = 0.0604262, Final residual = 2.83778e-12, No Iterations 5
DILUPBiCGStab:  Solving for Uy, Initial residual = 0.0809459, Final residual = 2.51627e-12, No Iterations 5
DILUPBiCGStab:  Solving for Uz, Initial residual = 0.154251, Final residual = 6.08133e-12, No Iterations 5
linear solve U 5132
nonePCG:  Solving for p, Initial residual = 0.0542905, Final residual = 9.24323e-05, No Iterations 134
linear solve p 10420
time step continuity errors : sum local = 7.76959e-08, global = 1.10122e-20, cumulative = 2.08659e-20
nonePCG:  Solving for p, Initial residual = 0.0314063, Final residual = 8.23995e-05, No Iterations 130
linear solve p 10127
time step continuity errors : sum local = 7.10375e-08, global = -2.93564e-20, cumulative = -8.49057e-21
ExecutionTime = 0.21 s  ClockTime = 0 s

Time = 0.005

Courant Number mean: 0.0204635 max: 0.135215
DILUPBiCGStab:  Solving for Ux, Initial residual = 0.0403981, Final residual = 1.5989e-12, No Iterations 5
DILUPBiCGStab:  Solving for Uy, Initial residual = 0.0549633, Final residual = 1.29631e-12, No Iterations 5
DILUPBiCGStab:  Solving for Uz, Initial residual = 0.106655, Final residual = 3.64044e-12, No Iterations 5
linear solve U 5183
nonePCG:  Solving for p, Initial residual = 0.0356772, Final residual = 8.81914e-05, No Iterations 132
linear solve p 10284
time step continuity errors : sum local = 7.69669e-08, global = -4.00965e-21, cumulative = -1.25002e-20
nonePCG:  Solving for p, Initial residual = 0.0201443, Final residual = 7.44711e-05, No Iterations 129
linear solve p 10046
time step continuity errors : sum local = 6.6087e-08, global = -6.64614e-21, cumulative = -1.91464e-20
ExecutionTime = 0.24 s  ClockTime = 1 s

Time = 0.006

Courant Number mean: 0.0225084 max: 0.142365
DILUPBiCGStab:  Solving for Ux, Initial residual = 0.0295656, Final residual = 1.18814e-12, No Iterations 5
DILUPBiCGStab:  Solving for Uy, Initial residual = 0.0406127, Final residual = 8.47494e-13, No Iterations 5
DILUPBiCGStab:  Solving for Uz, Initial residual = 0.0811595, Final residual = 2.47887e-12, No Iterations 5
linear solve U 5213
nonePCG:  Solving for p, Initial residual = 0.025419, Final residual = 7.90197e-05, No Iterations 131
linear solve p 10210
time step continuity errors : sum local = 7.08152e-08, global = 1.12983e-21, cumulative = -1.80165e-20
nonePCG:  Solving for p, Initial residual = 0.0141151, Final residual = 8.07761e-05, No Iterations 128
linear solve p 10031
time step continuity errors : sum local = 7.32676e-08, global = -5.06529e-21, cumulative = -2.30818e-20
ExecutionTime = 0.27 s  ClockTime = 1 s

Time = 0.007

Courant Number mean: 0.0241614 max: 0.147196
DILUPBiCGStab:  Solving for Ux, Initial residual = 0.0229935, Final residual = 6.69589e-13, No Iterations 5
DILUPBiCGStab:  Solving for Uy, Initial residual = 0.0317461, Final residual = 6.50416e-13, No Iterations 5
DILUPBiCGStab:  Solving for Uz, Initial residual = 0.0648877, Final residual = 1.81081e-12, No Iterations 5
linear solve U 5090
nonePCG:  Solving for p, Initial residual = 0.0186459, Final residual = 8.68093e-05, No Iterations 130
linear solve p 10126
time step continuity errors : sum local = 7.92776e-08, global = -1.12183e-20, cumulative = -3.43002e-20
nonePCG:  Solving for p, Initial residual = 0.0104051, Final residual = 9.67071e-05, No Iterations 55
linear solve p 4376
time step continuity errors : sum local = 1.10096e-07, global = 3.84882e-20, cumulative = 4.18809e-21
ExecutionTime = 0.29 s  ClockTime = 1 s

Time = 0.008

Courant Number mean: 0.0255322 max: 0.150665
DILUPBiCGStab:  Solving for Ux, Initial residual = 0.018484, Final residual = 3.54299e-13, No Iterations 5
DILUPBiCGStab:  Solving for Uy, Initial residual = 0.0258052, Final residual = 5.05979e-13, No Iterations 5
DILUPBiCGStab:  Solving for Uz, Initial residual = 0.0535633, Final residual = 1.46432e-12, No Iterations 5
linear solve U 5201
nonePCG:  Solving for p, Initial residual = 0.0148389, Final residual = 9.28534e-05, No Iterations 58
linear solve p 4603
time step continuity errors : sum local = 9.58791e-08, global = -2.90144e-20, cumulative = -2.48263e-20
nonePCG:  Solving for p, Initial residual = 0.00837142, Final residual = 9.34489e-05, No Iterations 54
linear solve p 4304
time step continuity errors : sum local = 1.056e-07, global = -6.60597e-21, cumulative = -3.14323e-20
ExecutionTime = 0.31 s  ClockTime = 1 s

Time = 0.009

Courant Number mean: 0.0266823 max: 0.153283
DILUPBiCGStab:  Solving for Ux, Initial residual = 0.0152523, Final residual = 2.01927e-13, No Iterations 5
DILUPBiCGStab:  Solving for Uy, Initial residual = 0.0215441, Final residual = 3.95835e-13, No Iterations 5
DILUPBiCGStab:  Solving for Uz, Initial residual = 0.0450839, Final residual = 1.09285e-12, No Iterations 5
linear solve U 5193
nonePCG:  Solving for p, Initial residual = 0.0119868, Final residual = 9.40831e-05, No Iterations 56
linear solve p 4498
time step continuity errors : sum local = 8.90429e-08, global = 2.60289e-20, cumulative = -5.40338e-21
nonePCG:  Solving for p, Initial residual = 0.00686814, Final residual = 8.48055e-05, No Iterations 53
linear solve p 4211
time step continuity errors : sum local = 8.98962e-08, global = -1.14988e-20, cumulative = -1.69022e-20
ExecutionTime = 0.33 s  ClockTime = 1 s

Time = 0.01

Courant Number mean: 0.0276669 max: 0.155336
DILUPBiCGStab:  Solving for Ux, Initial residual = 0.0129088, Final residual = 1.30914e-13, No Iterations 5
DILUPBiCGStab:  Solving for Uy, Initial residual = 0.0183567, Final residual = 3.10561e-13, No Iterations 5
DILUPBiCGStab:  Solving for Uz, Initial residual = 0.0386659, Final residual = 8.81175e-13, No Iterations 5
linear solve U 5168
nonePCG:  Solving for p, Initial residual = 0.0099645, Final residual = 9.71104e-05, No Iterations 55
linear solve p 4372
time step continuity errors : sum local = 9.65733e-08, global = 3.26426e-21, cumulative = -1.36379e-20
nonePCG:  Solving for p, Initial residual = 0.00578738, Final residual = 9.67463e-05, No Iterations 51
linear solve p 4072
time step continuity errors : sum local = 9.42333e-08, global = 2.39727e-20, cumulative = 1.03348e-20
ExecutionTime = 0.34 s  ClockTime = 1 s

End

