/*---------------------------------------------------------------------------*\
  =========                 |
  \\      /  F ield         | OpenFOAM: The Open Source CFD Toolbox
   \\    /   O peration     | Website:  https://openfoam.org
    \\  /    A nd           | Version:  8
     \\/     M anipulation  |
\*---------------------------------------------------------------------------*/
Build  : 8-14d69e1ee166
Exec   : icoFoam
Date   : Jul 28 2021
Time   : 16:22:37
Host   : "guyot.icl.utk.edu"
PID    : 18518
I/O    : uncollated
Case   : /home/greole/code/OBR/lidDrivenCavity3D/Variation_mesh/60/Variation_matrix_solver/BiCGStab_DIC_Serial/base
nProcs : 1
sigFpe : Enabling floating point exception trapping (FOAM_SIGFPE).
fileModificationChecking : Monitoring run-time modified files using timeStampMaster (fileModificationSkew 10)
allowSystemOperations : Allowing user-supplied system call operations

// * * * * * * * * * * * * * * * * * * * * * * * * * * * * * * * * * * * * * //
Create time

Create mesh for time = 0

Reading transportProperties

Reading field p

Reading field U

Reading/calculating face flux field phi


Starting time loop

Time = 0.001

Courant Number mean: 0 max: 0
DILUPBiCGStab:  Solving for Ux, Initial residual = 1, Final residual = 0.000527977, No Iterations 5
DILUPBiCGStab:  Solving for Uy:  solution singularity
DILUPBiCGStab:  Solving for Uz:  solution singularity
linear solve U 83957
DICPBiCGStab:  Solving for p, Initial residual = 1, Final residual = 8.41289e-05, No Iterations 110
linear solve p 964277
time step continuity errors : sum local = 4.92927e-08, global = 1.56161e-21, cumulative = 1.56161e-21
DICPBiCGStab:  Solving for p, Initial residual = 0.695549, Final residual = 7.07664e-05, No Iterations 108
linear solve p 947909
time step continuity errors : sum local = 6.54948e-08, global = -2.62281e-21, cumulative = -1.0612e-21
ExecutionTime = 3.02 s  ClockTime = 3 s

Time = 0.002

Courant Number mean: 0.0335 max: 0.423483
DILUPBiCGStab:  Solving for Ux, Initial residual = 0.157969, Final residual = 0.000145593, No Iterations 5
DILUPBiCGStab:  Solving for Uy, Initial residual = 0.33908, Final residual = 0.000249785, No Iterations 5
DILUPBiCGStab:  Solving for Uz, Initial residual = 0.978512, Final residual = 0.000938295, No Iterations 5
linear solve U 157492
DICPBiCGStab:  Solving for p, Initial residual = 0.615318, Final residual = 7.04288e-05, No Iterations 104
linear solve p 904856
time step continuity errors : sum local = 1.06687e-07, global = 4.6529e-21, cumulative = 3.59171e-21
DICPBiCGStab:  Solving for p, Initial residual = 0.53516, Final residual = 8.05668e-05, No Iterations 105
linear solve p 907942
time step continuity errors : sum local = 1.12866e-07, global = -1.12648e-20, cumulative = -7.67308e-21
ExecutionTime = 5.07 s  ClockTime = 5 s

Time = 0.003

Courant Number mean: 0.0502973 max: 0.512868
DILUPBiCGStab:  Solving for Ux, Initial residual = 0.0504892, Final residual = 3.33726e-05, No Iterations 5
DILUPBiCGStab:  Solving for Uy, Initial residual = 0.10318, Final residual = 6.93821e-05, No Iterations 5
DILUPBiCGStab:  Solving for Uz, Initial residual = 0.282192, Final residual = 0.000252431, No Iterations 5
linear solve U 155554
DICPBiCGStab:  Solving for p, Initial residual = 0.472542, Final residual = 7.27613e-05, No Iterations 52
linear solve p 446755
time step continuity errors : sum local = 5.04603e-08, global = 1.90029e-21, cumulative = -5.77278e-21
DICPBiCGStab:  Solving for p, Initial residual = 0.416569, Final residual = 9.6612e-05, No Iterations 49
linear solve p 425786
time step continuity errors : sum local = 8.69871e-08, global = -7.80251e-21, cumulative = -1.35753e-20
ExecutionTime = 6.18 s  ClockTime = 6 s

Time = 0.004

Courant Number mean: 0.0595683 max: 0.529591
DILUPBiCGStab:  Solving for Ux, Initial residual = 0.0298399, Final residual = 2.0079e-05, No Iterations 5
DILUPBiCGStab:  Solving for Uy, Initial residual = 0.0673562, Final residual = 2.38911e-05, No Iterations 5
DILUPBiCGStab:  Solving for Uz, Initial residual = 0.172539, Final residual = 0.000117166, No Iterations 5
linear solve U 157155
DICPBiCGStab:  Solving for p, Initial residual = 0.252028, Final residual = 9.785e-05, No Iterations 50
linear solve p 432784
time step continuity errors : sum local = 1.01676e-07, global = -1.78616e-20, cumulative = -3.14369e-20
DICPBiCGStab:  Solving for p, Initial residual = 0.205526, Final residual = 9.88282e-05, No Iterations 45
linear solve p 393911
time step continuity errors : sum local = 9.56588e-08, global = 1.2104e-20, cumulative = -1.93329e-20
ExecutionTime = 7.25 s  ClockTime = 7 s

Time = 0.005

Courant Number mean: 0.0665841 max: 0.539166
DILUPBiCGStab:  Solving for Ux, Initial residual = 0.0210719, Final residual = 6.94148e-06, No Iterations 5
DILUPBiCGStab:  Solving for Uy, Initial residual = 0.0441765, Final residual = 1.76651e-05, No Iterations 5
DILUPBiCGStab:  Solving for Uz, Initial residual = 0.0761574, Final residual = 4.85942e-05, No Iterations 5
linear solve U 157018
DICPBiCGStab:  Solving for p, Initial residual = 0.153557, Final residual = 7.49202e-05, No Iterations 44
linear solve p 384279
time step continuity errors : sum local = 4.77725e-08, global = -1.16339e-21, cumulative = -2.04963e-20
DICPBiCGStab:  Solving for p, Initial residual = 0.127103, Final residual = 8.24337e-05, No Iterations 42
linear solve p 364596
time step continuity errors : sum local = 7.03442e-08, global = -1.42154e-21, cumulative = -2.19179e-20
ExecutionTime = 8.24 s  ClockTime = 8 s

Time = 0.006

Courant Number mean: 0.0720433 max: 0.544952
DILUPBiCGStab:  Solving for Ux, Initial residual = 0.0158948, Final residual = 7.35906e-06, No Iterations 5
DILUPBiCGStab:  Solving for Uy, Initial residual = 0.0339082, Final residual = 6.40497e-06, No Iterations 5
DILUPBiCGStab:  Solving for Uz, Initial residual = 0.0647215, Final residual = 3.22888e-05, No Iterations 5
linear solve U 163341
DICPBiCGStab:  Solving for p, Initial residual = 0.0907341, Final residual = 9.52414e-05, No Iterations 103
linear solve p 887374
time step continuity errors : sum local = 8.39233e-08, global = -8.25435e-21, cumulative = -3.01722e-20
DICPBiCGStab:  Solving for p, Initial residual = 0.0742159, Final residual = 9.75489e-05, No Iterations 127
linear solve p 1094695
time step continuity errors : sum local = 9.15079e-08, global = -2.18578e-21, cumulative = -3.2358e-20
ExecutionTime = 10.47 s  ClockTime = 10 s

Time = 0.007

Courant Number mean: 0.076497 max: 0.548949
DILUPBiCGStab:  Solving for Ux, Initial residual = 0.0127309, Final residual = 2.33505e-06, No Iterations 5
DILUPBiCGStab:  Solving for Uy, Initial residual = 0.0269279, Final residual = 6.61751e-06, No Iterations 5
DILUPBiCGStab:  Solving for Uz, Initial residual = 0.051789, Final residual = 2.34439e-05, No Iterations 5
linear solve U 158128
DICPBiCGStab:  Solving for p, Initial residual = 0.057759, Final residual = 9.80666e-05, No Iterations 88
linear solve p 760495
time step continuity errors : sum local = 8.41706e-08, global = -1.13861e-20, cumulative = -4.37441e-20
DICPBiCGStab:  Solving for p, Initial residual = 0.0480914, Final residual = 9.98329e-05, No Iterations 42
linear solve p 373429
time step continuity errors : sum local = 5.49742e-08, global = -3.59478e-20, cumulative = -7.96919e-20
ExecutionTime = 11.85 s  ClockTime = 12 s

Time = 0.008

Courant Number mean: 0.0802505 max: 0.551947
DILUPBiCGStab:  Solving for Ux, Initial residual = 0.010423, Final residual = 1.8471e-06, No Iterations 5
DILUPBiCGStab:  Solving for Uy, Initial residual = 0.0224278, Final residual = 2.3117e-06, No Iterations 5
DILUPBiCGStab:  Solving for Uz, Initial residual = 0.0466521, Final residual = 2.57983e-05, No Iterations 5
linear solve U 156191
DICPBiCGStab:  Solving for p, Initial residual = 0.0396228, Final residual = 9.84119e-05, No Iterations 46
linear solve p 399581
time step continuity errors : sum local = 8.77362e-08, global = 2.01667e-21, cumulative = -7.76752e-20
DICPBiCGStab:  Solving for p, Initial residual = 0.0334097, Final residual = 9.95384e-05, No Iterations 40
linear solve p 344007
time step continuity errors : sum local = 6.14189e-08, global = -4.36316e-21, cumulative = -8.20383e-20
ExecutionTime = 12.84 s  ClockTime = 13 s

Time = 0.009

Courant Number mean: 0.0834507 max: 0.554257
DILUPBiCGStab:  Solving for Ux, Initial residual = 0.00880094, Final residual = 9.4174e-07, No Iterations 5
DILUPBiCGStab:  Solving for Uy, Initial residual = 0.0189072, Final residual = 3.23045e-06, No Iterations 5
DILUPBiCGStab:  Solving for Uz, Initial residual = 0.0414932, Final residual = 2.01526e-05, No Iterations 5
linear solve U 158456
DICPBiCGStab:  Solving for p, Initial residual = 0.0289158, Final residual = 8.96225e-05, No Iterations 42
linear solve p 365917
time step continuity errors : sum local = 7.78405e-08, global = 5.16271e-22, cumulative = -8.15221e-20
DICPBiCGStab:  Solving for p, Initial residual = 0.0251139, Final residual = 9.97117e-05, No Iterations 40
linear solve p 355237
time step continuity errors : sum local = 5.27541e-08, global = -2.7151e-20, cumulative = -1.08673e-19
ExecutionTime = 13.8 s  ClockTime = 14 s

Time = 0.01

Courant Number mean: 0.0862271 max: 0.556112
DILUPBiCGStab:  Solving for Ux, Initial residual = 0.00748086, Final residual = 9.25662e-07, No Iterations 5
DILUPBiCGStab:  Solving for Uy, Initial residual = 0.0164224, Final residual = 1.53031e-06, No Iterations 5
DILUPBiCGStab:  Solving for Uz, Initial residual = 0.0353542, Final residual = 1.75585e-05, No Iterations 5
linear solve U 156079
DICPBiCGStab:  Solving for p, Initial residual = 0.0221727, Final residual = 9.78756e-05, No Iterations 44
linear solve p 381914
time step continuity errors : sum local = 8.79318e-08, global = 1.74661e-20, cumulative = -9.1207e-20
DICPBiCGStab:  Solving for p, Initial residual = 0.0195941, Final residual = 8.01396e-05, No Iterations 39
linear solve p 335814
time step continuity errors : sum local = 5.19767e-08, global = -2.44639e-20, cumulative = -1.15671e-19
ExecutionTime = 14.76 s  ClockTime = 15 s

End

