/*---------------------------------------------------------------------------*\
  =========                 |
  \\      /  F ield         | OpenFOAM: The Open Source CFD Toolbox
   \\    /   O peration     | Website:  https://openfoam.org
    \\  /    A nd           | Version:  8
     \\/     M anipulation  |
\*---------------------------------------------------------------------------*/
Build  : 8-ef60d22ea792
Exec   : icoFoam
Date   : Jul 29 2021
Time   : 02:25:30
Host   : "uc2n489.localdomain"
PID    : 3405100
I/O    : uncollated
Case   : /pfs/data5/home/kit/scc/nq7776/code/OBR/lidDrivenCavity3D/Variation_mesh/15/Variation_matrix_solver/CG_NoPrecond_CUDA/base
nProcs : 1
sigFpe : Enabling floating point exception trapping (FOAM_SIGFPE).
fileModificationChecking : Monitoring run-time modified files using timeStampMaster (fileModificationSkew 10)
allowSystemOperations : Allowing user-supplied system call operations

// * * * * * * * * * * * * * * * * * * * * * * * * * * * * * * * * * * * * * //
Create time

Create mesh for time = 0

Reading transportProperties

Reading field p

Reading field U

Reading/calculating face flux field phi


Starting time loop

Time = 0.001

Courant Number mean: 0 max: 0
DILUPBiCGStab:  Solving for Ux, Initial residual = 1, Final residual = 1.1028e-13, No Iterations 5
DILUPBiCGStab:  Solving for Uy:  solution singularity
DILUPBiCGStab:  Solving for Uz:  solution singularity
linear solve U 1232
[OGL LOG] init_host_sparsity_pattern : 0 ms
[OGL LOG] matrix not stored update host matrix
[OGL LOG] update_host_mtx : 0 ms
[OGL LOG] matrix is not yet sorted, compute sorting idxs
[OGL LOG] compute_sort : 20 ms
[OGL LOG] matrix is not yet sorted, sorting host matrix
[OGL LOG] sort_host_mtx_sparsity_pattern : 0 ms
[OGL LOG] sort_host_mtx : 0 ms
[OGL LOG] init_preconditioner : 0 ms
[OGL LOG] solve : 17 ms
nonecudaGKOCG:  Solving for p, Initial residual = 1, Final residual = 7.86493e-05, No Iterations 111
linear solve p 763006
time step continuity errors : sum local = 3.30156e-08, global = 7.88768e-22, cumulative = 7.88768e-22
[OGL LOG] init_host_sparsity_pattern : 0 ms
[OGL LOG] matrix not stored update host matrix
[OGL LOG] update_host_mtx : 0 ms
[OGL LOG] matrix is not yet sorted, sorting host matrix
[OGL LOG] sort_host_mtx_sparsity_pattern : 0 ms
[OGL LOG] sort_host_mtx : 0 ms
[OGL LOG] init_preconditioner : 0 ms
[OGL LOG] solve : 15 ms
nonecudaGKOCG:  Solving for p, Initial residual = 0.316802, Final residual = 9.21898e-05, No Iterations 105
linear solve p 18477
time step continuity errors : sum local = 6.77707e-08, global = -1.20285e-20, cumulative = -1.12397e-20
ExecutionTime = 0.82 s  ClockTime = 1 s

Time = 0.002

Courant Number mean: 0.0055944 max: 0.0357002
DILUPBiCGStab:  Solving for Ux, Initial residual = 0.242392, Final residual = 1.13973e-14, No Iterations 5
DILUPBiCGStab:  Solving for Uy, Initial residual = 0.296209, Final residual = 1.1243e-14, No Iterations 5
DILUPBiCGStab:  Solving for Uz, Initial residual = 0.685355, Final residual = 3.43272e-14, No Iterations 5
linear solve U 1866
[OGL LOG] init_host_sparsity_pattern : 0 ms
[OGL LOG] matrix not stored update host matrix
[OGL LOG] update_host_mtx : 0 ms
[OGL LOG] matrix is not yet sorted, sorting host matrix
[OGL LOG] sort_host_mtx_sparsity_pattern : 0 ms
[OGL LOG] sort_host_mtx : 0 ms
[OGL LOG] init_preconditioner : 0 ms
[OGL LOG] solve : 15 ms
nonecudaGKOCG:  Solving for p, Initial residual = 0.156983, Final residual = 8.61734e-05, No Iterations 102
linear solve p 17917
time step continuity errors : sum local = 6.18294e-08, global = -6.09715e-21, cumulative = -1.73369e-20
[OGL LOG] init_host_sparsity_pattern : 0 ms
[OGL LOG] matrix not stored update host matrix
[OGL LOG] update_host_mtx : 0 ms
[OGL LOG] matrix is not yet sorted, sorting host matrix
[OGL LOG] sort_host_mtx_sparsity_pattern : 0 ms
[OGL LOG] sort_host_mtx : 0 ms
[OGL LOG] init_preconditioner : 0 ms
[OGL LOG] solve : 14 ms
nonecudaGKOCG:  Solving for p, Initial residual = 0.0605768, Final residual = 7.86458e-05, No Iterations 97
linear solve p 17162
time step continuity errors : sum local = 6.13387e-08, global = 1.16279e-20, cumulative = -5.70898e-21
ExecutionTime = 0.86 s  ClockTime = 1 s

Time = 0.003

Courant Number mean: 0.00940318 max: 0.0587296
DILUPBiCGStab:  Solving for Ux, Initial residual = 0.117973, Final residual = 5.3438e-15, No Iterations 5
DILUPBiCGStab:  Solving for Uy, Initial residual = 0.148717, Final residual = 5.34839e-15, No Iterations 5
DILUPBiCGStab:  Solving for Uz, Initial residual = 0.318995, Final residual = 1.46959e-14, No Iterations 5
linear solve U 1853
[OGL LOG] init_host_sparsity_pattern : 0 ms
[OGL LOG] matrix not stored update host matrix
[OGL LOG] update_host_mtx : 0 ms
[OGL LOG] matrix is not yet sorted, sorting host matrix
[OGL LOG] sort_host_mtx_sparsity_pattern : 0 ms
[OGL LOG] sort_host_mtx : 0 ms
[OGL LOG] init_preconditioner : 0 ms
[OGL LOG] solve : 14 ms
nonecudaGKOCG:  Solving for p, Initial residual = 0.0758742, Final residual = 7.60859e-05, No Iterations 99
linear solve p 17452
time step continuity errors : sum local = 6.10608e-08, global = 7.92542e-22, cumulative = -4.91644e-21
[OGL LOG] init_host_sparsity_pattern : 0 ms
[OGL LOG] matrix not stored update host matrix
[OGL LOG] update_host_mtx : 0 ms
[OGL LOG] matrix is not yet sorted, sorting host matrix
[OGL LOG] sort_host_mtx_sparsity_pattern : 0 ms
[OGL LOG] sort_host_mtx : 0 ms
[OGL LOG] init_preconditioner : 0 ms
[OGL LOG] solve : 14 ms
nonecudaGKOCG:  Solving for p, Initial residual = 0.0340604, Final residual = 9.33076e-05, No Iterations 95
linear solve p 16828
time step continuity errors : sum local = 7.82241e-08, global = -7.48423e-21, cumulative = -1.24007e-20
ExecutionTime = 0.89 s  ClockTime = 1 s

Time = 0.004

Courant Number mean: 0.0121906 max: 0.0737268
DILUPBiCGStab:  Solving for Ux, Initial residual = 0.0723349, Final residual = 2.98994e-15, No Iterations 5
DILUPBiCGStab:  Solving for Uy, Initial residual = 0.0916584, Final residual = 3.02127e-15, No Iterations 5
DILUPBiCGStab:  Solving for Uz, Initial residual = 0.18237, Final residual = 7.94726e-15, No Iterations 5
linear solve U 1857
[OGL LOG] init_host_sparsity_pattern : 0 ms
[OGL LOG] matrix not stored update host matrix
[OGL LOG] update_host_mtx : 0 ms
[OGL LOG] matrix is not yet sorted, sorting host matrix
[OGL LOG] sort_host_mtx_sparsity_pattern : 0 ms
[OGL LOG] sort_host_mtx : 0 ms
[OGL LOG] init_preconditioner : 0 ms
[OGL LOG] solve : 14 ms
nonecudaGKOCG:  Solving for p, Initial residual = 0.0491882, Final residual = 7.41712e-05, No Iterations 98
linear solve p 17275
time step continuity errors : sum local = 6.32728e-08, global = 1.59234e-20, cumulative = 3.52277e-21
[OGL LOG] init_host_sparsity_pattern : 0 ms
[OGL LOG] matrix not stored update host matrix
[OGL LOG] update_host_mtx : 0 ms
[OGL LOG] matrix is not yet sorted, sorting host matrix
[OGL LOG] sort_host_mtx_sparsity_pattern : 0 ms
[OGL LOG] sort_host_mtx : 0 ms
[OGL LOG] init_preconditioner : 0 ms
[OGL LOG] solve : 14 ms
nonecudaGKOCG:  Solving for p, Initial residual = 0.0220846, Final residual = 9.48722e-05, No Iterations 94
linear solve p 16783
time step continuity errors : sum local = 8.30204e-08, global = 2.00447e-20, cumulative = 2.35674e-20
ExecutionTime = 0.93 s  ClockTime = 1 s

Time = 0.005

Courant Number mean: 0.014306 max: 0.0838051
DILUPBiCGStab:  Solving for Ux, Initial residual = 0.0485641, Final residual = 1.79907e-15, No Iterations 5
DILUPBiCGStab:  Solving for Uy, Initial residual = 0.0627378, Final residual = 1.74762e-15, No Iterations 5
DILUPBiCGStab:  Solving for Uz, Initial residual = 0.129708, Final residual = 5.47689e-15, No Iterations 5
linear solve U 1922
[OGL LOG] init_host_sparsity_pattern : 0 ms
[OGL LOG] matrix not stored update host matrix
[OGL LOG] update_host_mtx : 0 ms
[OGL LOG] matrix is not yet sorted, sorting host matrix
[OGL LOG] sort_host_mtx_sparsity_pattern : 0 ms
[OGL LOG] sort_host_mtx : 0 ms
[OGL LOG] init_preconditioner : 0 ms
[OGL LOG] solve : 14 ms
nonecudaGKOCG:  Solving for p, Initial residual = 0.0359266, Final residual = 8.83181e-05, No Iterations 97
linear solve p 17117
time step continuity errors : sum local = 7.8312e-08, global = 2.55315e-20, cumulative = 4.9099e-20
[OGL LOG] init_host_sparsity_pattern : 0 ms
[OGL LOG] matrix not stored update host matrix
[OGL LOG] update_host_mtx : 0 ms
[OGL LOG] matrix is not yet sorted, sorting host matrix
[OGL LOG] sort_host_mtx_sparsity_pattern : 0 ms
[OGL LOG] sort_host_mtx : 0 ms
[OGL LOG] init_preconditioner : 0 ms
[OGL LOG] solve : 13 ms
nonecudaGKOCG:  Solving for p, Initial residual = 0.0152371, Final residual = 9.72466e-05, No Iterations 93
linear solve p 16684
time step continuity errors : sum local = 8.77685e-08, global = 3.69307e-20, cumulative = 8.60297e-20
ExecutionTime = 0.98 s  ClockTime = 1 s

Time = 0.006

Courant Number mean: 0.0159484 max: 0.0908032
DILUPBiCGStab:  Solving for Ux, Initial residual = 0.0353494, Final residual = 1.17443e-15, No Iterations 5
DILUPBiCGStab:  Solving for Uy, Initial residual = 0.0460978, Final residual = 1.06313e-15, No Iterations 5
DILUPBiCGStab:  Solving for Uz, Initial residual = 0.0994178, Final residual = 3.99472e-15, No Iterations 5
linear solve U 1843
[OGL LOG] init_host_sparsity_pattern : 0 ms
[OGL LOG] matrix not stored update host matrix
[OGL LOG] update_host_mtx : 0 ms
[OGL LOG] matrix is not yet sorted, sorting host matrix
[OGL LOG] sort_host_mtx_sparsity_pattern : 0 ms
[OGL LOG] sort_host_mtx : 0 ms
[OGL LOG] init_preconditioner : 0 ms
[OGL LOG] solve : 14 ms
nonecudaGKOCG:  Solving for p, Initial residual = 0.0288199, Final residual = 7.57236e-05, No Iterations 97
linear solve p 17364
time step continuity errors : sum local = 6.93591e-08, global = 3.88346e-20, cumulative = 1.24864e-19
[OGL LOG] init_host_sparsity_pattern : 0 ms
[OGL LOG] matrix not stored update host matrix
[OGL LOG] update_host_mtx : 0 ms
[OGL LOG] matrix is not yet sorted, sorting host matrix
[OGL LOG] sort_host_mtx_sparsity_pattern : 0 ms
[OGL LOG] sort_host_mtx : 0 ms
[OGL LOG] init_preconditioner : 0 ms
[OGL LOG] solve : 13 ms
nonecudaGKOCG:  Solving for p, Initial residual = 0.0110072, Final residual = 9.56884e-05, No Iterations 92
linear solve p 16334
time step continuity errors : sum local = 8.90373e-08, global = 3.79769e-21, cumulative = 1.28662e-19
ExecutionTime = 1.01 s  ClockTime = 1 s

Time = 0.007

Courant Number mean: 0.0172719 max: 0.0958251
DILUPBiCGStab:  Solving for Ux, Initial residual = 0.0271631, Final residual = 8.70861e-16, No Iterations 5
DILUPBiCGStab:  Solving for Uy, Initial residual = 0.0356267, Final residual = 7.40822e-16, No Iterations 5
DILUPBiCGStab:  Solving for Uz, Initial residual = 0.0794112, Final residual = 3.11964e-15, No Iterations 5
linear solve U 1844
[OGL LOG] init_host_sparsity_pattern : 0 ms
[OGL LOG] matrix not stored update host matrix
[OGL LOG] update_host_mtx : 0 ms
[OGL LOG] matrix is not yet sorted, sorting host matrix
[OGL LOG] sort_host_mtx_sparsity_pattern : 0 ms
[OGL LOG] sort_host_mtx : 0 ms
[OGL LOG] init_preconditioner : 0 ms
[OGL LOG] solve : 14 ms
nonecudaGKOCG:  Solving for p, Initial residual = 0.0217461, Final residual = 9.43026e-05, No Iterations 96
linear solve p 16993
time step continuity errors : sum local = 8.85337e-08, global = -4.84314e-21, cumulative = 1.23819e-19
[OGL LOG] init_host_sparsity_pattern : 0 ms
[OGL LOG] matrix not stored update host matrix
[OGL LOG] update_host_mtx : 0 ms
[OGL LOG] matrix is not yet sorted, sorting host matrix
[OGL LOG] sort_host_mtx_sparsity_pattern : 0 ms
[OGL LOG] sort_host_mtx : 0 ms
[OGL LOG] init_preconditioner : 0 ms
[OGL LOG] solve : 6 ms
nonecudaGKOCG:  Solving for p, Initial residual = 0.0086004, Final residual = 9.80958e-05, No Iterations 40
linear solve p 8970
time step continuity errors : sum local = 1.18745e-07, global = 2.14702e-20, cumulative = 1.45289e-19
ExecutionTime = 1.04 s  ClockTime = 1 s

Time = 0.008

Courant Number mean: 0.0183554 max: 0.0995502
DILUPBiCGStab:  Solving for Ux, Initial residual = 0.0216524, Final residual = 6.3904e-16, No Iterations 5
DILUPBiCGStab:  Solving for Uy, Initial residual = 0.0286205, Final residual = 5.78745e-16, No Iterations 5
DILUPBiCGStab:  Solving for Uz, Initial residual = 0.0649408, Final residual = 2.49006e-15, No Iterations 5
linear solve U 1916
[OGL LOG] init_host_sparsity_pattern : 0 ms
[OGL LOG] matrix not stored update host matrix
[OGL LOG] update_host_mtx : 0 ms
[OGL LOG] matrix is not yet sorted, sorting host matrix
[OGL LOG] sort_host_mtx_sparsity_pattern : 0 ms
[OGL LOG] sort_host_mtx : 0 ms
[OGL LOG] init_preconditioner : 0 ms
[OGL LOG] solve : 6 ms
nonecudaGKOCG:  Solving for p, Initial residual = 0.0163407, Final residual = 8.28833e-05, No Iterations 44
linear solve p 9501
time step continuity errors : sum local = 8.11698e-08, global = 3.79883e-21, cumulative = 1.49088e-19
[OGL LOG] init_host_sparsity_pattern : 0 ms
[OGL LOG] matrix not stored update host matrix
[OGL LOG] update_host_mtx : 0 ms
[OGL LOG] matrix is not yet sorted, sorting host matrix
[OGL LOG] sort_host_mtx_sparsity_pattern : 0 ms
[OGL LOG] sort_host_mtx : 0 ms
[OGL LOG] init_preconditioner : 0 ms
[OGL LOG] solve : 5 ms
nonecudaGKOCG:  Solving for p, Initial residual = 0.00665335, Final residual = 9.7068e-05, No Iterations 38
linear solve p 8689
time step continuity errors : sum local = 1.08214e-07, global = 2.38286e-21, cumulative = 1.51471e-19
ExecutionTime = 1.06 s  ClockTime = 1 s

Time = 0.009

Courant Number mean: 0.0192552 max: 0.102395
DILUPBiCGStab:  Solving for Ux, Initial residual = 0.0176813, Final residual = 4.36954e-16, No Iterations 5
DILUPBiCGStab:  Solving for Uy, Initial residual = 0.0236225, Final residual = 4.8308e-16, No Iterations 5
DILUPBiCGStab:  Solving for Uz, Initial residual = 0.0544311, Final residual = 1.88704e-15, No Iterations 5
linear solve U 1807
[OGL LOG] init_host_sparsity_pattern : 0 ms
[OGL LOG] matrix not stored update host matrix
[OGL LOG] update_host_mtx : 0 ms
[OGL LOG] matrix is not yet sorted, sorting host matrix
[OGL LOG] sort_host_mtx_sparsity_pattern : 0 ms
[OGL LOG] sort_host_mtx : 0 ms
[OGL LOG] init_preconditioner : 0 ms
[OGL LOG] solve : 6 ms
nonecudaGKOCG:  Solving for p, Initial residual = 0.013268, Final residual = 7.82454e-05, No Iterations 43
linear solve p 9314
time step continuity errors : sum local = 9.22813e-08, global = 1.68434e-20, cumulative = 1.68314e-19
[OGL LOG] init_host_sparsity_pattern : 0 ms
[OGL LOG] matrix not stored update host matrix
[OGL LOG] update_host_mtx : 0 ms
[OGL LOG] matrix is not yet sorted, sorting host matrix
[OGL LOG] sort_host_mtx_sparsity_pattern : 0 ms
[OGL LOG] sort_host_mtx : 0 ms
[OGL LOG] init_preconditioner : 0 ms
[OGL LOG] solve : 5 ms
nonecudaGKOCG:  Solving for p, Initial residual = 0.00540233, Final residual = 9.85622e-05, No Iterations 36
linear solve p 8312
time step continuity errors : sum local = 1.00274e-07, global = -1.72984e-20, cumulative = 1.51016e-19
ExecutionTime = 1.08 s  ClockTime = 1 s

Time = 0.01

Courant Number mean: 0.0200143 max: 0.104627
DILUPBiCGStab:  Solving for Ux, Initial residual = 0.01473, Final residual = 2.84335e-16, No Iterations 5
DILUPBiCGStab:  Solving for Uy, Initial residual = 0.0199283, Final residual = 4.01646e-16, No Iterations 5
DILUPBiCGStab:  Solving for Uz, Initial residual = 0.0463272, Final residual = 1.54042e-15, No Iterations 5
linear solve U 1820
[OGL LOG] init_host_sparsity_pattern : 0 ms
[OGL LOG] matrix not stored update host matrix
[OGL LOG] update_host_mtx : 0 ms
[OGL LOG] matrix is not yet sorted, sorting host matrix
[OGL LOG] sort_host_mtx_sparsity_pattern : 0 ms
[OGL LOG] sort_host_mtx : 0 ms
[OGL LOG] init_preconditioner : 0 ms
[OGL LOG] solve : 6 ms
nonecudaGKOCG:  Solving for p, Initial residual = 0.0111411, Final residual = 9.851e-05, No Iterations 42
linear solve p 9191
time step continuity errors : sum local = 1.28132e-07, global = 1.32334e-20, cumulative = 1.64249e-19
[OGL LOG] init_host_sparsity_pattern : 0 ms
[OGL LOG] matrix not stored update host matrix
[OGL LOG] update_host_mtx : 0 ms
[OGL LOG] matrix is not yet sorted, sorting host matrix
[OGL LOG] sort_host_mtx_sparsity_pattern : 0 ms
[OGL LOG] sort_host_mtx : 0 ms
[OGL LOG] init_preconditioner : 0 ms
[OGL LOG] solve : 5 ms
nonecudaGKOCG:  Solving for p, Initial residual = 0.00450104, Final residual = 8.77609e-05, No Iterations 36
linear solve p 8362
time step continuity errors : sum local = 1.0748e-07, global = 1.90748e-20, cumulative = 1.83324e-19
ExecutionTime = 1.1 s  ClockTime = 1 s

End

