/*---------------------------------------------------------------------------*\
  =========                 |
  \\      /  F ield         | OpenFOAM: The Open Source CFD Toolbox
   \\    /   O peration     | Website:  https://openfoam.org
    \\  /    A nd           | Version:  8
     \\/     M anipulation  |
\*---------------------------------------------------------------------------*/
Build  : 8-ef60d22ea792
Exec   : icoFoam
Date   : Jul 29 2021
Time   : 07:57:31
Host   : "nla-gpu2.ianm.kit.edu"
PID    : 1968348
I/O    : uncollated
Case   : /home/greole/code/OBR/lidDrivenCavity3D/Variation_mesh/50/Variation_matrix_solver/BiCGStab_BJ_HIP/base
nProcs : 1
sigFpe : Enabling floating point exception trapping (FOAM_SIGFPE).
fileModificationChecking : Monitoring run-time modified files using timeStampMaster (fileModificationSkew 10)
allowSystemOperations : Allowing user-supplied system call operations

// * * * * * * * * * * * * * * * * * * * * * * * * * * * * * * * * * * * * * //
Create time

Create mesh for time = 0

Reading transportProperties

Reading field p

Reading field U

Reading/calculating face flux field phi


Starting time loop

Time = 0.001

Courant Number mean: 0 max: 0
DILUPBiCGStab:  Solving for Ux, Initial residual = 1, Final residual = 0.000120903, No Iterations 5
DILUPBiCGStab:  Solving for Uy:  solution singularity
DILUPBiCGStab:  Solving for Uz:  solution singularity
linear solve U 49563
[OGL LOG] init_host_sparsity_pattern : 58 ms
[OGL LOG] matrix not stored update host matrix
[OGL LOG] update_host_mtx : 28 ms
[OGL LOG] matrix is not yet sorted, compute sorting idxs
[OGL LOG] compute_sort : 1078 ms
[OGL LOG] matrix is not yet sorted, sorting host matrix
[OGL LOG] sort_host_mtx_sparsity_pattern : 26 ms
[OGL LOG] sort_host_mtx : 16 ms
[OGL LOG] init_preconditioner : 132 ms
[OGL LOG] solve : 155 ms
BJhipGKOBiCGStab:  Solving for p, Initial residual = 1, Final residual = 5.10745e-05, No Iterations 252
linear solve p 1929922
time step continuity errors : sum local = 0.0100722, global = -5.70808e-19, cumulative = -5.70808e-19
[OGL LOG] init_host_sparsity_pattern : 56 ms
[OGL LOG] matrix not stored update host matrix
[OGL LOG] update_host_mtx : 30 ms
[OGL LOG] matrix is not yet sorted, sorting host matrix
[OGL LOG] sort_host_mtx_sparsity_pattern : 22 ms
[OGL LOG] sort_host_mtx : 13 ms
[OGL LOG] init_preconditioner : 0 ms
[OGL LOG] solve : 45 ms
BJhipGKOBiCGStab:  Solving for p, Initial residual = 0.968979, Final residual = 9.17101e-05, No Iterations 97
linear solve p 174962
time step continuity errors : sum local = 4.78923e-05, global = -4.93579e-21, cumulative = -5.75743e-19
ExecutionTime = 2.89 s  ClockTime = 3 s

Time = 0.002

Courant Number mean: 0.0275595 max: 0.330038
DILUPBiCGStab:  Solving for Ux, Initial residual = 0.168892, Final residual = 2.79907e-05, No Iterations 5
DILUPBiCGStab:  Solving for Uy, Initial residual = 0.364833, Final residual = 5.14046e-05, No Iterations 5
DILUPBiCGStab:  Solving for Uz, Initial residual = 0.86248, Final residual = 4.66061e-05, No Iterations 5
linear solve U 91514
[OGL LOG] init_host_sparsity_pattern : 54 ms
[OGL LOG] matrix not stored update host matrix
[OGL LOG] update_host_mtx : 30 ms
[OGL LOG] matrix is not yet sorted, sorting host matrix
[OGL LOG] sort_host_mtx_sparsity_pattern : 22 ms
[OGL LOG] sort_host_mtx : 13 ms
[OGL LOG] init_preconditioner : 0 ms
[OGL LOG] solve : 103 ms
BJhipGKOBiCGStab:  Solving for p, Initial residual = 0.897401, Final residual = 8.99701e-05, No Iterations 224
linear solve p 232554
time step continuity errors : sum local = 0.000355435, global = 2.61e-20, cumulative = -5.49643e-19
[OGL LOG] init_host_sparsity_pattern : 54 ms
[OGL LOG] matrix not stored update host matrix
[OGL LOG] update_host_mtx : 31 ms
[OGL LOG] matrix is not yet sorted, sorting host matrix
[OGL LOG] sort_host_mtx_sparsity_pattern : 22 ms
[OGL LOG] sort_host_mtx : 13 ms
[OGL LOG] init_preconditioner : 0 ms
[OGL LOG] solve : 104 ms
BJhipGKOBiCGStab:  Solving for p, Initial residual = 0.748876, Final residual = 6.12809e-05, No Iterations 228
linear solve p 232656
time step continuity errors : sum local = 3.07659e-07, global = 1.66466e-20, cumulative = -5.32997e-19
ExecutionTime = 3.68 s  ClockTime = 3 s

Time = 0.003

Courant Number mean: 0.0416246 max: 0.411681
DILUPBiCGStab:  Solving for Ux, Initial residual = 0.0558296, Final residual = 8.75935e-06, No Iterations 5
DILUPBiCGStab:  Solving for Uy, Initial residual = 0.123668, Final residual = 1.26379e-05, No Iterations 5
DILUPBiCGStab:  Solving for Uz, Initial residual = 0.858729, Final residual = 5.13646e-05, No Iterations 5
linear solve U 95141
[OGL LOG] init_host_sparsity_pattern : 54 ms
[OGL LOG] matrix not stored update host matrix
[OGL LOG] update_host_mtx : 30 ms
[OGL LOG] matrix is not yet sorted, sorting host matrix
[OGL LOG] sort_host_mtx_sparsity_pattern : 22 ms
[OGL LOG] sort_host_mtx : 13 ms
[OGL LOG] init_preconditioner : 0 ms
[OGL LOG] solve : 41 ms
BJhipGKOBiCGStab:  Solving for p, Initial residual = 0.836433, Final residual = 7.21773e-05, No Iterations 90
linear solve p 169727
time step continuity errors : sum local = 3.12229e-07, global = -1.30812e-20, cumulative = -5.46078e-19
[OGL LOG] init_host_sparsity_pattern : 54 ms
[OGL LOG] matrix not stored update host matrix
[OGL LOG] update_host_mtx : 28 ms
[OGL LOG] matrix is not yet sorted, sorting host matrix
[OGL LOG] sort_host_mtx_sparsity_pattern : 22 ms
[OGL LOG] sort_host_mtx : 13 ms
[OGL LOG] init_preconditioner : 0 ms
[OGL LOG] solve : 39 ms
BJhipGKOBiCGStab:  Solving for p, Initial residual = 0.672815, Final residual = 9.86069e-05, No Iterations 85
linear solve p 165959
time step continuity errors : sum local = 1.85347e-06, global = -1.08071e-21, cumulative = -5.47159e-19
ExecutionTime = 4.24 s  ClockTime = 4 s

Time = 0.004

Courant Number mean: 0.0494337 max: 0.429597
DILUPBiCGStab:  Solving for Ux, Initial residual = 0.0329277, Final residual = 2.27622e-06, No Iterations 5
DILUPBiCGStab:  Solving for Uy, Initial residual = 0.0706657, Final residual = 4.90424e-06, No Iterations 5
DILUPBiCGStab:  Solving for Uz, Initial residual = 0.802926, Final residual = 3.46059e-05, No Iterations 5
linear solve U 94639
[OGL LOG] init_host_sparsity_pattern : 54 ms
[OGL LOG] matrix not stored update host matrix
[OGL LOG] update_host_mtx : 30 ms
[OGL LOG] matrix is not yet sorted, sorting host matrix
[OGL LOG] sort_host_mtx_sparsity_pattern : 22 ms
[OGL LOG] sort_host_mtx : 13 ms
[OGL LOG] init_preconditioner : 0 ms
[OGL LOG] solve : 41 ms
BJhipGKOBiCGStab:  Solving for p, Initial residual = 0.680717, Final residual = 8.69954e-05, No Iterations 90
linear solve p 169621
time step continuity errors : sum local = 5.98195e-06, global = 6.93384e-21, cumulative = -5.40225e-19
[OGL LOG] init_host_sparsity_pattern : 54 ms
[OGL LOG] matrix not stored update host matrix
[OGL LOG] update_host_mtx : 30 ms
[OGL LOG] matrix is not yet sorted, sorting host matrix
[OGL LOG] sort_host_mtx_sparsity_pattern : 22 ms
[OGL LOG] sort_host_mtx : 13 ms
[OGL LOG] init_preconditioner : 0 ms
[OGL LOG] solve : 39 ms
BJhipGKOBiCGStab:  Solving for p, Initial residual = 0.527866, Final residual = 9.50967e-05, No Iterations 84
linear solve p 167316
time step continuity errors : sum local = 1.59255e-07, global = -1.42254e-21, cumulative = -5.41647e-19
ExecutionTime = 4.8 s  ClockTime = 4 s

Time = 0.005

Courant Number mean: 0.0552798 max: 0.438964
DILUPBiCGStab:  Solving for Ux, Initial residual = 0.0230187, Final residual = 1.08987e-06, No Iterations 5
DILUPBiCGStab:  Solving for Uy, Initial residual = 0.0465587, Final residual = 2.6503e-06, No Iterations 5
DILUPBiCGStab:  Solving for Uz, Initial residual = 0.616981, Final residual = 2.25677e-05, No Iterations 5
linear solve U 95639
[OGL LOG] init_host_sparsity_pattern : 54 ms
[OGL LOG] matrix not stored update host matrix
[OGL LOG] update_host_mtx : 30 ms
[OGL LOG] matrix is not yet sorted, sorting host matrix
[OGL LOG] sort_host_mtx_sparsity_pattern : 22 ms
[OGL LOG] sort_host_mtx : 13 ms
[OGL LOG] init_preconditioner : 0 ms
[OGL LOG] solve : 41 ms
BJhipGKOBiCGStab:  Solving for p, Initial residual = 0.499805, Final residual = 9.81102e-05, No Iterations 88
linear solve p 168885
time step continuity errors : sum local = 5.76827e-07, global = -1.54449e-20, cumulative = -5.57092e-19
[OGL LOG] init_host_sparsity_pattern : 54 ms
[OGL LOG] matrix not stored update host matrix
[OGL LOG] update_host_mtx : 30 ms
[OGL LOG] matrix is not yet sorted, sorting host matrix
[OGL LOG] sort_host_mtx_sparsity_pattern : 22 ms
[OGL LOG] sort_host_mtx : 13 ms
[OGL LOG] init_preconditioner : 0 ms
[OGL LOG] solve : 37 ms
BJhipGKOBiCGStab:  Solving for p, Initial residual = 0.381282, Final residual = 9.32423e-05, No Iterations 80
linear solve p 164537
time step continuity errors : sum local = 2.60306e-06, global = 7.5762e-21, cumulative = -5.49516e-19
ExecutionTime = 5.35 s  ClockTime = 5 s

Time = 0.006

Courant Number mean: 0.0598423 max: 0.444806
DILUPBiCGStab:  Solving for Ux, Initial residual = 0.0175898, Final residual = 6.87132e-07, No Iterations 5
DILUPBiCGStab:  Solving for Uy, Initial residual = 0.034701, Final residual = 1.51041e-06, No Iterations 5
DILUPBiCGStab:  Solving for Uz, Initial residual = 0.392342, Final residual = 1.28369e-05, No Iterations 5
linear solve U 101084
[OGL LOG] init_host_sparsity_pattern : 56 ms
[OGL LOG] matrix not stored update host matrix
[OGL LOG] update_host_mtx : 30 ms
[OGL LOG] matrix is not yet sorted, sorting host matrix
[OGL LOG] sort_host_mtx_sparsity_pattern : 22 ms
[OGL LOG] sort_host_mtx : 13 ms
[OGL LOG] init_preconditioner : 0 ms
[OGL LOG] solve : 38 ms
BJhipGKOBiCGStab:  Solving for p, Initial residual = 0.330902, Final residual = 8.75834e-05, No Iterations 82
linear solve p 169530
time step continuity errors : sum local = 1.40443e-05, global = 6.24563e-21, cumulative = -5.4327e-19
[OGL LOG] init_host_sparsity_pattern : 54 ms
[OGL LOG] matrix not stored update host matrix
[OGL LOG] update_host_mtx : 30 ms
[OGL LOG] matrix is not yet sorted, sorting host matrix
[OGL LOG] sort_host_mtx_sparsity_pattern : 22 ms
[OGL LOG] sort_host_mtx : 13 ms
[OGL LOG] init_preconditioner : 0 ms
[OGL LOG] solve : 40 ms
BJhipGKOBiCGStab:  Solving for p, Initial residual = 0.249697, Final residual = 9.33186e-05, No Iterations 86
linear solve p 167488
time step continuity errors : sum local = 9.92603e-07, global = -3.18506e-20, cumulative = -5.75121e-19
ExecutionTime = 5.92 s  ClockTime = 5 s

Time = 0.007

Courant Number mean: 0.0635842 max: 0.448856
DILUPBiCGStab:  Solving for Ux, Initial residual = 0.0139156, Final residual = 6.00062e-07, No Iterations 5
DILUPBiCGStab:  Solving for Uy, Initial residual = 0.027702, Final residual = 9.03394e-07, No Iterations 5
DILUPBiCGStab:  Solving for Uz, Initial residual = 0.218366, Final residual = 7.29709e-06, No Iterations 5
linear solve U 94591
[OGL LOG] init_host_sparsity_pattern : 54 ms
[OGL LOG] matrix not stored update host matrix
[OGL LOG] update_host_mtx : 30 ms
[OGL LOG] matrix is not yet sorted, sorting host matrix
[OGL LOG] sort_host_mtx_sparsity_pattern : 22 ms
[OGL LOG] sort_host_mtx : 13 ms
[OGL LOG] init_preconditioner : 0 ms
[OGL LOG] solve : 96 ms
BJhipGKOBiCGStab:  Solving for p, Initial residual = 0.200578, Final residual = 9.04605e-05, No Iterations 208
linear solve p 224481
time step continuity errors : sum local = 5.84891e-08, global = -9.67734e-21, cumulative = -5.84798e-19
[OGL LOG] init_host_sparsity_pattern : 56 ms
[OGL LOG] matrix not stored update host matrix
[OGL LOG] update_host_mtx : 30 ms
[OGL LOG] matrix is not yet sorted, sorting host matrix
[OGL LOG] sort_host_mtx_sparsity_pattern : 23 ms
[OGL LOG] sort_host_mtx : 13 ms
[OGL LOG] init_preconditioner : 0 ms
[OGL LOG] solve : 40 ms
BJhipGKOBiCGStab:  Solving for p, Initial residual = 0.149618, Final residual = 8.61455e-05, No Iterations 86
linear solve p 171361
time step continuity errors : sum local = 8.78431e-08, global = -5.75521e-21, cumulative = -5.90554e-19
ExecutionTime = 6.58 s  ClockTime = 6 s

Time = 0.008

Courant Number mean: 0.0666972 max: 0.451848
DILUPBiCGStab:  Solving for Ux, Initial residual = 0.0116167, Final residual = 6.0145e-07, No Iterations 5
DILUPBiCGStab:  Solving for Uy, Initial residual = 0.022596, Final residual = 7.56326e-07, No Iterations 5
DILUPBiCGStab:  Solving for Uz, Initial residual = 0.11903, Final residual = 5.33907e-06, No Iterations 5
linear solve U 96136
[OGL LOG] init_host_sparsity_pattern : 56 ms
[OGL LOG] matrix not stored update host matrix
[OGL LOG] update_host_mtx : 30 ms
[OGL LOG] matrix is not yet sorted, sorting host matrix
[OGL LOG] sort_host_mtx_sparsity_pattern : 22 ms
[OGL LOG] sort_host_mtx : 13 ms
[OGL LOG] init_preconditioner : 0 ms
[OGL LOG] solve : 93 ms
BJhipGKOBiCGStab:  Solving for p, Initial residual = 0.117328, Final residual = 8.7641e-05, No Iterations 204
linear solve p 222516
time step continuity errors : sum local = 5.52991e-08, global = -1.31842e-20, cumulative = -6.03738e-19
[OGL LOG] init_host_sparsity_pattern : 54 ms
[OGL LOG] matrix not stored update host matrix
[OGL LOG] update_host_mtx : 27 ms
[OGL LOG] matrix is not yet sorted, sorting host matrix
[OGL LOG] sort_host_mtx_sparsity_pattern : 22 ms
[OGL LOG] sort_host_mtx : 13 ms
[OGL LOG] init_preconditioner : 0 ms
[OGL LOG] solve : 90 ms
BJhipGKOBiCGStab:  Solving for p, Initial residual = 0.0875385, Final residual = 7.47463e-05, No Iterations 199
linear solve p 216561
time step continuity errors : sum local = 4.84761e-08, global = 4.41551e-20, cumulative = -5.59583e-19
ExecutionTime = 7.33 s  ClockTime = 6 s

Time = 0.009

Courant Number mean: 0.0693807 max: 0.454196
DILUPBiCGStab:  Solving for Ux, Initial residual = 0.00974779, Final residual = 4.65311e-07, No Iterations 5
DILUPBiCGStab:  Solving for Uy, Initial residual = 0.0190881, Final residual = 3.19537e-07, No Iterations 5
DILUPBiCGStab:  Solving for Uz, Initial residual = 0.0688948, Final residual = 2.12627e-06, No Iterations 5
linear solve U 95909
[OGL LOG] init_host_sparsity_pattern : 56 ms
[OGL LOG] matrix not stored update host matrix
[OGL LOG] update_host_mtx : 30 ms
[OGL LOG] matrix is not yet sorted, sorting host matrix
[OGL LOG] sort_host_mtx_sparsity_pattern : 22 ms
[OGL LOG] sort_host_mtx : 13 ms
[OGL LOG] init_preconditioner : 0 ms
[OGL LOG] solve : 38 ms
BJhipGKOBiCGStab:  Solving for p, Initial residual = 0.0676477, Final residual = 8.79251e-05, No Iterations 83
linear solve p 168312
time step continuity errors : sum local = 5.32454e-08, global = -9.79596e-21, cumulative = -5.69379e-19
[OGL LOG] init_host_sparsity_pattern : 57 ms
[OGL LOG] matrix not stored update host matrix
[OGL LOG] update_host_mtx : 29 ms
[OGL LOG] matrix is not yet sorted, sorting host matrix
[OGL LOG] sort_host_mtx_sparsity_pattern : 23 ms
[OGL LOG] sort_host_mtx : 13 ms
[OGL LOG] init_preconditioner : 0 ms
[OGL LOG] solve : 38 ms
BJhipGKOBiCGStab:  Solving for p, Initial residual = 0.0509954, Final residual = 9.8614e-05, No Iterations 80
linear solve p 170823
time step continuity errors : sum local = 6.96316e-07, global = 1.70833e-20, cumulative = -5.52295e-19
ExecutionTime = 7.89 s  ClockTime = 7 s

Time = 0.01

Courant Number mean: 0.0717115 max: 0.456059
DILUPBiCGStab:  Solving for Ux, Initial residual = 0.00828004, Final residual = 3.59447e-07, No Iterations 5
DILUPBiCGStab:  Solving for Uy, Initial residual = 0.0165208, Final residual = 2.40634e-07, No Iterations 5
DILUPBiCGStab:  Solving for Uz, Initial residual = 0.0444511, Final residual = 9.93651e-07, No Iterations 5
linear solve U 95676
[OGL LOG] init_host_sparsity_pattern : 56 ms
[OGL LOG] matrix not stored update host matrix
[OGL LOG] update_host_mtx : 31 ms
[OGL LOG] matrix is not yet sorted, sorting host matrix
[OGL LOG] sort_host_mtx_sparsity_pattern : 22 ms
[OGL LOG] sort_host_mtx : 13 ms
[OGL LOG] init_preconditioner : 0 ms
[OGL LOG] solve : 36 ms
BJhipGKOBiCGStab:  Solving for p, Initial residual = 0.0398578, Final residual = 9.35917e-05, No Iterations 77
linear solve p 166151
time step continuity errors : sum local = 5.26635e-07, global = -1.80145e-20, cumulative = -5.7031e-19
[OGL LOG] init_host_sparsity_pattern : 54 ms
[OGL LOG] matrix not stored update host matrix
[OGL LOG] update_host_mtx : 30 ms
[OGL LOG] matrix is not yet sorted, sorting host matrix
[OGL LOG] sort_host_mtx_sparsity_pattern : 22 ms
[OGL LOG] sort_host_mtx : 14 ms
[OGL LOG] init_preconditioner : 0 ms
[OGL LOG] solve : 39 ms
BJhipGKOBiCGStab:  Solving for p, Initial residual = 0.0306503, Final residual = 8.95251e-05, No Iterations 83
linear solve p 168445
time step continuity errors : sum local = 3.30273e-07, global = -9.70494e-21, cumulative = -5.80015e-19
ExecutionTime = 8.44 s  ClockTime = 7 s

End

