/*---------------------------------------------------------------------------*\
  =========                 |
  \\      /  F ield         | OpenFOAM: The Open Source CFD Toolbox
   \\    /   O peration     | Website:  https://openfoam.org
    \\  /    A nd           | Version:  8
     \\/     M anipulation  |
\*---------------------------------------------------------------------------*/
Build  : 8-ef60d22ea792
Exec   : icoFoam
Date   : Jul 29 2021
Time   : 08:07:45
Host   : "nla-gpu2.ianm.kit.edu"
PID    : 1974063
I/O    : uncollated
Case   : /home/greole/code/OBR/lidDrivenCavity3D/Variation_mesh/35/Variation_matrix_solver/CG_BJ_HIP/base
nProcs : 1
sigFpe : Enabling floating point exception trapping (FOAM_SIGFPE).
fileModificationChecking : Monitoring run-time modified files using timeStampMaster (fileModificationSkew 10)
allowSystemOperations : Allowing user-supplied system call operations

// * * * * * * * * * * * * * * * * * * * * * * * * * * * * * * * * * * * * * //
Create time

Create mesh for time = 0

Reading transportProperties

Reading field p

Reading field U

Reading/calculating face flux field phi


Starting time loop

Time = 0.001

Courant Number mean: 0 max: 0
DILUPBiCGStab:  Solving for Ux, Initial residual = 1, Final residual = 2.20563e-06, No Iterations 5
DILUPBiCGStab:  Solving for Uy:  solution singularity
DILUPBiCGStab:  Solving for Uz:  solution singularity
linear solve U 15354
[OGL LOG] init_host_sparsity_pattern : 19 ms
[OGL LOG] matrix not stored update host matrix
[OGL LOG] update_host_mtx : 11 ms
[OGL LOG] matrix is not yet sorted, compute sorting idxs
[OGL LOG] compute_sort : 370 ms
[OGL LOG] matrix is not yet sorted, sorting host matrix
[OGL LOG] sort_host_mtx_sparsity_pattern : 8 ms
[OGL LOG] sort_host_mtx : 4 ms
[OGL LOG] init_preconditioner : 77 ms
 CG create  precond 
[OGL LOG] solve : 82 ms
BJhipGKOCG:  Solving for p, Initial residual = 1, Final residual = 8.68485e-05, No Iterations 229
linear solve p 1007947
time step continuity errors : sum local = 4.80827e-08, global = -7.0475e-21, cumulative = -7.0475e-21
[OGL LOG] init_host_sparsity_pattern : 17 ms
[OGL LOG] matrix not stored update host matrix
[OGL LOG] update_host_mtx : 8 ms
[OGL LOG] matrix is not yet sorted, sorting host matrix
[OGL LOG] sort_host_mtx_sparsity_pattern : 6 ms
[OGL LOG] sort_host_mtx : 4 ms
[OGL LOG] init_preconditioner : 0 ms
 CG create  precond 
[OGL LOG] solve : 43 ms
BJhipGKOCG:  Solving for p, Initial residual = 0.574343, Final residual = 9.9685e-05, No Iterations 222
linear solve p 84657
time step continuity errors : sum local = 8.37223e-08, global = 9.95066e-22, cumulative = -6.05244e-21
ExecutionTime = 1.43 s  ClockTime = 2 s

Time = 0.002

Courant Number mean: 0.0182993 max: 0.192029
DILUPBiCGStab:  Solving for Ux, Initial residual = 0.186251, Final residual = 3.84081e-07, No Iterations 5
DILUPBiCGStab:  Solving for Uy, Initial residual = 0.280737, Final residual = 4.98026e-07, No Iterations 5
DILUPBiCGStab:  Solving for Uz, Initial residual = 0.945401, Final residual = 1.91031e-06, No Iterations 5
linear solve U 28328
[OGL LOG] init_host_sparsity_pattern : 18 ms
[OGL LOG] matrix not stored update host matrix
[OGL LOG] update_host_mtx : 8 ms
[OGL LOG] matrix is not yet sorted, sorting host matrix
[OGL LOG] sort_host_mtx_sparsity_pattern : 6 ms
[OGL LOG] sort_host_mtx : 4 ms
[OGL LOG] init_preconditioner : 0 ms
 CG create  precond 
[OGL LOG] solve : 41 ms
BJhipGKOCG:  Solving for p, Initial residual = 0.410278, Final residual = 9.76702e-05, No Iterations 211
linear solve p 82717
time step continuity errors : sum local = 7.73966e-08, global = 1.19686e-20, cumulative = 5.91614e-21
[OGL LOG] init_host_sparsity_pattern : 17 ms
[OGL LOG] matrix not stored update host matrix
[OGL LOG] update_host_mtx : 9 ms
[OGL LOG] matrix is not yet sorted, sorting host matrix
[OGL LOG] sort_host_mtx_sparsity_pattern : 6 ms
[OGL LOG] sort_host_mtx : 4 ms
[OGL LOG] init_preconditioner : 0 ms
 CG create  precond 
[OGL LOG] solve : 40 ms
BJhipGKOCG:  Solving for p, Initial residual = 0.311797, Final residual = 9.53821e-05, No Iterations 209
linear solve p 82557
time step continuity errors : sum local = 7.90994e-08, global = 2.07471e-20, cumulative = 2.66633e-20
ExecutionTime = 1.72 s  ClockTime = 2 s

Time = 0.003

Courant Number mean: 0.0280032 max: 0.255326
DILUPBiCGStab:  Solving for Ux, Initial residual = 0.0712978, Final residual = 1.27855e-07, No Iterations 5
DILUPBiCGStab:  Solving for Uy, Initial residual = 0.109879, Final residual = 1.16855e-07, No Iterations 5
DILUPBiCGStab:  Solving for Uz, Initial residual = 0.165922, Final residual = 3.48675e-07, No Iterations 5
linear solve U 28352
[OGL LOG] init_host_sparsity_pattern : 17 ms
[OGL LOG] matrix not stored update host matrix
[OGL LOG] update_host_mtx : 8 ms
[OGL LOG] matrix is not yet sorted, sorting host matrix
[OGL LOG] sort_host_mtx_sparsity_pattern : 6 ms
[OGL LOG] sort_host_mtx : 4 ms
[OGL LOG] init_preconditioner : 0 ms
 CG create  precond 
[OGL LOG] solve : 38 ms
BJhipGKOCG:  Solving for p, Initial residual = 0.12863, Final residual = 9.17261e-05, No Iterations 200
linear solve p 80178
time step continuity errors : sum local = 6.28875e-08, global = 6.94439e-21, cumulative = 3.36076e-20
[OGL LOG] init_host_sparsity_pattern : 19 ms
[OGL LOG] matrix not stored update host matrix
[OGL LOG] update_host_mtx : 8 ms
[OGL LOG] matrix is not yet sorted, sorting host matrix
[OGL LOG] sort_host_mtx_sparsity_pattern : 7 ms
[OGL LOG] sort_host_mtx : 4 ms
[OGL LOG] init_preconditioner : 0 ms
 CG create  precond 
[OGL LOG] solve : 38 ms
BJhipGKOCG:  Solving for p, Initial residual = 0.0985441, Final residual = 9.78623e-05, No Iterations 197
linear solve p 82498
time step continuity errors : sum local = 6.75945e-08, global = 1.24603e-20, cumulative = 4.60679e-20
ExecutionTime = 2 s  ClockTime = 2 s

Time = 0.004

Courant Number mean: 0.0339239 max: 0.277399
DILUPBiCGStab:  Solving for Ux, Initial residual = 0.041554, Final residual = 6.91749e-08, No Iterations 5
DILUPBiCGStab:  Solving for Uy, Initial residual = 0.06732, Final residual = 4.47479e-08, No Iterations 5
DILUPBiCGStab:  Solving for Uz, Initial residual = 0.104237, Final residual = 8.33869e-08, No Iterations 5
linear solve U 28512
[OGL LOG] init_host_sparsity_pattern : 17 ms
[OGL LOG] matrix not stored update host matrix
[OGL LOG] update_host_mtx : 9 ms
[OGL LOG] matrix is not yet sorted, sorting host matrix
[OGL LOG] sort_host_mtx_sparsity_pattern : 7 ms
[OGL LOG] sort_host_mtx : 4 ms
[OGL LOG] init_preconditioner : 0 ms
 CG create  precond 
[OGL LOG] solve : 37 ms
BJhipGKOCG:  Solving for p, Initial residual = 0.0651025, Final residual = 9.62408e-05, No Iterations 194
linear solve p 80601
time step continuity errors : sum local = 6.46561e-08, global = 1.02345e-20, cumulative = 5.63024e-20
[OGL LOG] init_host_sparsity_pattern : 17 ms
[OGL LOG] matrix not stored update host matrix
[OGL LOG] update_host_mtx : 9 ms
[OGL LOG] matrix is not yet sorted, sorting host matrix
[OGL LOG] sort_host_mtx_sparsity_pattern : 6 ms
[OGL LOG] sort_host_mtx : 4 ms
[OGL LOG] init_preconditioner : 0 ms
 CG create  precond 
[OGL LOG] solve : 37 ms
BJhipGKOCG:  Solving for p, Initial residual = 0.0497233, Final residual = 9.86063e-05, No Iterations 192
linear solve p 79708
time step continuity errors : sum local = 6.71833e-08, global = -8.36166e-21, cumulative = 4.79408e-20
ExecutionTime = 2.27 s  ClockTime = 2 s

Time = 0.005

Courant Number mean: 0.0381162 max: 0.287996
DILUPBiCGStab:  Solving for Ux, Initial residual = 0.0286364, Final residual = 1.92377e-08, No Iterations 5
DILUPBiCGStab:  Solving for Uy, Initial residual = 0.0466633, Final residual = 2.624e-08, No Iterations 5
DILUPBiCGStab:  Solving for Uz, Initial residual = 0.0755374, Final residual = 4.74609e-08, No Iterations 5
linear solve U 28347
[OGL LOG] init_host_sparsity_pattern : 17 ms
[OGL LOG] matrix not stored update host matrix
[OGL LOG] update_host_mtx : 8 ms
[OGL LOG] matrix is not yet sorted, sorting host matrix
[OGL LOG] sort_host_mtx_sparsity_pattern : 6 ms
[OGL LOG] sort_host_mtx : 4 ms
[OGL LOG] init_preconditioner : 0 ms
 CG create  precond 
[OGL LOG] solve : 37 ms
BJhipGKOCG:  Solving for p, Initial residual = 0.0384404, Final residual = 8.47691e-05, No Iterations 190
linear solve p 78192
time step continuity errors : sum local = 5.75683e-08, global = -9.79932e-21, cumulative = 3.81414e-20
[OGL LOG] init_host_sparsity_pattern : 17 ms
[OGL LOG] matrix not stored update host matrix
[OGL LOG] update_host_mtx : 9 ms
[OGL LOG] matrix is not yet sorted, sorting host matrix
[OGL LOG] sort_host_mtx_sparsity_pattern : 6 ms
[OGL LOG] sort_host_mtx : 4 ms
[OGL LOG] init_preconditioner : 0 ms
 CG create  precond 
[OGL LOG] solve : 36 ms
BJhipGKOCG:  Solving for p, Initial residual = 0.0301834, Final residual = 8.6258e-05, No Iterations 188
linear solve p 78948
time step continuity errors : sum local = 5.89325e-08, global = -4.77234e-21, cumulative = 3.33691e-20
ExecutionTime = 2.54 s  ClockTime = 3 s

Time = 0.006

Courant Number mean: 0.0413847 max: 0.29426
DILUPBiCGStab:  Solving for Ux, Initial residual = 0.0215658, Final residual = 7.68976e-09, No Iterations 5
DILUPBiCGStab:  Solving for Uy, Initial residual = 0.0355041, Final residual = 1.56865e-08, No Iterations 5
DILUPBiCGStab:  Solving for Uz, Initial residual = 0.0599326, Final residual = 4.02267e-08, No Iterations 5
linear solve U 31420
[OGL LOG] init_host_sparsity_pattern : 18 ms
[OGL LOG] matrix not stored update host matrix
[OGL LOG] update_host_mtx : 9 ms
[OGL LOG] matrix is not yet sorted, sorting host matrix
[OGL LOG] sort_host_mtx_sparsity_pattern : 7 ms
[OGL LOG] sort_host_mtx : 4 ms
[OGL LOG] init_preconditioner : 0 ms
 CG create  precond 
[OGL LOG] solve : 36 ms
BJhipGKOCG:  Solving for p, Initial residual = 0.0266042, Final residual = 8.4334e-05, No Iterations 188
linear solve p 79774
time step continuity errors : sum local = 5.76976e-08, global = -3.92125e-21, cumulative = 2.94479e-20
[OGL LOG] init_host_sparsity_pattern : 18 ms
[OGL LOG] matrix not stored update host matrix
[OGL LOG] update_host_mtx : 9 ms
[OGL LOG] matrix is not yet sorted, sorting host matrix
[OGL LOG] sort_host_mtx_sparsity_pattern : 7 ms
[OGL LOG] sort_host_mtx : 4 ms
[OGL LOG] init_preconditioner : 0 ms
 CG create  precond 
[OGL LOG] solve : 18 ms
BJhipGKOCG:  Solving for p, Initial residual = 0.0211566, Final residual = 9.83809e-05, No Iterations 91
linear solve p 60710
time step continuity errors : sum local = 8.3725e-08, global = -1.8673e-20, cumulative = 1.07749e-20
ExecutionTime = 2.78 s  ClockTime = 3 s

Time = 0.007

Courant Number mean: 0.0440603 max: 0.2985
DILUPBiCGStab:  Solving for Ux, Initial residual = 0.0170981, Final residual = 4.23361e-09, No Iterations 5
DILUPBiCGStab:  Solving for Uy, Initial residual = 0.0283866, Final residual = 1.11375e-08, No Iterations 5
DILUPBiCGStab:  Solving for Uz, Initial residual = 0.0502223, Final residual = 3.3742e-08, No Iterations 5
linear solve U 28968
[OGL LOG] init_host_sparsity_pattern : 18 ms
[OGL LOG] matrix not stored update host matrix
[OGL LOG] update_host_mtx : 8 ms
[OGL LOG] matrix is not yet sorted, sorting host matrix
[OGL LOG] sort_host_mtx_sparsity_pattern : 7 ms
[OGL LOG] sort_host_mtx : 4 ms
[OGL LOG] init_preconditioner : 0 ms
 CG create  precond 
[OGL LOG] solve : 18 ms
BJhipGKOCG:  Solving for p, Initial residual = 0.0211286, Final residual = 9.80419e-05, No Iterations 91
linear solve p 59962
time step continuity errors : sum local = 8.45063e-08, global = 2.84616e-20, cumulative = 3.92365e-20
[OGL LOG] init_host_sparsity_pattern : 18 ms
[OGL LOG] matrix not stored update host matrix
[OGL LOG] update_host_mtx : 8 ms
[OGL LOG] matrix is not yet sorted, sorting host matrix
[OGL LOG] sort_host_mtx_sparsity_pattern : 6 ms
[OGL LOG] sort_host_mtx : 4 ms
[OGL LOG] init_preconditioner : 0 ms
 CG create  precond 
[OGL LOG] solve : 36 ms
BJhipGKOCG:  Solving for p, Initial residual = 0.0169704, Final residual = 9.49347e-05, No Iterations 185
linear solve p 78108
time step continuity errors : sum local = 6.56263e-08, global = 2.12699e-20, cumulative = 6.05064e-20
ExecutionTime = 3.01 s  ClockTime = 3 s

Time = 0.008

Courant Number mean: 0.0462829 max: 0.301602
DILUPBiCGStab:  Solving for Ux, Initial residual = 0.0140227, Final residual = 2.82869e-09, No Iterations 5
DILUPBiCGStab:  Solving for Uy, Initial residual = 0.0233909, Final residual = 7.89289e-09, No Iterations 5
DILUPBiCGStab:  Solving for Uz, Initial residual = 0.043342, Final residual = 2.76092e-08, No Iterations 5
linear solve U 28942
[OGL LOG] init_host_sparsity_pattern : 18 ms
[OGL LOG] matrix not stored update host matrix
[OGL LOG] update_host_mtx : 9 ms
[OGL LOG] matrix is not yet sorted, sorting host matrix
[OGL LOG] sort_host_mtx_sparsity_pattern : 7 ms
[OGL LOG] sort_host_mtx : 4 ms
[OGL LOG] init_preconditioner : 0 ms
 CG create  precond 
[OGL LOG] solve : 36 ms
BJhipGKOCG:  Solving for p, Initial residual = 0.0169453, Final residual = 9.55598e-05, No Iterations 185
linear solve p 79110
time step continuity errors : sum local = 6.6165e-08, global = -2.02711e-22, cumulative = 6.03037e-20
[OGL LOG] init_host_sparsity_pattern : 18 ms
[OGL LOG] matrix not stored update host matrix
[OGL LOG] update_host_mtx : 9 ms
[OGL LOG] matrix is not yet sorted, sorting host matrix
[OGL LOG] sort_host_mtx_sparsity_pattern : 7 ms
[OGL LOG] sort_host_mtx : 4 ms
[OGL LOG] init_preconditioner : 0 ms
 CG create  precond 
[OGL LOG] solve : 35 ms
BJhipGKOCG:  Solving for p, Initial residual = 0.0136873, Final residual = 9.88469e-05, No Iterations 183
linear solve p 78703
time step continuity errors : sum local = 6.86235e-08, global = -1.99768e-20, cumulative = 4.03269e-20
ExecutionTime = 3.28 s  ClockTime = 3 s

Time = 0.009

Courant Number mean: 0.0481616 max: 0.303993
DILUPBiCGStab:  Solving for Ux, Initial residual = 0.0117505, Final residual = 2.08545e-09, No Iterations 5
DILUPBiCGStab:  Solving for Uy, Initial residual = 0.0197632, Final residual = 5.86181e-09, No Iterations 5
DILUPBiCGStab:  Solving for Uz, Initial residual = 0.0365448, Final residual = 2.42622e-08, No Iterations 5
linear solve U 28742
[OGL LOG] init_host_sparsity_pattern : 18 ms
[OGL LOG] matrix not stored update host matrix
[OGL LOG] update_host_mtx : 8 ms
[OGL LOG] matrix is not yet sorted, sorting host matrix
[OGL LOG] sort_host_mtx_sparsity_pattern : 7 ms
[OGL LOG] sort_host_mtx : 4 ms
[OGL LOG] init_preconditioner : 0 ms
 CG create  precond 
[OGL LOG] solve : 16 ms
BJhipGKOCG:  Solving for p, Initial residual = 0.0140587, Final residual = 9.95478e-05, No Iterations 82
linear solve p 58310
time step continuity errors : sum local = 7.65715e-08, global = -7.56129e-21, cumulative = 3.27656e-20
[OGL LOG] init_host_sparsity_pattern : 19 ms
[OGL LOG] matrix not stored update host matrix
[OGL LOG] update_host_mtx : 10 ms
[OGL LOG] matrix is not yet sorted, sorting host matrix
[OGL LOG] sort_host_mtx_sparsity_pattern : 6 ms
[OGL LOG] sort_host_mtx : 4 ms
[OGL LOG] init_preconditioner : 0 ms
 CG create  precond 
[OGL LOG] solve : 15 ms
BJhipGKOCG:  Solving for p, Initial residual = 0.011416, Final residual = 9.62688e-05, No Iterations 80
linear solve p 60061
time step continuity errors : sum local = 6.94886e-08, global = 1.9552e-20, cumulative = 5.23176e-20
ExecutionTime = 3.48 s  ClockTime = 3 s

Time = 0.01

Courant Number mean: 0.0498031 max: 0.305898
DILUPBiCGStab:  Solving for Ux, Initial residual = 0.0100142, Final residual = 1.62603e-09, No Iterations 5
DILUPBiCGStab:  Solving for Uy, Initial residual = 0.0169818, Final residual = 4.53427e-09, No Iterations 5
DILUPBiCGStab:  Solving for Uz, Initial residual = 0.031817, Final residual = 1.83799e-08, No Iterations 5
linear solve U 31532
[OGL LOG] init_host_sparsity_pattern : 17 ms
[OGL LOG] matrix not stored update host matrix
[OGL LOG] update_host_mtx : 8 ms
[OGL LOG] matrix is not yet sorted, sorting host matrix
[OGL LOG] sort_host_mtx_sparsity_pattern : 6 ms
[OGL LOG] sort_host_mtx : 4 ms
[OGL LOG] init_preconditioner : 0 ms
 CG create  precond 
[OGL LOG] solve : 16 ms
BJhipGKOCG:  Solving for p, Initial residual = 0.0120144, Final residual = 9.39617e-05, No Iterations 81
linear solve p 57185
time step continuity errors : sum local = 7.24137e-08, global = 9.88114e-21, cumulative = 6.21988e-20
[OGL LOG] init_host_sparsity_pattern : 17 ms
[OGL LOG] matrix not stored update host matrix
[OGL LOG] update_host_mtx : 9 ms
[OGL LOG] matrix is not yet sorted, sorting host matrix
[OGL LOG] sort_host_mtx_sparsity_pattern : 6 ms
[OGL LOG] sort_host_mtx : 4 ms
[OGL LOG] init_preconditioner : 0 ms
 CG create  precond 
[OGL LOG] solve : 15 ms
BJhipGKOCG:  Solving for p, Initial residual = 0.00979363, Final residual = 9.94786e-05, No Iterations 78
linear solve p 57233
time step continuity errors : sum local = 7.29203e-08, global = -9.26424e-21, cumulative = 5.29345e-20
ExecutionTime = 3.66 s  ClockTime = 4 s

End

