/*---------------------------------------------------------------------------*\
  =========                 |
  \\      /  F ield         | OpenFOAM: The Open Source CFD Toolbox
   \\    /   O peration     | Website:  https://openfoam.org
    \\  /    A nd           | Version:  8
     \\/     M anipulation  |
\*---------------------------------------------------------------------------*/
Build  : 8-ef60d22ea792
Exec   : icoFoam
Date   : Jul 28 2021
Time   : 22:10:21
Host   : "uc2n535.localdomain"
PID    : 253585
I/O    : uncollated
Case   : /pfs/data5/home/kit/scc/nq7776/code/OBR/lidDrivenCavity3D/Variation_mesh/15/Variation_matrix_solver/BiCGStab_NoPrecond_OMP/base
nProcs : 1
sigFpe : Enabling floating point exception trapping (FOAM_SIGFPE).
fileModificationChecking : Monitoring run-time modified files using timeStampMaster (fileModificationSkew 10)
allowSystemOperations : Allowing user-supplied system call operations

// * * * * * * * * * * * * * * * * * * * * * * * * * * * * * * * * * * * * * //
Create time

Create mesh for time = 0

Reading transportProperties

Reading field p

Reading field U

Reading/calculating face flux field phi


Starting time loop

Time = 0.001

Courant Number mean: 0 max: 0
DILUPBiCGStab:  Solving for Ux, Initial residual = 1, Final residual = 1.1028e-13, No Iterations 5
DILUPBiCGStab:  Solving for Uy:  solution singularity
DILUPBiCGStab:  Solving for Uz:  solution singularity
linear solve U 1314
[OGL LOG] init_host_sparsity_pattern : 1 ms
[OGL LOG] matrix not stored update host matrix
[OGL LOG] update_host_mtx : 0 ms
[OGL LOG] matrix is not yet sorted, compute sorting idxs
[OGL LOG] compute_sort : 22 ms
[OGL LOG] matrix is not yet sorted, sorting host matrix
[OGL LOG] sort_host_mtx_sparsity_pattern : 0 ms
[OGL LOG] sort_host_mtx : 0 ms
[OGL LOG] init_preconditioner : 0 ms
[OGL LOG] solve : 15 ms
noneompGKOBiCGStab:  Solving for p, Initial residual = 1, Final residual = 3.62624e-05, No Iterations 98
linear solve p 42919
time step continuity errors : sum local = 9.65186e-07, global = -1.87853e-20, cumulative = -1.87853e-20
[OGL LOG] init_host_sparsity_pattern : 0 ms
[OGL LOG] matrix not stored update host matrix
[OGL LOG] update_host_mtx : 0 ms
[OGL LOG] matrix is not yet sorted, sorting host matrix
[OGL LOG] sort_host_mtx_sparsity_pattern : 0 ms
[OGL LOG] sort_host_mtx : 0 ms
[OGL LOG] init_preconditioner : 0 ms
[OGL LOG] solve : 13 ms
noneompGKOBiCGStab:  Solving for p, Initial residual = 0.317365, Final residual = 9.23301e-05, No Iterations 88
linear solve p 16345
time step continuity errors : sum local = 1.21356e-06, global = 5.18156e-21, cumulative = -1.36037e-20
ExecutionTime = 0.4 s  ClockTime = 1 s

Time = 0.002

Courant Number mean: 0.00559513 max: 0.0357001
DILUPBiCGStab:  Solving for Ux, Initial residual = 0.242424, Final residual = 1.13984e-14, No Iterations 5
DILUPBiCGStab:  Solving for Uy, Initial residual = 0.296213, Final residual = 1.12438e-14, No Iterations 5
DILUPBiCGStab:  Solving for Uz, Initial residual = 0.656338, Final residual = 3.43662e-14, No Iterations 5
linear solve U 2091
[OGL LOG] init_host_sparsity_pattern : 0 ms
[OGL LOG] matrix not stored update host matrix
[OGL LOG] update_host_mtx : 0 ms
[OGL LOG] matrix is not yet sorted, sorting host matrix
[OGL LOG] sort_host_mtx_sparsity_pattern : 0 ms
[OGL LOG] sort_host_mtx : 0 ms
[OGL LOG] init_preconditioner : 0 ms
[OGL LOG] solve : 12 ms
noneompGKOBiCGStab:  Solving for p, Initial residual = 0.158529, Final residual = 8.03607e-05, No Iterations 83
linear solve p 15536
time step continuity errors : sum local = 1.21218e-06, global = -2.30206e-21, cumulative = -1.59058e-20
[OGL LOG] init_host_sparsity_pattern : 0 ms
[OGL LOG] matrix not stored update host matrix
[OGL LOG] update_host_mtx : 0 ms
[OGL LOG] matrix is not yet sorted, sorting host matrix
[OGL LOG] sort_host_mtx_sparsity_pattern : 0 ms
[OGL LOG] sort_host_mtx : 0 ms
[OGL LOG] init_preconditioner : 0 ms
[OGL LOG] solve : 10 ms
noneompGKOBiCGStab:  Solving for p, Initial residual = 0.0617783, Final residual = 9.99486e-05, No Iterations 72
linear solve p 13846
time step continuity errors : sum local = 1.56229e-07, global = -7.66259e-21, cumulative = -2.35684e-20
ExecutionTime = 0.72 s  ClockTime = 1 s

Time = 0.003

Courant Number mean: 0.0094032 max: 0.0587301
DILUPBiCGStab:  Solving for Ux, Initial residual = 0.117885, Final residual = 5.34261e-15, No Iterations 5
DILUPBiCGStab:  Solving for Uy, Initial residual = 0.148877, Final residual = 5.35094e-15, No Iterations 5
DILUPBiCGStab:  Solving for Uz, Initial residual = 0.336912, Final residual = 2.25076e-14, No Iterations 5
linear solve U 2094
[OGL LOG] init_host_sparsity_pattern : 0 ms
[OGL LOG] matrix not stored update host matrix
[OGL LOG] update_host_mtx : 0 ms
[OGL LOG] matrix is not yet sorted, sorting host matrix
[OGL LOG] sort_host_mtx_sparsity_pattern : 0 ms
[OGL LOG] sort_host_mtx : 0 ms
[OGL LOG] init_preconditioner : 0 ms
[OGL LOG] solve : 6 ms
noneompGKOBiCGStab:  Solving for p, Initial residual = 0.0766888, Final residual = 9.8831e-05, No Iterations 43
linear solve p 9883
time step continuity errors : sum local = 1.00449e-07, global = 3.91339e-21, cumulative = -1.9655e-20
[OGL LOG] init_host_sparsity_pattern : 0 ms
[OGL LOG] matrix not stored update host matrix
[OGL LOG] update_host_mtx : 0 ms
[OGL LOG] matrix is not yet sorted, sorting host matrix
[OGL LOG] sort_host_mtx_sparsity_pattern : 0 ms
[OGL LOG] sort_host_mtx : 0 ms
[OGL LOG] init_preconditioner : 0 ms
[OGL LOG] solve : 5 ms
noneompGKOBiCGStab:  Solving for p, Initial residual = 0.0343035, Final residual = 9.71161e-05, No Iterations 35
linear solve p 8467
time step continuity errors : sum local = 1.31739e-07, global = -8.28339e-21, cumulative = -2.79383e-20
ExecutionTime = 0.92 s  ClockTime = 1 s

Time = 0.004

Courant Number mean: 0.0121904 max: 0.073727
DILUPBiCGStab:  Solving for Ux, Initial residual = 0.0723277, Final residual = 2.99011e-15, No Iterations 5
DILUPBiCGStab:  Solving for Uy, Initial residual = 0.0916609, Final residual = 3.02083e-15, No Iterations 5
DILUPBiCGStab:  Solving for Uz, Initial residual = 0.183527, Final residual = 7.00534e-15, No Iterations 5
linear solve U 2178
[OGL LOG] init_host_sparsity_pattern : 0 ms
[OGL LOG] matrix not stored update host matrix
[OGL LOG] update_host_mtx : 0 ms
[OGL LOG] matrix is not yet sorted, sorting host matrix
[OGL LOG] sort_host_mtx_sparsity_pattern : 0 ms
[OGL LOG] sort_host_mtx : 0 ms
[OGL LOG] init_preconditioner : 0 ms
[OGL LOG] solve : 6 ms
noneompGKOBiCGStab:  Solving for p, Initial residual = 0.049332, Final residual = 9.68192e-05, No Iterations 42
linear solve p 9372
time step continuity errors : sum local = 1.65159e-07, global = -1.89201e-20, cumulative = -4.68585e-20
[OGL LOG] init_host_sparsity_pattern : 0 ms
[OGL LOG] matrix not stored update host matrix
[OGL LOG] update_host_mtx : 0 ms
[OGL LOG] matrix is not yet sorted, sorting host matrix
[OGL LOG] sort_host_mtx_sparsity_pattern : 0 ms
[OGL LOG] sort_host_mtx : 0 ms
[OGL LOG] init_preconditioner : 0 ms
[OGL LOG] solve : 4 ms
noneompGKOBiCGStab:  Solving for p, Initial residual = 0.0222015, Final residual = 9.25675e-05, No Iterations 32
linear solve p 7897
time step continuity errors : sum local = 1.19034e-07, global = 1.80838e-20, cumulative = -2.87746e-20
ExecutionTime = 1.11 s  ClockTime = 1 s

Time = 0.005

Courant Number mean: 0.0143061 max: 0.0838052
DILUPBiCGStab:  Solving for Ux, Initial residual = 0.0485652, Final residual = 1.79918e-15, No Iterations 5
DILUPBiCGStab:  Solving for Uy, Initial residual = 0.0627395, Final residual = 1.74772e-15, No Iterations 5
DILUPBiCGStab:  Solving for Uz, Initial residual = 0.130103, Final residual = 5.2975e-15, No Iterations 5
linear solve U 2092
[OGL LOG] init_host_sparsity_pattern : 1 ms
[OGL LOG] matrix not stored update host matrix
[OGL LOG] update_host_mtx : 0 ms
[OGL LOG] matrix is not yet sorted, sorting host matrix
[OGL LOG] sort_host_mtx_sparsity_pattern : 0 ms
[OGL LOG] sort_host_mtx : 0 ms
[OGL LOG] init_preconditioner : 0 ms
[OGL LOG] solve : 12 ms
noneompGKOBiCGStab:  Solving for p, Initial residual = 0.0359747, Final residual = 7.85588e-05, No Iterations 79
linear solve p 15536
time step continuity errors : sum local = 4.55252e-06, global = 1.74469e-20, cumulative = -1.13277e-20
[OGL LOG] init_host_sparsity_pattern : 1 ms
[OGL LOG] matrix not stored update host matrix
[OGL LOG] update_host_mtx : 0 ms
[OGL LOG] matrix is not yet sorted, sorting host matrix
[OGL LOG] sort_host_mtx_sparsity_pattern : 0 ms
[OGL LOG] sort_host_mtx : 0 ms
[OGL LOG] init_preconditioner : 0 ms
[OGL LOG] solve : 10 ms
noneompGKOBiCGStab:  Solving for p, Initial residual = 0.019897, Final residual = 8.16578e-05, No Iterations 69
linear solve p 13835
time step continuity errors : sum local = 7.78587e-07, global = -1.16897e-20, cumulative = -2.30175e-20
ExecutionTime = 1.43 s  ClockTime = 1 s

Time = 0.006

Courant Number mean: 0.0159489 max: 0.0908032
DILUPBiCGStab:  Solving for Ux, Initial residual = 0.0353522, Final residual = 1.17482e-15, No Iterations 5
DILUPBiCGStab:  Solving for Uy, Initial residual = 0.0461053, Final residual = 1.06329e-15, No Iterations 5
DILUPBiCGStab:  Solving for Uz, Initial residual = 0.100193, Final residual = 4.51488e-15, No Iterations 5
linear solve U 2164
[OGL LOG] init_host_sparsity_pattern : 0 ms
[OGL LOG] matrix not stored update host matrix
[OGL LOG] update_host_mtx : 0 ms
[OGL LOG] matrix is not yet sorted, sorting host matrix
[OGL LOG] sort_host_mtx_sparsity_pattern : 0 ms
[OGL LOG] sort_host_mtx : 0 ms
[OGL LOG] init_preconditioner : 0 ms
[OGL LOG] solve : 10 ms
noneompGKOBiCGStab:  Solving for p, Initial residual = 0.0300112, Final residual = 9.25972e-05, No Iterations 70
linear solve p 14069
time step continuity errors : sum local = 1.47365e-06, global = 3.69121e-20, cumulative = 1.38946e-20
[OGL LOG] init_host_sparsity_pattern : 0 ms
[OGL LOG] matrix not stored update host matrix
[OGL LOG] update_host_mtx : 0 ms
[OGL LOG] matrix is not yet sorted, sorting host matrix
[OGL LOG] sort_host_mtx_sparsity_pattern : 0 ms
[OGL LOG] sort_host_mtx : 0 ms
[OGL LOG] init_preconditioner : 0 ms
[OGL LOG] solve : 4 ms
noneompGKOBiCGStab:  Solving for p, Initial residual = 0.0124372, Final residual = 9.93096e-05, No Iterations 31
linear solve p 8059
time step continuity errors : sum local = 1.38743e-07, global = -1.91574e-21, cumulative = 1.19789e-20
ExecutionTime = 1.68 s  ClockTime = 1 s

Time = 0.007

Courant Number mean: 0.0172721 max: 0.0958251
DILUPBiCGStab:  Solving for Ux, Initial residual = 0.0271498, Final residual = 8.71878e-16, No Iterations 5
DILUPBiCGStab:  Solving for Uy, Initial residual = 0.0356572, Final residual = 7.40548e-16, No Iterations 5
DILUPBiCGStab:  Solving for Uz, Initial residual = 0.0801253, Final residual = 3.63751e-15, No Iterations 5
linear solve U 2101
[OGL LOG] init_host_sparsity_pattern : 0 ms
[OGL LOG] matrix not stored update host matrix
[OGL LOG] update_host_mtx : 0 ms
[OGL LOG] matrix is not yet sorted, sorting host matrix
[OGL LOG] sort_host_mtx_sparsity_pattern : 0 ms
[OGL LOG] sort_host_mtx : 0 ms
[OGL LOG] init_preconditioner : 0 ms
[OGL LOG] solve : 5 ms
noneompGKOBiCGStab:  Solving for p, Initial residual = 0.0221624, Final residual = 9.28935e-05, No Iterations 33
linear solve p 8594
time step continuity errors : sum local = 1.67584e-07, global = 2.97496e-21, cumulative = 1.49539e-20
[OGL LOG] init_host_sparsity_pattern : 0 ms
[OGL LOG] matrix not stored update host matrix
[OGL LOG] update_host_mtx : 0 ms
[OGL LOG] matrix is not yet sorted, sorting host matrix
[OGL LOG] sort_host_mtx_sparsity_pattern : 0 ms
[OGL LOG] sort_host_mtx : 0 ms
[OGL LOG] init_preconditioner : 0 ms
[OGL LOG] solve : 4 ms
noneompGKOBiCGStab:  Solving for p, Initial residual = 0.00873428, Final residual = 8.63262e-05, No Iterations 26
linear solve p 7440
time step continuity errors : sum local = 1.71742e-07, global = -1.726e-20, cumulative = -2.30609e-21
ExecutionTime = 1.85 s  ClockTime = 1 s

Time = 0.008

Courant Number mean: 0.0183556 max: 0.0995503
DILUPBiCGStab:  Solving for Ux, Initial residual = 0.0216418, Final residual = 6.3934e-16, No Iterations 5
DILUPBiCGStab:  Solving for Uy, Initial residual = 0.0286337, Final residual = 5.78709e-16, No Iterations 5
DILUPBiCGStab:  Solving for Uz, Initial residual = 0.0650783, Final residual = 2.41252e-15, No Iterations 5
linear solve U 2103
[OGL LOG] init_host_sparsity_pattern : 0 ms
[OGL LOG] matrix not stored update host matrix
[OGL LOG] update_host_mtx : 0 ms
[OGL LOG] matrix is not yet sorted, sorting host matrix
[OGL LOG] sort_host_mtx_sparsity_pattern : 0 ms
[OGL LOG] sort_host_mtx : 0 ms
[OGL LOG] init_preconditioner : 0 ms
[OGL LOG] solve : 5 ms
noneompGKOBiCGStab:  Solving for p, Initial residual = 0.0163451, Final residual = 9.75029e-05, No Iterations 33
linear solve p 8459
time step continuity errors : sum local = 1.85716e-07, global = 1.63368e-20, cumulative = 1.40307e-20
[OGL LOG] init_host_sparsity_pattern : 0 ms
[OGL LOG] matrix not stored update host matrix
[OGL LOG] update_host_mtx : 0 ms
[OGL LOG] matrix is not yet sorted, sorting host matrix
[OGL LOG] sort_host_mtx_sparsity_pattern : 0 ms
[OGL LOG] sort_host_mtx : 0 ms
[OGL LOG] init_preconditioner : 0 ms
[OGL LOG] solve : 4 ms
noneompGKOBiCGStab:  Solving for p, Initial residual = 0.00669293, Final residual = 9.17384e-05, No Iterations 26
linear solve p 7439
time step continuity errors : sum local = 1.89993e-07, global = -4.36222e-20, cumulative = -2.95915e-20
ExecutionTime = 2.04 s  ClockTime = 1 s

Time = 0.009

Courant Number mean: 0.0192556 max: 0.102395
DILUPBiCGStab:  Solving for Ux, Initial residual = 0.0176767, Final residual = 4.37073e-16, No Iterations 5
DILUPBiCGStab:  Solving for Uy, Initial residual = 0.0236315, Final residual = 4.82972e-16, No Iterations 5
DILUPBiCGStab:  Solving for Uz, Initial residual = 0.054549, Final residual = 1.88016e-15, No Iterations 5
linear solve U 2097
[OGL LOG] init_host_sparsity_pattern : 0 ms
[OGL LOG] matrix not stored update host matrix
[OGL LOG] update_host_mtx : 0 ms
[OGL LOG] matrix is not yet sorted, sorting host matrix
[OGL LOG] sort_host_mtx_sparsity_pattern : 0 ms
[OGL LOG] sort_host_mtx : 0 ms
[OGL LOG] init_preconditioner : 0 ms
[OGL LOG] solve : 8 ms
noneompGKOBiCGStab:  Solving for p, Initial residual = 0.01331, Final residual = 9.96876e-05, No Iterations 54
linear solve p 11579
time step continuity errors : sum local = 2.41185e-07, global = -2.28153e-20, cumulative = -5.24068e-20
[OGL LOG] init_host_sparsity_pattern : 0 ms
[OGL LOG] matrix not stored update host matrix
[OGL LOG] update_host_mtx : 0 ms
[OGL LOG] matrix is not yet sorted, sorting host matrix
[OGL LOG] sort_host_mtx_sparsity_pattern : 0 ms
[OGL LOG] sort_host_mtx : 0 ms
[OGL LOG] init_preconditioner : 0 ms
[OGL LOG] solve : 4 ms
noneompGKOBiCGStab:  Solving for p, Initial residual = 0.00545547, Final residual = 9.43999e-05, No Iterations 28
linear solve p 7820
time step continuity errors : sum local = 1.9093e-07, global = 1.92766e-20, cumulative = -3.31301e-20
ExecutionTime = 2.25 s  ClockTime = 1 s

Time = 0.01

Courant Number mean: 0.0200147 max: 0.104627
DILUPBiCGStab:  Solving for Ux, Initial residual = 0.0147292, Final residual = 2.84315e-16, No Iterations 5
DILUPBiCGStab:  Solving for Uy, Initial residual = 0.0199324, Final residual = 4.01444e-16, No Iterations 5
DILUPBiCGStab:  Solving for Uz, Initial residual = 0.04629, Final residual = 1.5741e-15, No Iterations 5
linear solve U 2100
[OGL LOG] init_host_sparsity_pattern : 0 ms
[OGL LOG] matrix not stored update host matrix
[OGL LOG] update_host_mtx : 0 ms
[OGL LOG] matrix is not yet sorted, sorting host matrix
[OGL LOG] sort_host_mtx_sparsity_pattern : 0 ms
[OGL LOG] sort_host_mtx : 0 ms
[OGL LOG] init_preconditioner : 0 ms
[OGL LOG] solve : 8 ms
noneompGKOBiCGStab:  Solving for p, Initial residual = 0.0111524, Final residual = 9.57758e-05, No Iterations 56
linear solve p 11889
time step continuity errors : sum local = 3.63143e-07, global = -9.74832e-21, cumulative = -4.28785e-20
[OGL LOG] init_host_sparsity_pattern : 0 ms
[OGL LOG] matrix not stored update host matrix
[OGL LOG] update_host_mtx : 0 ms
[OGL LOG] matrix is not yet sorted, sorting host matrix
[OGL LOG] sort_host_mtx_sparsity_pattern : 0 ms
[OGL LOG] sort_host_mtx : 0 ms
[OGL LOG] init_preconditioner : 0 ms
[OGL LOG] solve : 4 ms
noneompGKOBiCGStab:  Solving for p, Initial residual = 0.00465494, Final residual = 9.69968e-05, No Iterations 28
linear solve p 8105
time step continuity errors : sum local = 2.11978e-07, global = -6.5095e-20, cumulative = -1.07973e-19
ExecutionTime = 2.47 s  ClockTime = 1 s

End

