/*---------------------------------------------------------------------------*\
  =========                 |
  \\      /  F ield         | OpenFOAM: The Open Source CFD Toolbox
   \\    /   O peration     | Website:  https://openfoam.org
    \\  /    A nd           | Version:  8
     \\/     M anipulation  |
\*---------------------------------------------------------------------------*/
Build  : 8-ef60d22ea792
Exec   : icoFoam
Date   : Jul 29 2021
Time   : 07:23:53
Host   : "nla-gpu2.ianm.kit.edu"
PID    : 1951247
I/O    : uncollated
Case   : /home/greole/code/OBR/lidDrivenCavity3D/Variation_mesh/20/Variation_matrix_solver/CG_BJ_HIP/base
nProcs : 1
sigFpe : Enabling floating point exception trapping (FOAM_SIGFPE).
fileModificationChecking : Monitoring run-time modified files using timeStampMaster (fileModificationSkew 10)
allowSystemOperations : Allowing user-supplied system call operations

// * * * * * * * * * * * * * * * * * * * * * * * * * * * * * * * * * * * * * //
Create time

Create mesh for time = 0

Reading transportProperties

Reading field p

Reading field U

Reading/calculating face flux field phi


Starting time loop

Time = 0.001

Courant Number mean: 0 max: 0
DILUPBiCGStab:  Solving for Ux, Initial residual = 1, Final residual = 1.12203e-10, No Iterations 5
DILUPBiCGStab:  Solving for Uy:  solution singularity
DILUPBiCGStab:  Solving for Uz:  solution singularity
linear solve U 2879
[OGL LOG] init_host_sparsity_pattern : 3 ms
[OGL LOG] matrix not stored update host matrix
[OGL LOG] update_host_mtx : 2 ms
[OGL LOG] matrix is not yet sorted, compute sorting idxs
[OGL LOG] compute_sort : 57 ms
[OGL LOG] matrix is not yet sorted, sorting host matrix
[OGL LOG] sort_host_mtx_sparsity_pattern : 1 ms
[OGL LOG] sort_host_mtx : 0 ms
[OGL LOG] init_preconditioner : 54 ms
 CG create  precond 
[OGL LOG] solve : 57 ms
BJhipGKOCG:  Solving for p, Initial residual = 1, Final residual = 9.21339e-05, No Iterations 137
linear solve p 595655
time step continuity errors : sum local = 4.4024e-08, global = 5.37885e-21, cumulative = 5.37885e-21
[OGL LOG] init_host_sparsity_pattern : 3 ms
[OGL LOG] matrix not stored update host matrix
[OGL LOG] update_host_mtx : 1 ms
[OGL LOG] matrix is not yet sorted, sorting host matrix
[OGL LOG] sort_host_mtx_sparsity_pattern : 1 ms
[OGL LOG] sort_host_mtx : 0 ms
[OGL LOG] init_preconditioner : 0 ms
 CG create  precond 
[OGL LOG] solve : 17 ms
BJhipGKOCG:  Solving for p, Initial residual = 0.411875, Final residual = 8.17115e-05, No Iterations 125
linear solve p 25547
time step continuity errors : sum local = 6.53443e-08, global = -1.20591e-20, cumulative = -6.68021e-21
ExecutionTime = 0.75 s  ClockTime = 1 s

Time = 0.002

Courant Number mean: 0.00876193 max: 0.0682839
DILUPBiCGStab:  Solving for Ux, Initial residual = 0.225322, Final residual = 1.40293e-11, No Iterations 5
DILUPBiCGStab:  Solving for Uy, Initial residual = 0.289647, Final residual = 1.1924e-11, No Iterations 5
DILUPBiCGStab:  Solving for Uz, Initial residual = 0.824978, Final residual = 4.43428e-11, No Iterations 5
linear solve U 5143
[OGL LOG] init_host_sparsity_pattern : 3 ms
[OGL LOG] matrix not stored update host matrix
[OGL LOG] update_host_mtx : 1 ms
[OGL LOG] matrix is not yet sorted, sorting host matrix
[OGL LOG] sort_host_mtx_sparsity_pattern : 1 ms
[OGL LOG] sort_host_mtx : 0 ms
[OGL LOG] init_preconditioner : 0 ms
 CG create  precond 
[OGL LOG] solve : 15 ms
BJhipGKOCG:  Solving for p, Initial residual = 0.212747, Final residual = 8.76011e-05, No Iterations 113
linear solve p 23613
time step continuity errors : sum local = 6.61832e-08, global = 4.54991e-21, cumulative = -2.1303e-21
[OGL LOG] init_host_sparsity_pattern : 3 ms
[OGL LOG] matrix not stored update host matrix
[OGL LOG] update_host_mtx : 1 ms
[OGL LOG] matrix is not yet sorted, sorting host matrix
[OGL LOG] sort_host_mtx_sparsity_pattern : 1 ms
[OGL LOG] sort_host_mtx : 0 ms
[OGL LOG] init_preconditioner : 0 ms
 CG create  precond 
[OGL LOG] solve : 16 ms
BJhipGKOCG:  Solving for p, Initial residual = 0.123057, Final residual = 9.90766e-05, No Iterations 110
linear solve p 24238
time step continuity errors : sum local = 8.00779e-08, global = -2.17797e-21, cumulative = -4.30827e-21
ExecutionTime = 0.84 s  ClockTime = 1 s

Time = 0.003

Courant Number mean: 0.0142441 max: 0.104362
DILUPBiCGStab:  Solving for Ux, Initial residual = 0.102611, Final residual = 5.81903e-12, No Iterations 5
DILUPBiCGStab:  Solving for Uy, Initial residual = 0.135068, Final residual = 5.20361e-12, No Iterations 5
DILUPBiCGStab:  Solving for Uz, Initial residual = 0.293931, Final residual = 1.36509e-11, No Iterations 5
linear solve U 5118
[OGL LOG] init_host_sparsity_pattern : 3 ms
[OGL LOG] matrix not stored update host matrix
[OGL LOG] update_host_mtx : 1 ms
[OGL LOG] matrix is not yet sorted, sorting host matrix
[OGL LOG] sort_host_mtx_sparsity_pattern : 1 ms
[OGL LOG] sort_host_mtx : 0 ms
[OGL LOG] init_preconditioner : 0 ms
 CG create  precond 
[OGL LOG] solve : 17 ms
BJhipGKOCG:  Solving for p, Initial residual = 0.0914685, Final residual = 9.68511e-05, No Iterations 109
linear solve p 25465
time step continuity errors : sum local = 7.77478e-08, global = -1.36194e-20, cumulative = -1.79277e-20
[OGL LOG] init_host_sparsity_pattern : 3 ms
[OGL LOG] matrix not stored update host matrix
[OGL LOG] update_host_mtx : 2 ms
[OGL LOG] matrix is not yet sorted, sorting host matrix
[OGL LOG] sort_host_mtx_sparsity_pattern : 1 ms
[OGL LOG] sort_host_mtx : 0 ms
[OGL LOG] init_preconditioner : 0 ms
 CG create  precond 
[OGL LOG] solve : 17 ms
BJhipGKOCG:  Solving for p, Initial residual = 0.0548987, Final residual = 7.82913e-05, No Iterations 107
linear solve p 26228
time step continuity errors : sum local = 6.52175e-08, global = -6.14187e-21, cumulative = -2.40696e-20
ExecutionTime = 0.92 s  ClockTime = 1 s

Time = 0.004

Courant Number mean: 0.0178686 max: 0.123853
DILUPBiCGStab:  Solving for Ux, Initial residual = 0.0604264, Final residual = 2.83782e-12, No Iterations 5
DILUPBiCGStab:  Solving for Uy, Initial residual = 0.0809456, Final residual = 2.51628e-12, No Iterations 5
DILUPBiCGStab:  Solving for Uz, Initial residual = 0.154321, Final residual = 6.03413e-12, No Iterations 5
linear solve U 5336
[OGL LOG] init_host_sparsity_pattern : 3 ms
[OGL LOG] matrix not stored update host matrix
[OGL LOG] update_host_mtx : 2 ms
[OGL LOG] matrix is not yet sorted, sorting host matrix
[OGL LOG] sort_host_mtx_sparsity_pattern : 1 ms
[OGL LOG] sort_host_mtx : 0 ms
[OGL LOG] init_preconditioner : 0 ms
 CG create  precond 
[OGL LOG] solve : 18 ms
BJhipGKOCG:  Solving for p, Initial residual = 0.0542952, Final residual = 9.92055e-05, No Iterations 107
linear solve p 26505
time step continuity errors : sum local = 8.34291e-08, global = -6.06117e-21, cumulative = -3.01307e-20
[OGL LOG] init_host_sparsity_pattern : 3 ms
[OGL LOG] matrix not stored update host matrix
[OGL LOG] update_host_mtx : 2 ms
[OGL LOG] matrix is not yet sorted, sorting host matrix
[OGL LOG] sort_host_mtx_sparsity_pattern : 1 ms
[OGL LOG] sort_host_mtx : 0 ms
[OGL LOG] init_preconditioner : 0 ms
 CG create  precond 
[OGL LOG] solve : 17 ms
BJhipGKOCG:  Solving for p, Initial residual = 0.0314075, Final residual = 7.9934e-05, No Iterations 103
linear solve p 26166
time step continuity errors : sum local = 6.89605e-08, global = -8.70163e-21, cumulative = -3.88324e-20
ExecutionTime = 1.01 s  ClockTime = 1 s

Time = 0.005

Courant Number mean: 0.0204635 max: 0.135215
DILUPBiCGStab:  Solving for Ux, Initial residual = 0.0403979, Final residual = 1.59893e-12, No Iterations 5
DILUPBiCGStab:  Solving for Uy, Initial residual = 0.0549627, Final residual = 1.29618e-12, No Iterations 5
DILUPBiCGStab:  Solving for Uz, Initial residual = 0.106652, Final residual = 3.61112e-12, No Iterations 5
linear solve U 5109
[OGL LOG] init_host_sparsity_pattern : 3 ms
[OGL LOG] matrix not stored update host matrix
[OGL LOG] update_host_mtx : 2 ms
[OGL LOG] matrix is not yet sorted, sorting host matrix
[OGL LOG] sort_host_mtx_sparsity_pattern : 1 ms
[OGL LOG] sort_host_mtx : 0 ms
[OGL LOG] init_preconditioner : 0 ms
 CG create  precond 
[OGL LOG] solve : 17 ms
BJhipGKOCG:  Solving for p, Initial residual = 0.0356853, Final residual = 8.47859e-05, No Iterations 104
linear solve p 26143
time step continuity errors : sum local = 7.40337e-08, global = 1.43464e-21, cumulative = -3.73977e-20
[OGL LOG] init_host_sparsity_pattern : 3 ms
[OGL LOG] matrix not stored update host matrix
[OGL LOG] update_host_mtx : 2 ms
[OGL LOG] matrix is not yet sorted, sorting host matrix
[OGL LOG] sort_host_mtx_sparsity_pattern : 1 ms
[OGL LOG] sort_host_mtx : 0 ms
[OGL LOG] init_preconditioner : 0 ms
 CG create  precond 
[OGL LOG] solve : 17 ms
BJhipGKOCG:  Solving for p, Initial residual = 0.020154, Final residual = 9.43384e-05, No Iterations 101
linear solve p 25800
time step continuity errors : sum local = 8.37261e-08, global = 3.2933e-20, cumulative = -4.46476e-21
ExecutionTime = 1.11 s  ClockTime = 1 s

Time = 0.006

Courant Number mean: 0.0225084 max: 0.142365
DILUPBiCGStab:  Solving for Ux, Initial residual = 0.0295655, Final residual = 1.18816e-12, No Iterations 5
DILUPBiCGStab:  Solving for Uy, Initial residual = 0.0406118, Final residual = 8.47486e-13, No Iterations 5
DILUPBiCGStab:  Solving for Uz, Initial residual = 0.0811516, Final residual = 2.46261e-12, No Iterations 5
linear solve U 5165
[OGL LOG] init_host_sparsity_pattern : 3 ms
[OGL LOG] matrix not stored update host matrix
[OGL LOG] update_host_mtx : 2 ms
[OGL LOG] matrix is not yet sorted, sorting host matrix
[OGL LOG] sort_host_mtx_sparsity_pattern : 1 ms
[OGL LOG] sort_host_mtx : 0 ms
[OGL LOG] init_preconditioner : 0 ms
 CG create  precond 
[OGL LOG] solve : 17 ms
BJhipGKOCG:  Solving for p, Initial residual = 0.0254315, Final residual = 8.04133e-05, No Iterations 103
linear solve p 26290
time step continuity errors : sum local = 7.20814e-08, global = -8.92735e-21, cumulative = -1.33921e-20
[OGL LOG] init_host_sparsity_pattern : 3 ms
[OGL LOG] matrix not stored update host matrix
[OGL LOG] update_host_mtx : 2 ms
[OGL LOG] matrix is not yet sorted, sorting host matrix
[OGL LOG] sort_host_mtx_sparsity_pattern : 1 ms
[OGL LOG] sort_host_mtx : 0 ms
[OGL LOG] init_preconditioner : 0 ms
 CG create  precond 
[OGL LOG] solve : 16 ms
BJhipGKOCG:  Solving for p, Initial residual = 0.0141238, Final residual = 8.85475e-05, No Iterations 100
linear solve p 25733
time step continuity errors : sum local = 8.0307e-08, global = 2.87916e-20, cumulative = 1.53995e-20
ExecutionTime = 1.19 s  ClockTime = 1 s

Time = 0.007

Courant Number mean: 0.0241614 max: 0.147196
DILUPBiCGStab:  Solving for Ux, Initial residual = 0.0229934, Final residual = 6.69612e-13, No Iterations 5
DILUPBiCGStab:  Solving for Uy, Initial residual = 0.0317459, Final residual = 6.50377e-13, No Iterations 5
DILUPBiCGStab:  Solving for Uz, Initial residual = 0.0648875, Final residual = 1.80198e-12, No Iterations 5
linear solve U 5174
[OGL LOG] init_host_sparsity_pattern : 3 ms
[OGL LOG] matrix not stored update host matrix
[OGL LOG] update_host_mtx : 2 ms
[OGL LOG] matrix is not yet sorted, sorting host matrix
[OGL LOG] sort_host_mtx_sparsity_pattern : 1 ms
[OGL LOG] sort_host_mtx : 0 ms
[OGL LOG] init_preconditioner : 0 ms
 CG create  precond 
[OGL LOG] solve : 17 ms
BJhipGKOCG:  Solving for p, Initial residual = 0.0186599, Final residual = 9.54388e-05, No Iterations 101
linear solve p 26011
time step continuity errors : sum local = 8.71682e-08, global = 2.04445e-20, cumulative = 3.58441e-20
[OGL LOG] init_host_sparsity_pattern : 3 ms
[OGL LOG] matrix not stored update host matrix
[OGL LOG] update_host_mtx : 2 ms
[OGL LOG] matrix is not yet sorted, sorting host matrix
[OGL LOG] sort_host_mtx_sparsity_pattern : 1 ms
[OGL LOG] sort_host_mtx : 0 ms
[OGL LOG] init_preconditioner : 0 ms
 CG create  precond 
[OGL LOG] solve : 7 ms
BJhipGKOCG:  Solving for p, Initial residual = 0.0104137, Final residual = 9.55636e-05, No Iterations 44
linear solve p 16539
time step continuity errors : sum local = 1.08839e-07, global = -3.21022e-20, cumulative = 3.74188e-21
ExecutionTime = 1.26 s  ClockTime = 1 s

Time = 0.008

Courant Number mean: 0.0255322 max: 0.150665
DILUPBiCGStab:  Solving for Ux, Initial residual = 0.0184836, Final residual = 3.54311e-13, No Iterations 5
DILUPBiCGStab:  Solving for Uy, Initial residual = 0.0258053, Final residual = 5.05979e-13, No Iterations 5
DILUPBiCGStab:  Solving for Uz, Initial residual = 0.0535765, Final residual = 1.46389e-12, No Iterations 5
linear solve U 5175
[OGL LOG] init_host_sparsity_pattern : 3 ms
[OGL LOG] matrix not stored update host matrix
[OGL LOG] update_host_mtx : 2 ms
[OGL LOG] matrix is not yet sorted, sorting host matrix
[OGL LOG] sort_host_mtx_sparsity_pattern : 1 ms
[OGL LOG] sort_host_mtx : 0 ms
[OGL LOG] init_preconditioner : 0 ms
 CG create  precond 
[OGL LOG] solve : 8 ms
BJhipGKOCG:  Solving for p, Initial residual = 0.01484, Final residual = 9.21409e-05, No Iterations 46
linear solve p 16797
time step continuity errors : sum local = 9.49453e-08, global = -2.28153e-20, cumulative = -1.90734e-20
[OGL LOG] init_host_sparsity_pattern : 3 ms
[OGL LOG] matrix not stored update host matrix
[OGL LOG] update_host_mtx : 2 ms
[OGL LOG] matrix is not yet sorted, sorting host matrix
[OGL LOG] sort_host_mtx_sparsity_pattern : 1 ms
[OGL LOG] sort_host_mtx : 0 ms
[OGL LOG] init_preconditioner : 0 ms
 CG create  precond 
[OGL LOG] solve : 7 ms
BJhipGKOCG:  Solving for p, Initial residual = 0.00836911, Final residual = 8.88034e-05, No Iterations 43
linear solve p 16231
time step continuity errors : sum local = 1.00983e-07, global = 1.40308e-20, cumulative = -5.04262e-21
ExecutionTime = 1.31 s  ClockTime = 1 s

Time = 0.009

Courant Number mean: 0.0266823 max: 0.153283
DILUPBiCGStab:  Solving for Ux, Initial residual = 0.0152519, Final residual = 2.01929e-13, No Iterations 5
DILUPBiCGStab:  Solving for Uy, Initial residual = 0.021544, Final residual = 3.95885e-13, No Iterations 5
DILUPBiCGStab:  Solving for Uz, Initial residual = 0.0450936, Final residual = 1.09588e-12, No Iterations 5
linear solve U 5197
[OGL LOG] init_host_sparsity_pattern : 3 ms
[OGL LOG] matrix not stored update host matrix
[OGL LOG] update_host_mtx : 2 ms
[OGL LOG] matrix is not yet sorted, sorting host matrix
[OGL LOG] sort_host_mtx_sparsity_pattern : 1 ms
[OGL LOG] sort_host_mtx : 0 ms
[OGL LOG] init_preconditioner : 0 ms
 CG create  precond 
[OGL LOG] solve : 7 ms
BJhipGKOCG:  Solving for p, Initial residual = 0.0119847, Final residual = 8.71727e-05, No Iterations 45
linear solve p 16452
time step continuity errors : sum local = 8.22653e-08, global = 5.07724e-21, cumulative = 3.46136e-23
[OGL LOG] init_host_sparsity_pattern : 3 ms
[OGL LOG] matrix not stored update host matrix
[OGL LOG] update_host_mtx : 2 ms
[OGL LOG] matrix is not yet sorted, sorting host matrix
[OGL LOG] sort_host_mtx_sparsity_pattern : 1 ms
[OGL LOG] sort_host_mtx : 0 ms
[OGL LOG] init_preconditioner : 0 ms
 CG create  precond 
[OGL LOG] solve : 7 ms
BJhipGKOCG:  Solving for p, Initial residual = 0.00686422, Final residual = 9.76559e-05, No Iterations 41
linear solve p 15894
time step continuity errors : sum local = 1.0171e-07, global = -2.08493e-20, cumulative = -2.08147e-20
ExecutionTime = 1.37 s  ClockTime = 1 s

Time = 0.01

Courant Number mean: 0.0276669 max: 0.155336
DILUPBiCGStab:  Solving for Ux, Initial residual = 0.0129087, Final residual = 1.3091e-13, No Iterations 5
DILUPBiCGStab:  Solving for Uy, Initial residual = 0.0183563, Final residual = 3.10658e-13, No Iterations 5
DILUPBiCGStab:  Solving for Uz, Initial residual = 0.0386714, Final residual = 8.8213e-13, No Iterations 5
linear solve U 5181
[OGL LOG] init_host_sparsity_pattern : 3 ms
[OGL LOG] matrix not stored update host matrix
[OGL LOG] update_host_mtx : 2 ms
[OGL LOG] matrix is not yet sorted, sorting host matrix
[OGL LOG] sort_host_mtx_sparsity_pattern : 1 ms
[OGL LOG] sort_host_mtx : 0 ms
[OGL LOG] init_preconditioner : 0 ms
 CG create  precond 
[OGL LOG] solve : 7 ms
BJhipGKOCG:  Solving for p, Initial residual = 0.00997617, Final residual = 8.83222e-05, No Iterations 44
linear solve p 16472
time step continuity errors : sum local = 8.8571e-08, global = -3.76895e-20, cumulative = -5.85042e-20
[OGL LOG] init_host_sparsity_pattern : 3 ms
[OGL LOG] matrix not stored update host matrix
[OGL LOG] update_host_mtx : 2 ms
[OGL LOG] matrix is not yet sorted, sorting host matrix
[OGL LOG] sort_host_mtx_sparsity_pattern : 1 ms
[OGL LOG] sort_host_mtx : 0 ms
[OGL LOG] init_preconditioner : 0 ms
 CG create  precond 
[OGL LOG] solve : 7 ms
BJhipGKOCG:  Solving for p, Initial residual = 0.00578247, Final residual = 9.65447e-05, No Iterations 40
linear solve p 15775
time step continuity errors : sum local = 9.37296e-08, global = 2.48216e-21, cumulative = -5.6022e-20
ExecutionTime = 1.42 s  ClockTime = 1 s

End

