/*---------------------------------------------------------------------------*\
  =========                 |
  \\      /  F ield         | OpenFOAM: The Open Source CFD Toolbox
   \\    /   O peration     | Website:  https://openfoam.org
    \\  /    A nd           | Version:  8
     \\/     M anipulation  |
\*---------------------------------------------------------------------------*/
Build  : 8-ef60d22ea792
Exec   : icoFoam
Date   : Jul 29 2021
Time   : 07:56:56
Host   : "nla-gpu2.ianm.kit.edu"
PID    : 1968097
I/O    : uncollated
Case   : /home/greole/code/OBR/lidDrivenCavity3D/Variation_mesh/50/Variation_matrix_solver/CG_NoPrecond_Serial/base
nProcs : 1
sigFpe : Enabling floating point exception trapping (FOAM_SIGFPE).
fileModificationChecking : Monitoring run-time modified files using timeStampMaster (fileModificationSkew 10)
allowSystemOperations : Allowing user-supplied system call operations

// * * * * * * * * * * * * * * * * * * * * * * * * * * * * * * * * * * * * * //
Create time

Create mesh for time = 0

Reading transportProperties

Reading field p

Reading field U

Reading/calculating face flux field phi


Starting time loop

Time = 0.001

Courant Number mean: 0 max: 0
DILUPBiCGStab:  Solving for Ux, Initial residual = 1, Final residual = 0.000120903, No Iterations 5
DILUPBiCGStab:  Solving for Uy:  solution singularity
DILUPBiCGStab:  Solving for Uz:  solution singularity
linear solve U 49816
nonePCG:  Solving for p, Initial residual = 1, Final residual = 9.32041e-05, No Iterations 389
linear solve p 502181
time step continuity errors : sum local = 5.39351e-08, global = -9.19161e-21, cumulative = -9.19161e-21
nonePCG:  Solving for p, Initial residual = 0.658359, Final residual = 9.06595e-05, No Iterations 384
linear solve p 508548
time step continuity errors : sum local = 7.41666e-08, global = -3.14639e-22, cumulative = -9.50624e-21
ExecutionTime = 1.68 s  ClockTime = 2 s

Time = 0.002

Courant Number mean: 0.027493 max: 0.32948
DILUPBiCGStab:  Solving for Ux, Initial residual = 0.167076, Final residual = 2.7982e-05, No Iterations 5
DILUPBiCGStab:  Solving for Uy, Initial residual = 0.31525, Final residual = 4.21819e-05, No Iterations 5
DILUPBiCGStab:  Solving for Uz, Initial residual = 0.972832, Final residual = 0.000171025, No Iterations 5
linear solve U 92469
nonePCG:  Solving for p, Initial residual = 0.543045, Final residual = 9.58298e-05, No Iterations 381
linear solve p 474506
time step continuity errors : sum local = 7.69776e-08, global = -1.44704e-20, cumulative = -2.39767e-20
nonePCG:  Solving for p, Initial residual = 0.456892, Final residual = 8.12449e-05, No Iterations 380
linear solve p 499992
time step continuity errors : sum local = 6.74586e-08, global = -3.99104e-21, cumulative = -2.79677e-20
ExecutionTime = 2.8 s  ClockTime = 3 s

Time = 0.003

Courant Number mean: 0.0414301 max: 0.409638
DILUPBiCGStab:  Solving for Ux, Initial residual = 0.0555309, Final residual = 8.56966e-06, No Iterations 5
DILUPBiCGStab:  Solving for Uy, Initial residual = 0.0997777, Final residual = 9.93974e-06, No Iterations 5
DILUPBiCGStab:  Solving for Uz, Initial residual = 0.135221, Final residual = 1.56065e-05, No Iterations 5
linear solve U 91707
nonePCG:  Solving for p, Initial residual = 0.309208, Final residual = 9.72471e-05, No Iterations 363
linear solve p 454647
time step continuity errors : sum local = 5.6368e-08, global = -2.04167e-20, cumulative = -4.83844e-20
nonePCG:  Solving for p, Initial residual = 0.258211, Final residual = 9.96002e-05, No Iterations 360
linear solve p 463255
time step continuity errors : sum local = 5.66517e-08, global = 4.76628e-21, cumulative = -4.36181e-20
ExecutionTime = 3.86 s  ClockTime = 4 s

Time = 0.004

Courant Number mean: 0.049393 max: 0.429157
DILUPBiCGStab:  Solving for Ux, Initial residual = 0.0329814, Final residual = 2.25574e-06, No Iterations 5
DILUPBiCGStab:  Solving for Uy, Initial residual = 0.0643018, Final residual = 4.37483e-06, No Iterations 5
DILUPBiCGStab:  Solving for Uz, Initial residual = 0.118583, Final residual = 1.49061e-05, No Iterations 5
linear solve U 93461
nonePCG:  Solving for p, Initial residual = 0.147017, Final residual = 9.91399e-05, No Iterations 353
linear solve p 452913
time step continuity errors : sum local = 5.48137e-08, global = 6.78088e-22, cumulative = -4.294e-20
nonePCG:  Solving for p, Initial residual = 0.117105, Final residual = 9.85411e-05, No Iterations 349
linear solve p 435463
time step continuity errors : sum local = 5.5134e-08, global = -2.95149e-21, cumulative = -4.58915e-20
ExecutionTime = 4.9 s  ClockTime = 5 s

Time = 0.005

Courant Number mean: 0.0552654 max: 0.438882
DILUPBiCGStab:  Solving for Ux, Initial residual = 0.0231871, Final residual = 1.13219e-06, No Iterations 5
DILUPBiCGStab:  Solving for Uy, Initial residual = 0.0443369, Final residual = 2.62518e-06, No Iterations 5
DILUPBiCGStab:  Solving for Uz, Initial residual = 0.0748103, Final residual = 6.41028e-06, No Iterations 5
linear solve U 95345
nonePCG:  Solving for p, Initial residual = 0.0741166, Final residual = 9.8226e-05, No Iterations 344
linear solve p 438587
time step continuity errors : sum local = 5.22032e-08, global = -1.05563e-20, cumulative = -5.64478e-20
nonePCG:  Solving for p, Initial residual = 0.061005, Final residual = 9.38752e-05, No Iterations 343
linear solve p 435693
time step continuity errors : sum local = 4.98995e-08, global = -3.86594e-21, cumulative = -6.03137e-20
ExecutionTime = 5.92 s  ClockTime = 6 s

Time = 0.006

Courant Number mean: 0.0598382 max: 0.444769
DILUPBiCGStab:  Solving for Ux, Initial residual = 0.0176068, Final residual = 7.51471e-07, No Iterations 5
DILUPBiCGStab:  Solving for Uy, Initial residual = 0.0339597, Final residual = 1.2362e-06, No Iterations 5
DILUPBiCGStab:  Solving for Uz, Initial residual = 0.0589248, Final residual = 3.73082e-06, No Iterations 5
linear solve U 91897
nonePCG:  Solving for p, Initial residual = 0.0464149, Final residual = 9.45805e-05, No Iterations 342
linear solve p 427371
time step continuity errors : sum local = 4.98587e-08, global = -1.38676e-20, cumulative = -7.41813e-20
nonePCG:  Solving for p, Initial residual = 0.0383592, Final residual = 9.69947e-05, No Iterations 170
linear solve p 220898
time step continuity errors : sum local = 6.22561e-08, global = 1.53998e-20, cumulative = -5.87815e-20
ExecutionTime = 6.71 s  ClockTime = 7 s

Time = 0.007

Courant Number mean: 0.063583 max: 0.448842
DILUPBiCGStab:  Solving for Ux, Initial residual = 0.0140347, Final residual = 6.46976e-07, No Iterations 5
DILUPBiCGStab:  Solving for Uy, Initial residual = 0.0272412, Final residual = 7.65106e-07, No Iterations 5
DILUPBiCGStab:  Solving for Uz, Initial residual = 0.0490847, Final residual = 2.36213e-06, No Iterations 5
linear solve U 92865
nonePCG:  Solving for p, Initial residual = 0.0312121, Final residual = 9.98641e-05, No Iterations 340
linear solve p 425880
time step continuity errors : sum local = 5.26189e-08, global = -7.46646e-21, cumulative = -6.6248e-20
nonePCG:  Solving for p, Initial residual = 0.0267102, Final residual = 9.9186e-05, No Iterations 156
linear solve p 207679
time step continuity errors : sum local = 5.72425e-08, global = -1.32201e-20, cumulative = -7.94681e-20
ExecutionTime = 7.49 s  ClockTime = 8 s

Time = 0.008

Courant Number mean: 0.066697 max: 0.45185
DILUPBiCGStab:  Solving for Ux, Initial residual = 0.0115712, Final residual = 5.69368e-07, No Iterations 5
DILUPBiCGStab:  Solving for Uy, Initial residual = 0.0225003, Final residual = 4.42896e-07, No Iterations 5
DILUPBiCGStab:  Solving for Uz, Initial residual = 0.0416155, Final residual = 1.64377e-06, No Iterations 5
linear solve U 93744
nonePCG:  Solving for p, Initial residual = 0.0224537, Final residual = 9.31748e-05, No Iterations 338
linear solve p 431325
time step continuity errors : sum local = 4.91131e-08, global = -4.75041e-21, cumulative = -8.42185e-20
nonePCG:  Solving for p, Initial residual = 0.0195507, Final residual = 9.8212e-05, No Iterations 336
linear solve p 443350
time step continuity errors : sum local = 5.18793e-08, global = 3.33241e-21, cumulative = -8.08861e-20
ExecutionTime = 8.51 s  ClockTime = 9 s

Time = 0.009

Courant Number mean: 0.0693805 max: 0.454186
DILUPBiCGStab:  Solving for Ux, Initial residual = 0.00972788, Final residual = 4.53896e-07, No Iterations 5
DILUPBiCGStab:  Solving for Uy, Initial residual = 0.019047, Final residual = 3.01323e-07, No Iterations 5
DILUPBiCGStab:  Solving for Uz, Initial residual = 0.0352893, Final residual = 1.09369e-06, No Iterations 5
linear solve U 91319
nonePCG:  Solving for p, Initial residual = 0.0181549, Final residual = 9.60502e-05, No Iterations 152
linear solve p 191586
time step continuity errors : sum local = 5.35208e-08, global = 1.18493e-20, cumulative = -6.90368e-20
nonePCG:  Solving for p, Initial residual = 0.0160508, Final residual = 9.3413e-05, No Iterations 149
linear solve p 191289
time step continuity errors : sum local = 4.98087e-08, global = -9.25596e-22, cumulative = -6.99624e-20
ExecutionTime = 9.04 s  ClockTime = 9 s

Time = 0.01

Courant Number mean: 0.0717117 max: 0.456054
DILUPBiCGStab:  Solving for Ux, Initial residual = 0.00832501, Final residual = 3.60266e-07, No Iterations 5
DILUPBiCGStab:  Solving for Uy, Initial residual = 0.0163987, Final residual = 2.17165e-07, No Iterations 5
DILUPBiCGStab:  Solving for Uz, Initial residual = 0.0305277, Final residual = 8.30987e-07, No Iterations 5
linear solve U 91719
nonePCG:  Solving for p, Initial residual = 0.0150422, Final residual = 9.83993e-05, No Iterations 149
linear solve p 190473
time step continuity errors : sum local = 5.52677e-08, global = -6.64794e-21, cumulative = -7.66103e-20
nonePCG:  Solving for p, Initial residual = 0.0134406, Final residual = 9.8666e-05, No Iterations 145
linear solve p 183310
time step continuity errors : sum local = 5.31674e-08, global = 9.83007e-22, cumulative = -7.56273e-20
ExecutionTime = 9.56 s  ClockTime = 10 s

End

