/*---------------------------------------------------------------------------*\
  =========                 |
  \\      /  F ield         | OpenFOAM: The Open Source CFD Toolbox
   \\    /   O peration     | Website:  https://openfoam.org
    \\  /    A nd           | Version:  8
     \\/     M anipulation  |
\*---------------------------------------------------------------------------*/
Build  : 8-14d69e1ee166
Exec   : icoFoam
Date   : Jul 29 2021
Time   : 06:53:02
Host   : "guyot.icl.utk.edu"
PID    : 199367
I/O    : uncollated
Case   : /home/greole/code/OBR/lidDrivenCavity3D/Variation_mesh/85/Variation_matrix_solver/CG_NoPrecond_CUDA/base
nProcs : 1
sigFpe : Enabling floating point exception trapping (FOAM_SIGFPE).
fileModificationChecking : Monitoring run-time modified files using timeStampMaster (fileModificationSkew 10)
allowSystemOperations : Allowing user-supplied system call operations

// * * * * * * * * * * * * * * * * * * * * * * * * * * * * * * * * * * * * * //
Create time

Create mesh for time = 0

Reading transportProperties

Reading field p

Reading field U

Reading/calculating face flux field phi


Starting time loop

Time = 0.001

Courant Number mean: 0 max: 0
DILUPBiCGStab:  Solving for Ux, Initial residual = 1, Final residual = 0.00382019, No Iterations 5
DILUPBiCGStab:  Solving for Uy:  solution singularity
DILUPBiCGStab:  Solving for Uz:  solution singularity
linear solve U 240887
[OGL LOG] init_host_sparsity_pattern : 280 ms
[OGL LOG] matrix not stored update host matrix
[OGL LOG] update_host_mtx : 140 ms
[OGL LOG] matrix is not yet sorted, compute sorting idxs
[OGL LOG] compute_sort : 6459 ms
[OGL LOG] matrix is not yet sorted, sorting host matrix
[OGL LOG] sort_host_mtx_sparsity_pattern : 129 ms
[OGL LOG] sort_host_mtx : 77 ms
[OGL LOG] init_preconditioner : 0 ms
[OGL LOG] solve : 681 ms
nonecudaGKOCG:  Solving for p, Initial residual = 1, Final residual = 9.90803e-05, No Iterations 670
linear solve p 9505412
time step continuity errors : sum local = 5.78907e-08, global = -2.23736e-21, cumulative = -2.23736e-21
[OGL LOG] init_host_sparsity_pattern : 270 ms
[OGL LOG] matrix not stored update host matrix
[OGL LOG] update_host_mtx : 143 ms
[OGL LOG] matrix is not yet sorted, sorting host matrix
[OGL LOG] sort_host_mtx_sparsity_pattern : 103 ms
[OGL LOG] sort_host_mtx : 67 ms
[OGL LOG] init_preconditioner : 0 ms
[OGL LOG] solve : 656 ms
nonecudaGKOCG:  Solving for p, Initial residual = 0.755067, Final residual = 9.57621e-05, No Iterations 662
linear solve p 1279463
time step continuity errors : sum local = 7.21545e-08, global = 2.17799e-21, cumulative = -5.93655e-23
ExecutionTime = 13.8 s  ClockTime = 14 s

Time = 0.002

Courant Number mean: 0.0479746 max: 0.661591
DILUPBiCGStab:  Solving for Ux, Initial residual = 0.144106, Final residual = 0.00147913, No Iterations 5
DILUPBiCGStab:  Solving for Uy, Initial residual = 0.396913, Final residual = 0.00365136, No Iterations 5
DILUPBiCGStab:  Solving for Uz, Initial residual = 0.988281, Final residual = 0.0100644, No Iterations 5
linear solve U 492089
[OGL LOG] init_host_sparsity_pattern : 269 ms
[OGL LOG] matrix not stored update host matrix
[OGL LOG] update_host_mtx : 143 ms
[OGL LOG] matrix is not yet sorted, sorting host matrix
[OGL LOG] sort_host_mtx_sparsity_pattern : 104 ms
[OGL LOG] sort_host_mtx : 65 ms
[OGL LOG] init_preconditioner : 0 ms
[OGL LOG] solve : 654 ms
nonecudaGKOCG:  Solving for p, Initial residual = 0.745874, Final residual = 9.99842e-05, No Iterations 658
linear solve p 1274102
time step continuity errors : sum local = 9.29666e-08, global = -3.5054e-22, cumulative = -4.09906e-22
[OGL LOG] init_host_sparsity_pattern : 270 ms
[OGL LOG] matrix not stored update host matrix
[OGL LOG] update_host_mtx : 143 ms
[OGL LOG] matrix is not yet sorted, sorting host matrix
[OGL LOG] sort_host_mtx_sparsity_pattern : 109 ms
[OGL LOG] sort_host_mtx : 65 ms
[OGL LOG] init_preconditioner : 0 ms
[OGL LOG] solve : 648 ms
nonecudaGKOCG:  Solving for p, Initial residual = 0.68084, Final residual = 9.43142e-05, No Iterations 657
linear solve p 1273280
time step continuity errors : sum local = 8.95079e-08, global = 1.20575e-21, cumulative = 7.95847e-22
ExecutionTime = 17.17 s  ClockTime = 17 s

Time = 0.003

Courant Number mean: 0.0723207 max: 0.775882
DILUPBiCGStab:  Solving for Ux, Initial residual = 0.0580474, Final residual = 0.000501143, No Iterations 5
DILUPBiCGStab:  Solving for Uy, Initial residual = 0.162043, Final residual = 0.0014036, No Iterations 5
DILUPBiCGStab:  Solving for Uz, Initial residual = 0.731041, Final residual = 0.00679798, No Iterations 5
linear solve U 514350
[OGL LOG] init_host_sparsity_pattern : 270 ms
[OGL LOG] matrix not stored update host matrix
[OGL LOG] update_host_mtx : 143 ms
[OGL LOG] matrix is not yet sorted, sorting host matrix
[OGL LOG] sort_host_mtx_sparsity_pattern : 110 ms
[OGL LOG] sort_host_mtx : 67 ms
[OGL LOG] init_preconditioner : 0 ms
[OGL LOG] solve : 390 ms
nonecudaGKOCG:  Solving for p, Initial residual = 0.746309, Final residual = 9.81944e-05, No Iterations 393
linear solve p 1019566
time step continuity errors : sum local = 8.18605e-08, global = 9.39651e-21, cumulative = 1.01924e-20
[OGL LOG] init_host_sparsity_pattern : 271 ms
[OGL LOG] matrix not stored update host matrix
[OGL LOG] update_host_mtx : 144 ms
[OGL LOG] matrix is not yet sorted, sorting host matrix
[OGL LOG] sort_host_mtx_sparsity_pattern : 111 ms
[OGL LOG] sort_host_mtx : 68 ms
[OGL LOG] init_preconditioner : 0 ms
[OGL LOG] solve : 385 ms
nonecudaGKOCG:  Solving for p, Initial residual = 0.706527, Final residual = 9.96522e-05, No Iterations 387
linear solve p 1017055
time step continuity errors : sum local = 7.55979e-08, global = 3.57865e-21, cumulative = 1.3771e-20
ExecutionTime = 20.07 s  ClockTime = 20 s

Time = 0.004

Courant Number mean: 0.0841985 max: 0.778373
DILUPBiCGStab:  Solving for Ux, Initial residual = 0.0310188, Final residual = 0.00029341, No Iterations 5
DILUPBiCGStab:  Solving for Uy, Initial residual = 0.113894, Final residual = 0.00099481, No Iterations 5
DILUPBiCGStab:  Solving for Uz, Initial residual = 0.457898, Final residual = 0.00357793, No Iterations 5
linear solve U 516930
[OGL LOG] init_host_sparsity_pattern : 270 ms
[OGL LOG] matrix not stored update host matrix
[OGL LOG] update_host_mtx : 139 ms
[OGL LOG] matrix is not yet sorted, sorting host matrix
[OGL LOG] sort_host_mtx_sparsity_pattern : 108 ms
[OGL LOG] sort_host_mtx : 65 ms
[OGL LOG] init_preconditioner : 0 ms
[OGL LOG] solve : 362 ms
nonecudaGKOCG:  Solving for p, Initial residual = 0.59245, Final residual = 9.95645e-05, No Iterations 362
linear solve p 983787
time step continuity errors : sum local = 6.70632e-08, global = 6.04781e-21, cumulative = 1.98188e-20
[OGL LOG] init_host_sparsity_pattern : 270 ms
[OGL LOG] matrix not stored update host matrix
[OGL LOG] update_host_mtx : 139 ms
[OGL LOG] matrix is not yet sorted, sorting host matrix
[OGL LOG] sort_host_mtx_sparsity_pattern : 107 ms
[OGL LOG] sort_host_mtx : 70 ms
[OGL LOG] init_preconditioner : 0 ms
[OGL LOG] solve : 355 ms
nonecudaGKOCG:  Solving for p, Initial residual = 0.52883, Final residual = 9.92435e-05, No Iterations 357
linear solve p 980832
time step continuity errors : sum local = 6.62254e-08, global = 2.84645e-21, cumulative = 2.26653e-20
ExecutionTime = 22.9 s  ClockTime = 23 s

Time = 0.005

Courant Number mean: 0.0944146 max: 0.789472
DILUPBiCGStab:  Solving for Ux, Initial residual = 0.0232298, Final residual = 0.000192051, No Iterations 5
DILUPBiCGStab:  Solving for Uy, Initial residual = 0.058777, Final residual = 0.000431794, No Iterations 5
DILUPBiCGStab:  Solving for Uz, Initial residual = 0.26712, Final residual = 0.00208931, No Iterations 5
linear solve U 512481
[OGL LOG] init_host_sparsity_pattern : 271 ms
[OGL LOG] matrix not stored update host matrix
[OGL LOG] update_host_mtx : 144 ms
[OGL LOG] matrix is not yet sorted, sorting host matrix
[OGL LOG] sort_host_mtx_sparsity_pattern : 115 ms
[OGL LOG] sort_host_mtx : 65 ms
[OGL LOG] init_preconditioner : 0 ms
[OGL LOG] solve : 622 ms
nonecudaGKOCG:  Solving for p, Initial residual = 0.548349, Final residual = 9.83976e-05, No Iterations 630
linear solve p 1255004
time step continuity errors : sum local = 5.01012e-08, global = 1.04372e-20, cumulative = 3.31024e-20
[OGL LOG] init_host_sparsity_pattern : 271 ms
[OGL LOG] matrix not stored update host matrix
[OGL LOG] update_host_mtx : 144 ms
[OGL LOG] matrix is not yet sorted, sorting host matrix
[OGL LOG] sort_host_mtx_sparsity_pattern : 111 ms
[OGL LOG] sort_host_mtx : 69 ms
[OGL LOG] init_preconditioner : 0 ms
[OGL LOG] solve : 640 ms
nonecudaGKOCG:  Solving for p, Initial residual = 0.495424, Final residual = 9.80025e-05, No Iterations 644
linear solve p 1274969
time step continuity errors : sum local = 4.93491e-08, global = -1.21261e-20, cumulative = 2.09763e-20
ExecutionTime = 26.29 s  ClockTime = 26 s

Time = 0.006

Courant Number mean: 0.101921 max: 0.79516
DILUPBiCGStab:  Solving for Ux, Initial residual = 0.0150869, Final residual = 0.000114136, No Iterations 5
DILUPBiCGStab:  Solving for Uy, Initial residual = 0.0475355, Final residual = 0.000338808, No Iterations 5
DILUPBiCGStab:  Solving for Uz, Initial residual = 0.192145, Final residual = 0.00152884, No Iterations 5
linear solve U 516985
[OGL LOG] init_host_sparsity_pattern : 270 ms
[OGL LOG] matrix not stored update host matrix
[OGL LOG] update_host_mtx : 139 ms
[OGL LOG] matrix is not yet sorted, sorting host matrix
[OGL LOG] sort_host_mtx_sparsity_pattern : 109 ms
[OGL LOG] sort_host_mtx : 68 ms
[OGL LOG] init_preconditioner : 0 ms
[OGL LOG] solve : 337 ms
nonecudaGKOCG:  Solving for p, Initial residual = 0.404053, Final residual = 9.85505e-05, No Iterations 338
linear solve p 962293
time step continuity errors : sum local = 5.1253e-08, global = 1.99115e-20, cumulative = 4.08878e-20
[OGL LOG] init_host_sparsity_pattern : 270 ms
[OGL LOG] matrix not stored update host matrix
[OGL LOG] update_host_mtx : 139 ms
[OGL LOG] matrix is not yet sorted, sorting host matrix
[OGL LOG] sort_host_mtx_sparsity_pattern : 113 ms
[OGL LOG] sort_host_mtx : 69 ms
[OGL LOG] init_preconditioner : 0 ms
[OGL LOG] solve : 305 ms
nonecudaGKOCG:  Solving for p, Initial residual = 0.35285, Final residual = 9.98624e-05, No Iterations 307
linear solve p 936574
time step continuity errors : sum local = 4.88661e-08, global = -1.05434e-20, cumulative = 3.03444e-20
ExecutionTime = 29.05 s  ClockTime = 29 s

Time = 0.007

Courant Number mean: 0.108308 max: 0.798727
DILUPBiCGStab:  Solving for Ux, Initial residual = 0.0125487, Final residual = 8.34825e-05, No Iterations 5
DILUPBiCGStab:  Solving for Uy, Initial residual = 0.0315104, Final residual = 0.000143871, No Iterations 5
DILUPBiCGStab:  Solving for Uz, Initial residual = 0.108449, Final residual = 0.00106074, No Iterations 5
linear solve U 513732
[OGL LOG] init_host_sparsity_pattern : 270 ms
[OGL LOG] matrix not stored update host matrix
[OGL LOG] update_host_mtx : 143 ms
[OGL LOG] matrix is not yet sorted, sorting host matrix
[OGL LOG] sort_host_mtx_sparsity_pattern : 118 ms
[OGL LOG] sort_host_mtx : 68 ms
[OGL LOG] init_preconditioner : 0 ms
[OGL LOG] solve : 301 ms
nonecudaGKOCG:  Solving for p, Initial residual = 0.34886, Final residual = 9.14607e-05, No Iterations 303
linear solve p 941492
time step continuity errors : sum local = 3.77967e-08, global = -2.26136e-20, cumulative = 7.73078e-21
[OGL LOG] init_host_sparsity_pattern : 270 ms
[OGL LOG] matrix not stored update host matrix
[OGL LOG] update_host_mtx : 139 ms
[OGL LOG] matrix is not yet sorted, sorting host matrix
[OGL LOG] sort_host_mtx_sparsity_pattern : 112 ms
[OGL LOG] sort_host_mtx : 65 ms
[OGL LOG] init_preconditioner : 0 ms
[OGL LOG] solve : 301 ms
nonecudaGKOCG:  Solving for p, Initial residual = 0.303422, Final residual = 9.78398e-05, No Iterations 301
linear solve p 924940
time step continuity errors : sum local = 4.02054e-08, global = 1.10343e-20, cumulative = 1.87651e-20
ExecutionTime = 31.77 s  ClockTime = 32 s

Time = 0.008

Courant Number mean: 0.11358 max: 0.802059
DILUPBiCGStab:  Solving for Ux, Initial residual = 0.00947148, Final residual = 5.53817e-05, No Iterations 5
DILUPBiCGStab:  Solving for Uy, Initial residual = 0.0266814, Final residual = 0.000128761, No Iterations 5
DILUPBiCGStab:  Solving for Uz, Initial residual = 0.0871279, Final residual = 0.000747355, No Iterations 5
linear solve U 515934
[OGL LOG] init_host_sparsity_pattern : 270 ms
[OGL LOG] matrix not stored update host matrix
[OGL LOG] update_host_mtx : 139 ms
[OGL LOG] matrix is not yet sorted, sorting host matrix
[OGL LOG] sort_host_mtx_sparsity_pattern : 113 ms
[OGL LOG] sort_host_mtx : 72 ms
[OGL LOG] init_preconditioner : 0 ms
[OGL LOG] solve : 302 ms
nonecudaGKOCG:  Solving for p, Initial residual = 0.254624, Final residual = 9.20487e-05, No Iterations 304
linear solve p 936236
time step continuity errors : sum local = 4.21228e-08, global = -1.65887e-20, cumulative = 2.17635e-21
[OGL LOG] init_host_sparsity_pattern : 270 ms
[OGL LOG] matrix not stored update host matrix
[OGL LOG] update_host_mtx : 144 ms
[OGL LOG] matrix is not yet sorted, sorting host matrix
[OGL LOG] sort_host_mtx_sparsity_pattern : 116 ms
[OGL LOG] sort_host_mtx : 69 ms
[OGL LOG] init_preconditioner : 0 ms
[OGL LOG] solve : 301 ms
nonecudaGKOCG:  Solving for p, Initial residual = 0.219039, Final residual = 9.78364e-05, No Iterations 300
linear solve p 939312
time step continuity errors : sum local = 4.07661e-08, global = -1.74441e-20, cumulative = -1.52677e-20
ExecutionTime = 34.52 s  ClockTime = 35 s

Time = 0.009

Courant Number mean: 0.118147 max: 0.804085
DILUPBiCGStab:  Solving for Ux, Initial residual = 0.00804439, Final residual = 4.21654e-05, No Iterations 5
DILUPBiCGStab:  Solving for Uy, Initial residual = 0.0203994, Final residual = 6.91546e-05, No Iterations 5
DILUPBiCGStab:  Solving for Uz, Initial residual = 0.0549982, Final residual = 0.000392177, No Iterations 5
linear solve U 512192
[OGL LOG] init_host_sparsity_pattern : 269 ms
[OGL LOG] matrix not stored update host matrix
[OGL LOG] update_host_mtx : 145 ms
[OGL LOG] matrix is not yet sorted, sorting host matrix
[OGL LOG] sort_host_mtx_sparsity_pattern : 103 ms
[OGL LOG] sort_host_mtx : 68 ms
[OGL LOG] init_preconditioner : 0 ms
[OGL LOG] solve : 293 ms
nonecudaGKOCG:  Solving for p, Initial residual = 0.208465, Final residual = 9.53243e-05, No Iterations 293
linear solve p 918125
time step continuity errors : sum local = 3.8961e-08, global = 1.56954e-20, cumulative = 4.27731e-22
[OGL LOG] init_host_sparsity_pattern : 270 ms
[OGL LOG] matrix not stored update host matrix
[OGL LOG] update_host_mtx : 139 ms
[OGL LOG] matrix is not yet sorted, sorting host matrix
[OGL LOG] sort_host_mtx_sparsity_pattern : 109 ms
[OGL LOG] sort_host_mtx : 67 ms
[OGL LOG] init_preconditioner : 0 ms
[OGL LOG] solve : 287 ms
nonecudaGKOCG:  Solving for p, Initial residual = 0.178065, Final residual = 9.914e-05, No Iterations 290
linear solve p 911119
time step continuity errors : sum local = 3.78317e-08, global = -1.4384e-21, cumulative = -1.01067e-21
ExecutionTime = 37.2 s  ClockTime = 37 s

Time = 0.01

Courant Number mean: 0.122092 max: 0.806136
DILUPBiCGStab:  Solving for Ux, Initial residual = 0.00663601, Final residual = 3.18138e-05, No Iterations 5
DILUPBiCGStab:  Solving for Uy, Initial residual = 0.0177255, Final residual = 5.76129e-05, No Iterations 5
DILUPBiCGStab:  Solving for Uz, Initial residual = 0.0484108, Final residual = 0.000344334, No Iterations 5
linear solve U 511765
[OGL LOG] init_host_sparsity_pattern : 270 ms
[OGL LOG] matrix not stored update host matrix
[OGL LOG] update_host_mtx : 144 ms
[OGL LOG] matrix is not yet sorted, sorting host matrix
[OGL LOG] sort_host_mtx_sparsity_pattern : 107 ms
[OGL LOG] sort_host_mtx : 70 ms
[OGL LOG] init_preconditioner : 0 ms
[OGL LOG] solve : 602 ms
nonecudaGKOCG:  Solving for p, Initial residual = 0.156321, Final residual = 9.58824e-05, No Iterations 605
linear solve p 1233505
time step continuity errors : sum local = 3.47996e-08, global = 1.2981e-20, cumulative = 1.19703e-20
[OGL LOG] init_host_sparsity_pattern : 270 ms
[OGL LOG] matrix not stored update host matrix
[OGL LOG] update_host_mtx : 138 ms
[OGL LOG] matrix is not yet sorted, sorting host matrix
[OGL LOG] sort_host_mtx_sparsity_pattern : 109 ms
[OGL LOG] sort_host_mtx : 67 ms
[OGL LOG] init_preconditioner : 0 ms
[OGL LOG] solve : 596 ms
nonecudaGKOCG:  Solving for p, Initial residual = 0.132589, Final residual = 9.7459e-05, No Iterations 603
linear solve p 1219445
time step continuity errors : sum local = 3.53003e-08, global = -9.93565e-21, cumulative = 2.03466e-21
ExecutionTime = 40.52 s  ClockTime = 41 s

End

