/*---------------------------------------------------------------------------*\
  =========                 |
  \\      /  F ield         | OpenFOAM: The Open Source CFD Toolbox
   \\    /   O peration     | Website:  https://openfoam.org
    \\  /    A nd           | Version:  8
     \\/     M anipulation  |
\*---------------------------------------------------------------------------*/
Build  : 8-40a5a48f630f
Exec   : icoFoam
Date   : Jul 28 2021
Time   : 12:02:26
Host   : "uc2n397.localdomain"
PID    : 265872
I/O    : uncollated
Case   : /pfs/data5/home/kit/scc/nq7776/code/OBR/lidDrivenCavity3D/Variation_mesh/25/Variation_matrix_solver/BiCGStab_BJ_OMP/base
nProcs : 1
sigFpe : Enabling floating point exception trapping (FOAM_SIGFPE).
fileModificationChecking : Monitoring run-time modified files using timeStampMaster (fileModificationSkew 10)
allowSystemOperations : Allowing user-supplied system call operations

// * * * * * * * * * * * * * * * * * * * * * * * * * * * * * * * * * * * * * //
Create time

Create mesh for time = 0

Reading transportProperties

Reading field p

Reading field U

Reading/calculating face flux field phi


Starting time loop

Time = 0.001

Courant Number mean: 0 max: 0
nonePBiCGStab:  Solving for Ux, Initial residual = 1, Final residual = 0.00310183, No Iterations 5
nonePBiCGStab:  Solving for Uy, Initial residual = 0, Final residual = 0, No Iterations 0
nonePBiCGStab:  Solving for Uz, Initial residual = 0, Final residual = 0, No Iterations 0
linear solve U 2
[OGL LOG] init_host_sparsity_pattern : 4 ms
[OGL LOG] matrix not stored update host matrix
[OGL LOG] update_host_mtx : 2 ms
[OGL LOG] matrix is not yet sorted, compute sorting idxs
[OGL LOG] compute_sort : 106 ms
[OGL LOG] matrix is not yet sorted, sorting host matrix
[OGL LOG] sort_host_mtx_sparsity_pattern : 3 ms
[OGL LOG] sort_host_mtx : 1 ms
[OGL LOG] init_preconditioner : 1 ms
[OGL LOG] solve : 116 ms
BJompGKOBiCGStab:  Solving for p, Initial residual = 1, Final residual = 3.01352e-05, No Iterations 136
linear solve p 240
time step continuity errors : sum local = 2.54247e-07, global = -1.95347e-20, cumulative = -1.95347e-20
[OGL LOG] init_host_sparsity_pattern : 4 ms
[OGL LOG] matrix not stored update host matrix
[OGL LOG] update_host_mtx : 2 ms
[OGL LOG] matrix is not yet sorted, sorting host matrix
[OGL LOG] sort_host_mtx_sparsity_pattern : 3 ms
[OGL LOG] sort_host_mtx : 1 ms
[OGL LOG] init_preconditioner : 0 ms
[OGL LOG] solve : 106 ms
BJompGKOBiCGStab:  Solving for p, Initial residual = 0.480957, Final residual = 6.74316e-05, No Iterations 121
linear solve p 119
time step continuity errors : sum local = 3.40876e-06, global = -1.12445e-22, cumulative = -1.96471e-20
ExecutionTime = 1.15 s  ClockTime = 0 s

Time = 0.002

Courant Number mean: 0.011972 max: 0.106554
nonePBiCGStab:  Solving for Ux, Initial residual = 0.210864, Final residual = 0.000695893, No Iterations 5
nonePBiCGStab:  Solving for Uy, Initial residual = 0.284498, Final residual = 0.000660884, No Iterations 5
nonePBiCGStab:  Solving for Uz, Initial residual = 0.855555, Final residual = 0.00320086, No Iterations 5
linear solve U 5
[OGL LOG] init_host_sparsity_pattern : 4 ms
[OGL LOG] matrix not stored update host matrix
[OGL LOG] update_host_mtx : 2 ms
[OGL LOG] matrix is not yet sorted, sorting host matrix
[OGL LOG] sort_host_mtx_sparsity_pattern : 3 ms
[OGL LOG] sort_host_mtx : 1 ms
[OGL LOG] init_preconditioner : 0 ms
[OGL LOG] solve : 94 ms
BJompGKOBiCGStab:  Solving for p, Initial residual = 0.28891, Final residual = 7.79292e-05, No Iterations 109
linear solve p 107
time step continuity errors : sum local = 1.84695e-06, global = -9.54339e-21, cumulative = -2.91905e-20
[OGL LOG] init_host_sparsity_pattern : 4 ms
[OGL LOG] matrix not stored update host matrix
[OGL LOG] update_host_mtx : 2 ms
[OGL LOG] matrix is not yet sorted, sorting host matrix
[OGL LOG] sort_host_mtx_sparsity_pattern : 3 ms
[OGL LOG] sort_host_mtx : 1 ms
[OGL LOG] init_preconditioner : 0 ms
[OGL LOG] solve : 95 ms
BJompGKOBiCGStab:  Solving for p, Initial residual = 0.19137, Final residual = 9.16314e-05, No Iterations 110
linear solve p 108
time step continuity errors : sum local = 1.25027e-06, global = -1.12424e-21, cumulative = -3.03148e-20
ExecutionTime = 1.97 s  ClockTime = 0 s

Time = 0.003

Courant Number mean: 0.0188467 max: 0.153564
nonePBiCGStab:  Solving for Ux, Initial residual = 0.0899908, Final residual = 0.0002923, No Iterations 5
nonePBiCGStab:  Solving for Uy, Initial residual = 0.124931, Final residual = 0.000210467, No Iterations 5
nonePBiCGStab:  Solving for Uz, Initial residual = 0.279357, Final residual = 0.00110137, No Iterations 5
linear solve U 5
[OGL LOG] init_host_sparsity_pattern : 4 ms
[OGL LOG] matrix not stored update host matrix
[OGL LOG] update_host_mtx : 2 ms
[OGL LOG] matrix is not yet sorted, sorting host matrix
[OGL LOG] sort_host_mtx_sparsity_pattern : 3 ms
[OGL LOG] sort_host_mtx : 1 ms
[OGL LOG] init_preconditioner : 0 ms
[OGL LOG] solve : 89 ms
BJompGKOBiCGStab:  Solving for p, Initial residual = 0.105542, Final residual = 3.60963e-05, No Iterations 103
linear solve p 102
time step continuity errors : sum local = 5.11187e-08, global = -7.68802e-21, cumulative = -3.80028e-20
[OGL LOG] init_host_sparsity_pattern : 4 ms
[OGL LOG] matrix not stored update host matrix
[OGL LOG] update_host_mtx : 2 ms
[OGL LOG] matrix is not yet sorted, sorting host matrix
[OGL LOG] sort_host_mtx_sparsity_pattern : 2 ms
[OGL LOG] sort_host_mtx : 1 ms
[OGL LOG] init_preconditioner : 0 ms
[OGL LOG] solve : 36 ms
BJompGKOBiCGStab:  Solving for p, Initial residual = 0.0710873, Final residual = 9.51597e-05, No Iterations 42
linear solve p 49
time step continuity errors : sum local = 9.32139e-08, global = -1.34783e-20, cumulative = -5.14811e-20
ExecutionTime = 2.54 s  ClockTime = 1 s

Time = 0.004

Courant Number mean: 0.0233144 max: 0.175119
nonePBiCGStab:  Solving for Ux, Initial residual = 0.0521083, Final residual = 0.000103487, No Iterations 5
nonePBiCGStab:  Solving for Uy, Initial residual = 0.0743017, Final residual = 6.39284e-05, No Iterations 5
nonePBiCGStab:  Solving for Uz, Initial residual = 0.133546, Final residual = 0.000303675, No Iterations 5
linear solve U 5
[OGL LOG] init_host_sparsity_pattern : 4 ms
[OGL LOG] matrix not stored update host matrix
[OGL LOG] update_host_mtx : 2 ms
[OGL LOG] matrix is not yet sorted, sorting host matrix
[OGL LOG] sort_host_mtx_sparsity_pattern : 3 ms
[OGL LOG] sort_host_mtx : 1 ms
[OGL LOG] init_preconditioner : 0 ms
[OGL LOG] solve : 84 ms
BJompGKOBiCGStab:  Solving for p, Initial residual = 0.0556378, Final residual = 9.57858e-05, No Iterations 97
linear solve p 97
time step continuity errors : sum local = 2.16536e-07, global = -1.56672e-20, cumulative = -6.71483e-20
[OGL LOG] init_host_sparsity_pattern : 4 ms
[OGL LOG] matrix not stored update host matrix
[OGL LOG] update_host_mtx : 2 ms
[OGL LOG] matrix is not yet sorted, sorting host matrix
[OGL LOG] sort_host_mtx_sparsity_pattern : 3 ms
[OGL LOG] sort_host_mtx : 1 ms
[OGL LOG] init_preconditioner : 0 ms
[OGL LOG] solve : 40 ms
BJompGKOBiCGStab:  Solving for p, Initial residual = 0.0372383, Final residual = 9.88749e-05, No Iterations 46
linear solve p 53
time step continuity errors : sum local = 1.11999e-07, global = 5.57716e-21, cumulative = -6.15711e-20
ExecutionTime = 3.1 s  ClockTime = 1 s

Time = 0.005

Courant Number mean: 0.0264937 max: 0.186504
nonePBiCGStab:  Solving for Ux, Initial residual = 0.0351522, Final residual = 3.77405e-05, No Iterations 5
nonePBiCGStab:  Solving for Uy, Initial residual = 0.0508457, Final residual = 2.89261e-05, No Iterations 5
nonePBiCGStab:  Solving for Uz, Initial residual = 0.0933099, Final residual = 0.000172399, No Iterations 5
linear solve U 5
[OGL LOG] init_host_sparsity_pattern : 4 ms
[OGL LOG] matrix not stored update host matrix
[OGL LOG] update_host_mtx : 2 ms
[OGL LOG] matrix is not yet sorted, sorting host matrix
[OGL LOG] sort_host_mtx_sparsity_pattern : 3 ms
[OGL LOG] sort_host_mtx : 1 ms
[OGL LOG] init_preconditioner : 0 ms
[OGL LOG] solve : 37 ms
BJompGKOBiCGStab:  Solving for p, Initial residual = 0.0351954, Final residual = 9.4329e-05, No Iterations 42
linear solve p 49
time step continuity errors : sum local = 1.03652e-07, global = -1.48603e-20, cumulative = -7.64314e-20
[OGL LOG] init_host_sparsity_pattern : 4 ms
[OGL LOG] matrix not stored update host matrix
[OGL LOG] update_host_mtx : 2 ms
[OGL LOG] matrix is not yet sorted, sorting host matrix
[OGL LOG] sort_host_mtx_sparsity_pattern : 2 ms
[OGL LOG] sort_host_mtx : 1 ms
[OGL LOG] init_preconditioner : 0 ms
[OGL LOG] solve : 30 ms
BJompGKOBiCGStab:  Solving for p, Initial residual = 0.0233036, Final residual = 9.11961e-05, No Iterations 35
linear solve p 43
time step continuity errors : sum local = 1.09632e-07, global = 2.27063e-20, cumulative = -5.37251e-20
ExecutionTime = 3.44 s  ClockTime = 1 s

Time = 0.006

Courant Number mean: 0.0288952 max: 0.193336
nonePBiCGStab:  Solving for Ux, Initial residual = 0.02595, Final residual = 1.36096e-05, No Iterations 5
nonePBiCGStab:  Solving for Uy, Initial residual = 0.0380034, Final residual = 1.58692e-05, No Iterations 5
nonePBiCGStab:  Solving for Uz, Initial residual = 0.070896, Final residual = 6.49506e-05, No Iterations 5
linear solve U 5
[OGL LOG] init_host_sparsity_pattern : 4 ms
[OGL LOG] matrix not stored update host matrix
[OGL LOG] update_host_mtx : 2 ms
[OGL LOG] matrix is not yet sorted, sorting host matrix
[OGL LOG] sort_host_mtx_sparsity_pattern : 3 ms
[OGL LOG] sort_host_mtx : 1 ms
[OGL LOG] init_preconditioner : 0 ms
[OGL LOG] solve : 36 ms
BJompGKOBiCGStab:  Solving for p, Initial residual = 0.0245557, Final residual = 9.71805e-05, No Iterations 41
linear solve p 48
time step continuity errors : sum local = 1.02202e-07, global = 1.05575e-20, cumulative = -4.31676e-20
[OGL LOG] init_host_sparsity_pattern : 4 ms
[OGL LOG] matrix not stored update host matrix
[OGL LOG] update_host_mtx : 2 ms
[OGL LOG] matrix is not yet sorted, sorting host matrix
[OGL LOG] sort_host_mtx_sparsity_pattern : 2 ms
[OGL LOG] sort_host_mtx : 1 ms
[OGL LOG] init_preconditioner : 0 ms
[OGL LOG] solve : 31 ms
BJompGKOBiCGStab:  Solving for p, Initial residual = 0.0165014, Final residual = 8.89943e-05, No Iterations 35
linear solve p 43
time step continuity errors : sum local = 1.32197e-07, global = -5.84212e-21, cumulative = -4.90097e-20
ExecutionTime = 3.77 s  ClockTime = 1 s

Time = 0.007

Courant Number mean: 0.0308306 max: 0.197891
nonePBiCGStab:  Solving for Ux, Initial residual = 0.0203496, Final residual = 7.01381e-06, No Iterations 5
nonePBiCGStab:  Solving for Uy, Initial residual = 0.0300404, Final residual = 9.72645e-06, No Iterations 5
nonePBiCGStab:  Solving for Uz, Initial residual = 0.0572934, Final residual = 4.47065e-05, No Iterations 5
linear solve U 5
[OGL LOG] init_host_sparsity_pattern : 4 ms
[OGL LOG] matrix not stored update host matrix
[OGL LOG] update_host_mtx : 2 ms
[OGL LOG] matrix is not yet sorted, sorting host matrix
[OGL LOG] sort_host_mtx_sparsity_pattern : 3 ms
[OGL LOG] sort_host_mtx : 1 ms
[OGL LOG] init_preconditioner : 0 ms
[OGL LOG] solve : 34 ms
BJompGKOBiCGStab:  Solving for p, Initial residual = 0.0186684, Final residual = 8.90916e-05, No Iterations 39
linear solve p 46
time step continuity errors : sum local = 1.03248e-07, global = 4.13163e-20, cumulative = -7.6934e-21
[OGL LOG] init_host_sparsity_pattern : 4 ms
[OGL LOG] matrix not stored update host matrix
[OGL LOG] update_host_mtx : 2 ms
[OGL LOG] matrix is not yet sorted, sorting host matrix
[OGL LOG] sort_host_mtx_sparsity_pattern : 2 ms
[OGL LOG] sort_host_mtx : 1 ms
[OGL LOG] init_preconditioner : 0 ms
[OGL LOG] solve : 32 ms
BJompGKOBiCGStab:  Solving for p, Initial residual = 0.0126305, Final residual = 8.87054e-05, No Iterations 37
linear solve p 45
time step continuity errors : sum local = 1.16823e-07, global = -1.44684e-21, cumulative = -9.14024e-21
ExecutionTime = 4.1 s  ClockTime = 1 s

Time = 0.008

Courant Number mean: 0.0324764 max: 0.201171
nonePBiCGStab:  Solving for Ux, Initial residual = 0.0165293, Final residual = 4.9027e-06, No Iterations 5
nonePBiCGStab:  Solving for Uy, Initial residual = 0.0246253, Final residual = 6.20826e-06, No Iterations 5
nonePBiCGStab:  Solving for Uz, Initial residual = 0.048145, Final residual = 3.16101e-05, No Iterations 5
linear solve U 5
[OGL LOG] init_host_sparsity_pattern : 4 ms
[OGL LOG] matrix not stored update host matrix
[OGL LOG] update_host_mtx : 2 ms
[OGL LOG] matrix is not yet sorted, sorting host matrix
[OGL LOG] sort_host_mtx_sparsity_pattern : 3 ms
[OGL LOG] sort_host_mtx : 1 ms
[OGL LOG] init_preconditioner : 0 ms
[OGL LOG] solve : 32 ms
BJompGKOBiCGStab:  Solving for p, Initial residual = 0.0151079, Final residual = 8.65187e-05, No Iterations 37
linear solve p 45
time step continuity errors : sum local = 1.18571e-07, global = 1.86202e-20, cumulative = 9.47996e-21
[OGL LOG] init_host_sparsity_pattern : 4 ms
[OGL LOG] matrix not stored update host matrix
[OGL LOG] update_host_mtx : 2 ms
[OGL LOG] matrix is not yet sorted, sorting host matrix
[OGL LOG] sort_host_mtx_sparsity_pattern : 2 ms
[OGL LOG] sort_host_mtx : 1 ms
[OGL LOG] init_preconditioner : 0 ms
[OGL LOG] solve : 30 ms
BJompGKOBiCGStab:  Solving for p, Initial residual = 0.0103443, Final residual = 9.33433e-05, No Iterations 34
linear solve p 43
time step continuity errors : sum local = 1.25791e-07, global = -7.33968e-22, cumulative = 8.74599e-21
ExecutionTime = 4.42 s  ClockTime = 1 s

Time = 0.009

Courant Number mean: 0.0338804 max: 0.203668
nonePBiCGStab:  Solving for Ux, Initial residual = 0.0137617, Final residual = 3.19779e-06, No Iterations 5
nonePBiCGStab:  Solving for Uy, Initial residual = 0.0207325, Final residual = 4.20551e-06, No Iterations 5
nonePBiCGStab:  Solving for Uz, Initial residual = 0.0410094, Final residual = 2.1177e-05, No Iterations 5
linear solve U 5
[OGL LOG] init_host_sparsity_pattern : 4 ms
[OGL LOG] matrix not stored update host matrix
[OGL LOG] update_host_mtx : 2 ms
[OGL LOG] matrix is not yet sorted, sorting host matrix
[OGL LOG] sort_host_mtx_sparsity_pattern : 3 ms
[OGL LOG] sort_host_mtx : 1 ms
[OGL LOG] init_preconditioner : 0 ms
[OGL LOG] solve : 35 ms
BJompGKOBiCGStab:  Solving for p, Initial residual = 0.0125543, Final residual = 9.88981e-05, No Iterations 37
linear solve p 48
time step continuity errors : sum local = 1.0142e-07, global = 2.81192e-20, cumulative = 3.68652e-20
[OGL LOG] init_host_sparsity_pattern : 4 ms
[OGL LOG] matrix not stored update host matrix
[OGL LOG] update_host_mtx : 2 ms
[OGL LOG] matrix is not yet sorted, sorting host matrix
[OGL LOG] sort_host_mtx_sparsity_pattern : 3 ms
[OGL LOG] sort_host_mtx : 1 ms
[OGL LOG] init_preconditioner : 0 ms
[OGL LOG] solve : 31 ms
BJompGKOBiCGStab:  Solving for p, Initial residual = 0.00856117, Final residual = 8.89504e-05, No Iterations 36
linear solve p 44
time step continuity errors : sum local = 9.89038e-08, global = -5.72108e-20, cumulative = -2.03456e-20
ExecutionTime = 4.75 s  ClockTime = 1 s

Time = 0.01

Courant Number mean: 0.0350918 max: 0.205642
nonePBiCGStab:  Solving for Ux, Initial residual = 0.0117196, Final residual = 2.11838e-06, No Iterations 5
nonePBiCGStab:  Solving for Uy, Initial residual = 0.0177184, Final residual = 2.93918e-06, No Iterations 5
nonePBiCGStab:  Solving for Uz, Initial residual = 0.0353947, Final residual = 1.53243e-05, No Iterations 5
linear solve U 5
[OGL LOG] init_host_sparsity_pattern : 4 ms
[OGL LOG] matrix not stored update host matrix
[OGL LOG] update_host_mtx : 2 ms
[OGL LOG] matrix is not yet sorted, sorting host matrix
[OGL LOG] sort_host_mtx_sparsity_pattern : 3 ms
[OGL LOG] sort_host_mtx : 1 ms
[OGL LOG] init_preconditioner : 0 ms
[OGL LOG] solve : 35 ms
BJompGKOBiCGStab:  Solving for p, Initial residual = 0.0104248, Final residual = 7.38296e-05, No Iterations 40
linear solve p 47
time step continuity errors : sum local = 1.13015e-07, global = -4.63678e-20, cumulative = -6.67134e-20
[OGL LOG] init_host_sparsity_pattern : 4 ms
[OGL LOG] matrix not stored update host matrix
[OGL LOG] update_host_mtx : 2 ms
[OGL LOG] matrix is not yet sorted, sorting host matrix
[OGL LOG] sort_host_mtx_sparsity_pattern : 2 ms
[OGL LOG] sort_host_mtx : 1 ms
[OGL LOG] init_preconditioner : 0 ms
[OGL LOG] solve : 33 ms
BJompGKOBiCGStab:  Solving for p, Initial residual = 0.0072194, Final residual = 8.31418e-05, No Iterations 38
linear solve p 45
time step continuity errors : sum local = 9.23155e-08, global = -3.08327e-20, cumulative = -9.75461e-20
ExecutionTime = 5.08 s  ClockTime = 1 s

End

