/*---------------------------------------------------------------------------*\
  =========                 |
  \\      /  F ield         | OpenFOAM: The Open Source CFD Toolbox
   \\    /   O peration     | Website:  https://openfoam.org
    \\  /    A nd           | Version:  8
     \\/     M anipulation  |
\*---------------------------------------------------------------------------*/
Build  : 8-40a5a48f630f
Exec   : icoFoam
Date   : Jul 28 2021
Time   : 12:09:07
Host   : "uc2n412.localdomain"
PID    : 4073194
I/O    : uncollated
Case   : /pfs/data5/home/kit/scc/nq7776/code/OBR/lidDrivenCavity3D/Variation_mesh/25/Variation_matrix_solver/BiCGStab_NoPrecond_OMP/base
nProcs : 1
sigFpe : Enabling floating point exception trapping (FOAM_SIGFPE).
fileModificationChecking : Monitoring run-time modified files using timeStampMaster (fileModificationSkew 10)
allowSystemOperations : Allowing user-supplied system call operations

// * * * * * * * * * * * * * * * * * * * * * * * * * * * * * * * * * * * * * //
Create time

Create mesh for time = 0

Reading transportProperties

Reading field p

Reading field U

Reading/calculating face flux field phi


Starting time loop

Time = 0.001

Courant Number mean: 0 max: 0
nonePBiCGStab:  Solving for Ux, Initial residual = 1, Final residual = 0.00310183, No Iterations 5
nonePBiCGStab:  Solving for Uy, Initial residual = 0, Final residual = 0, No Iterations 0
nonePBiCGStab:  Solving for Uz, Initial residual = 0, Final residual = 0, No Iterations 0
linear solve U 2
[OGL LOG] init_host_sparsity_pattern : 4 ms
[OGL LOG] matrix not stored update host matrix
[OGL LOG] update_host_mtx : 2 ms
[OGL LOG] matrix is not yet sorted, compute sorting idxs
[OGL LOG] compute_sort : 106 ms
[OGL LOG] matrix is not yet sorted, sorting host matrix
[OGL LOG] sort_host_mtx_sparsity_pattern : 3 ms
[OGL LOG] sort_host_mtx : 1 ms
[OGL LOG] init_preconditioner : 0 ms
[OGL LOG] solve : 55 ms
noneompGKOBiCGStab:  Solving for p, Initial residual = 1, Final residual = 7.67433e-05, No Iterations 160
linear solve p 178
time step continuity errors : sum local = 3.81388e-07, global = -1.89242e-20, cumulative = -1.89242e-20
[OGL LOG] init_host_sparsity_pattern : 4 ms
[OGL LOG] matrix not stored update host matrix
[OGL LOG] update_host_mtx : 2 ms
[OGL LOG] matrix is not yet sorted, sorting host matrix
[OGL LOG] sort_host_mtx_sparsity_pattern : 3 ms
[OGL LOG] sort_host_mtx : 1 ms
[OGL LOG] init_preconditioner : 0 ms
[OGL LOG] solve : 48 ms
noneompGKOBiCGStab:  Solving for p, Initial residual = 0.480871, Final residual = 8.49918e-05, No Iterations 146
linear solve p 62
time step continuity errors : sum local = 1.35986e-07, global = 1.12731e-20, cumulative = -7.65119e-21
ExecutionTime = 1.11 s  ClockTime = 0 s

Time = 0.002

Courant Number mean: 0.0119707 max: 0.106554
nonePBiCGStab:  Solving for Ux, Initial residual = 0.210799, Final residual = 0.000695244, No Iterations 5
nonePBiCGStab:  Solving for Uy, Initial residual = 0.284559, Final residual = 0.000646941, No Iterations 5
nonePBiCGStab:  Solving for Uz, Initial residual = 0.881965, Final residual = 0.0033667, No Iterations 5
linear solve U 5
[OGL LOG] init_host_sparsity_pattern : 4 ms
[OGL LOG] matrix not stored update host matrix
[OGL LOG] update_host_mtx : 2 ms
[OGL LOG] matrix is not yet sorted, sorting host matrix
[OGL LOG] sort_host_mtx_sparsity_pattern : 3 ms
[OGL LOG] sort_host_mtx : 1 ms
[OGL LOG] init_preconditioner : 0 ms
[OGL LOG] solve : 49 ms
noneompGKOBiCGStab:  Solving for p, Initial residual = 0.28601, Final residual = 9.37354e-05, No Iterations 145
linear solve p 62
time step continuity errors : sum local = 1.70799e-06, global = 5.83162e-23, cumulative = -7.59287e-21
[OGL LOG] init_host_sparsity_pattern : 4 ms
[OGL LOG] matrix not stored update host matrix
[OGL LOG] update_host_mtx : 2 ms
[OGL LOG] matrix is not yet sorted, sorting host matrix
[OGL LOG] sort_host_mtx_sparsity_pattern : 2 ms
[OGL LOG] sort_host_mtx : 1 ms
[OGL LOG] init_preconditioner : 0 ms
[OGL LOG] solve : 49 ms
noneompGKOBiCGStab:  Solving for p, Initial residual = 0.190617, Final residual = 8.92447e-05, No Iterations 146
linear solve p 62
time step continuity errors : sum local = 2.06128e-06, global = 2.97527e-21, cumulative = -4.61761e-21
ExecutionTime = 2.01 s  ClockTime = 0 s

Time = 0.003

Courant Number mean: 0.0188466 max: 0.153564
nonePBiCGStab:  Solving for Ux, Initial residual = 0.0899952, Final residual = 0.000292826, No Iterations 5
nonePBiCGStab:  Solving for Uy, Initial residual = 0.124893, Final residual = 0.000209489, No Iterations 5
nonePBiCGStab:  Solving for Uz, Initial residual = 0.274302, Final residual = 0.000799145, No Iterations 5
linear solve U 5
[OGL LOG] init_host_sparsity_pattern : 4 ms
[OGL LOG] matrix not stored update host matrix
[OGL LOG] update_host_mtx : 2 ms
[OGL LOG] matrix is not yet sorted, sorting host matrix
[OGL LOG] sort_host_mtx_sparsity_pattern : 3 ms
[OGL LOG] sort_host_mtx : 1 ms
[OGL LOG] init_preconditioner : 0 ms
[OGL LOG] solve : 48 ms
noneompGKOBiCGStab:  Solving for p, Initial residual = 0.104959, Final residual = 9.71222e-05, No Iterations 140
linear solve p 60
time step continuity errors : sum local = 4.0645e-07, global = -2.57402e-20, cumulative = -3.03578e-20
[OGL LOG] init_host_sparsity_pattern : 4 ms
[OGL LOG] matrix not stored update host matrix
[OGL LOG] update_host_mtx : 2 ms
[OGL LOG] matrix is not yet sorted, sorting host matrix
[OGL LOG] sort_host_mtx_sparsity_pattern : 3 ms
[OGL LOG] sort_host_mtx : 1 ms
[OGL LOG] init_preconditioner : 0 ms
[OGL LOG] solve : 44 ms
noneompGKOBiCGStab:  Solving for p, Initial residual = 0.0706315, Final residual = 9.98867e-05, No Iterations 129
linear solve p 57
time step continuity errors : sum local = 2.94036e-07, global = -5.8827e-21, cumulative = -3.62405e-20
ExecutionTime = 2.85 s  ClockTime = 0 s

Time = 0.004

Courant Number mean: 0.0233144 max: 0.175118
nonePBiCGStab:  Solving for Ux, Initial residual = 0.0521035, Final residual = 0.000102544, No Iterations 5
nonePBiCGStab:  Solving for Uy, Initial residual = 0.0743035, Final residual = 5.95956e-05, No Iterations 5
nonePBiCGStab:  Solving for Uz, Initial residual = 0.131347, Final residual = 0.000351893, No Iterations 5
linear solve U 5
[OGL LOG] init_host_sparsity_pattern : 4 ms
[OGL LOG] matrix not stored update host matrix
[OGL LOG] update_host_mtx : 2 ms
[OGL LOG] matrix is not yet sorted, sorting host matrix
[OGL LOG] sort_host_mtx_sparsity_pattern : 3 ms
[OGL LOG] sort_host_mtx : 1 ms
[OGL LOG] init_preconditioner : 0 ms
[OGL LOG] solve : 19 ms
noneompGKOBiCGStab:  Solving for p, Initial residual = 0.0557592, Final residual = 8.94011e-05, No Iterations 57
linear solve p 32
time step continuity errors : sum local = 9.26116e-08, global = 8.59358e-21, cumulative = -2.76469e-20
[OGL LOG] init_host_sparsity_pattern : 4 ms
[OGL LOG] matrix not stored update host matrix
[OGL LOG] update_host_mtx : 2 ms
[OGL LOG] matrix is not yet sorted, sorting host matrix
[OGL LOG] sort_host_mtx_sparsity_pattern : 3 ms
[OGL LOG] sort_host_mtx : 1 ms
[OGL LOG] init_preconditioner : 0 ms
[OGL LOG] solve : 18 ms
noneompGKOBiCGStab:  Solving for p, Initial residual = 0.0371942, Final residual = 8.89493e-05, No Iterations 54
linear solve p 31
time step continuity errors : sum local = 1.12716e-07, global = 3.70112e-21, cumulative = -2.39458e-20
ExecutionTime = 3.25 s  ClockTime = 1 s

Time = 0.005

Courant Number mean: 0.0264937 max: 0.186504
nonePBiCGStab:  Solving for Ux, Initial residual = 0.0351398, Final residual = 3.78555e-05, No Iterations 5
nonePBiCGStab:  Solving for Uy, Initial residual = 0.0508307, Final residual = 2.81718e-05, No Iterations 5
nonePBiCGStab:  Solving for Uz, Initial residual = 0.0918387, Final residual = 0.000156918, No Iterations 5
linear solve U 5
[OGL LOG] init_host_sparsity_pattern : 4 ms
[OGL LOG] matrix not stored update host matrix
[OGL LOG] update_host_mtx : 2 ms
[OGL LOG] matrix is not yet sorted, sorting host matrix
[OGL LOG] sort_host_mtx_sparsity_pattern : 3 ms
[OGL LOG] sort_host_mtx : 1 ms
[OGL LOG] init_preconditioner : 0 ms
[OGL LOG] solve : 18 ms
noneompGKOBiCGStab:  Solving for p, Initial residual = 0.0351133, Final residual = 8.42771e-05, No Iterations 52
linear solve p 31
time step continuity errors : sum local = 1.11047e-07, global = 8.42359e-21, cumulative = -1.55222e-20
[OGL LOG] init_host_sparsity_pattern : 4 ms
[OGL LOG] matrix not stored update host matrix
[OGL LOG] update_host_mtx : 2 ms
[OGL LOG] matrix is not yet sorted, sorting host matrix
[OGL LOG] sort_host_mtx_sparsity_pattern : 3 ms
[OGL LOG] sort_host_mtx : 1 ms
[OGL LOG] init_preconditioner : 0 ms
[OGL LOG] solve : 18 ms
noneompGKOBiCGStab:  Solving for p, Initial residual = 0.0232743, Final residual = 6.85579e-05, No Iterations 51
linear solve p 31
time step continuity errors : sum local = 1.2127e-07, global = 9.56963e-21, cumulative = -5.9526e-21
ExecutionTime = 3.65 s  ClockTime = 1 s

Time = 0.006

Courant Number mean: 0.0288953 max: 0.193336
nonePBiCGStab:  Solving for Ux, Initial residual = 0.0259307, Final residual = 1.4402e-05, No Iterations 5
nonePBiCGStab:  Solving for Uy, Initial residual = 0.0380295, Final residual = 1.62422e-05, No Iterations 5
nonePBiCGStab:  Solving for Uz, Initial residual = 0.0709548, Final residual = 6.78928e-05, No Iterations 5
linear solve U 5
[OGL LOG] init_host_sparsity_pattern : 4 ms
[OGL LOG] matrix not stored update host matrix
[OGL LOG] update_host_mtx : 2 ms
[OGL LOG] matrix is not yet sorted, sorting host matrix
[OGL LOG] sort_host_mtx_sparsity_pattern : 2 ms
[OGL LOG] sort_host_mtx : 1 ms
[OGL LOG] init_preconditioner : 0 ms
[OGL LOG] solve : 18 ms
noneompGKOBiCGStab:  Solving for p, Initial residual = 0.0245946, Final residual = 7.58734e-05, No Iterations 52
linear solve p 30
time step continuity errors : sum local = 1.3035e-07, global = 1.92622e-20, cumulative = 1.33096e-20
[OGL LOG] init_host_sparsity_pattern : 4 ms
[OGL LOG] matrix not stored update host matrix
[OGL LOG] update_host_mtx : 2 ms
[OGL LOG] matrix is not yet sorted, sorting host matrix
[OGL LOG] sort_host_mtx_sparsity_pattern : 3 ms
[OGL LOG] sort_host_mtx : 1 ms
[OGL LOG] init_preconditioner : 0 ms
[OGL LOG] solve : 16 ms
noneompGKOBiCGStab:  Solving for p, Initial residual = 0.016531, Final residual = 9.76043e-05, No Iterations 47
linear solve p 28
time step continuity errors : sum local = 1.22012e-07, global = 7.19841e-21, cumulative = 2.05081e-20
ExecutionTime = 4.03 s  ClockTime = 1 s

Time = 0.007

Courant Number mean: 0.0308307 max: 0.197891
nonePBiCGStab:  Solving for Ux, Initial residual = 0.0203238, Final residual = 7.04641e-06, No Iterations 5
nonePBiCGStab:  Solving for Uy, Initial residual = 0.0300838, Final residual = 9.69336e-06, No Iterations 5
nonePBiCGStab:  Solving for Uz, Initial residual = 0.0575158, Final residual = 4.49334e-05, No Iterations 5
linear solve U 5
[OGL LOG] init_host_sparsity_pattern : 4 ms
[OGL LOG] matrix not stored update host matrix
[OGL LOG] update_host_mtx : 2 ms
[OGL LOG] matrix is not yet sorted, sorting host matrix
[OGL LOG] sort_host_mtx_sparsity_pattern : 3 ms
[OGL LOG] sort_host_mtx : 1 ms
[OGL LOG] init_preconditioner : 0 ms
[OGL LOG] solve : 17 ms
noneompGKOBiCGStab:  Solving for p, Initial residual = 0.0187802, Final residual = 9.66295e-05, No Iterations 50
linear solve p 29
time step continuity errors : sum local = 8.2863e-08, global = 7.33109e-21, cumulative = 2.78392e-20
[OGL LOG] init_host_sparsity_pattern : 4 ms
[OGL LOG] matrix not stored update host matrix
[OGL LOG] update_host_mtx : 2 ms
[OGL LOG] matrix is not yet sorted, sorting host matrix
[OGL LOG] sort_host_mtx_sparsity_pattern : 3 ms
[OGL LOG] sort_host_mtx : 1 ms
[OGL LOG] init_preconditioner : 0 ms
[OGL LOG] solve : 17 ms
noneompGKOBiCGStab:  Solving for p, Initial residual = 0.012711, Final residual = 9.1613e-05, No Iterations 49
linear solve p 30
time step continuity errors : sum local = 1.0916e-07, global = -1.07439e-20, cumulative = 1.70952e-20
ExecutionTime = 4.4 s  ClockTime = 1 s

Time = 0.008

Courant Number mean: 0.0324764 max: 0.201171
nonePBiCGStab:  Solving for Ux, Initial residual = 0.0165384, Final residual = 4.86221e-06, No Iterations 5
nonePBiCGStab:  Solving for Uy, Initial residual = 0.024608, Final residual = 6.10843e-06, No Iterations 5
nonePBiCGStab:  Solving for Uz, Initial residual = 0.0481333, Final residual = 3.10353e-05, No Iterations 5
linear solve U 5
[OGL LOG] init_host_sparsity_pattern : 4 ms
[OGL LOG] matrix not stored update host matrix
[OGL LOG] update_host_mtx : 2 ms
[OGL LOG] matrix is not yet sorted, sorting host matrix
[OGL LOG] sort_host_mtx_sparsity_pattern : 3 ms
[OGL LOG] sort_host_mtx : 1 ms
[OGL LOG] init_preconditioner : 0 ms
[OGL LOG] solve : 16 ms
noneompGKOBiCGStab:  Solving for p, Initial residual = 0.0150412, Final residual = 9.29501e-05, No Iterations 48
linear solve p 28
time step continuity errors : sum local = 8.31487e-08, global = 1.83148e-21, cumulative = 1.89267e-20
[OGL LOG] init_host_sparsity_pattern : 4 ms
[OGL LOG] matrix not stored update host matrix
[OGL LOG] update_host_mtx : 2 ms
[OGL LOG] matrix is not yet sorted, sorting host matrix
[OGL LOG] sort_host_mtx_sparsity_pattern : 2 ms
[OGL LOG] sort_host_mtx : 1 ms
[OGL LOG] init_preconditioner : 0 ms
[OGL LOG] solve : 16 ms
noneompGKOBiCGStab:  Solving for p, Initial residual = 0.010262, Final residual = 8.14232e-05, No Iterations 48
linear solve p 29
time step continuity errors : sum local = 7.28319e-08, global = -1.27016e-21, cumulative = 1.76565e-20
ExecutionTime = 4.77 s  ClockTime = 1 s

Time = 0.009

Courant Number mean: 0.0338806 max: 0.203668
nonePBiCGStab:  Solving for Ux, Initial residual = 0.0137838, Final residual = 3.21413e-06, No Iterations 5
nonePBiCGStab:  Solving for Uy, Initial residual = 0.0207004, Final residual = 4.1664e-06, No Iterations 5
nonePBiCGStab:  Solving for Uz, Initial residual = 0.0408618, Final residual = 2.13322e-05, No Iterations 5
linear solve U 5
[OGL LOG] init_host_sparsity_pattern : 4 ms
[OGL LOG] matrix not stored update host matrix
[OGL LOG] update_host_mtx : 2 ms
[OGL LOG] matrix is not yet sorted, sorting host matrix
[OGL LOG] sort_host_mtx_sparsity_pattern : 2 ms
[OGL LOG] sort_host_mtx : 1 ms
[OGL LOG] init_preconditioner : 0 ms
[OGL LOG] solve : 17 ms
noneompGKOBiCGStab:  Solving for p, Initial residual = 0.0123684, Final residual = 9.79544e-05, No Iterations 51
linear solve p 30
time step continuity errors : sum local = 1.03735e-07, global = -3.29993e-22, cumulative = 1.73265e-20
[OGL LOG] init_host_sparsity_pattern : 4 ms
[OGL LOG] matrix not stored update host matrix
[OGL LOG] update_host_mtx : 2 ms
[OGL LOG] matrix is not yet sorted, sorting host matrix
[OGL LOG] sort_host_mtx_sparsity_pattern : 2 ms
[OGL LOG] sort_host_mtx : 1 ms
[OGL LOG] init_preconditioner : 0 ms
[OGL LOG] solve : 15 ms
noneompGKOBiCGStab:  Solving for p, Initial residual = 0.00850957, Final residual = 9.83006e-05, No Iterations 45
linear solve p 28
time step continuity errors : sum local = 8.51715e-08, global = -1.32592e-20, cumulative = 4.0673e-21
ExecutionTime = 5.14 s  ClockTime = 1 s

Time = 0.01

Courant Number mean: 0.0350919 max: 0.205642
nonePBiCGStab:  Solving for Ux, Initial residual = 0.0117216, Final residual = 2.16371e-06, No Iterations 5
nonePBiCGStab:  Solving for Uy, Initial residual = 0.0177232, Final residual = 2.94957e-06, No Iterations 5
nonePBiCGStab:  Solving for Uz, Initial residual = 0.0355277, Final residual = 1.55668e-05, No Iterations 5
linear solve U 5
[OGL LOG] init_host_sparsity_pattern : 4 ms
[OGL LOG] matrix not stored update host matrix
[OGL LOG] update_host_mtx : 2 ms
[OGL LOG] matrix is not yet sorted, sorting host matrix
[OGL LOG] sort_host_mtx_sparsity_pattern : 3 ms
[OGL LOG] sort_host_mtx : 1 ms
[OGL LOG] init_preconditioner : 0 ms
[OGL LOG] solve : 17 ms
noneompGKOBiCGStab:  Solving for p, Initial residual = 0.0106051, Final residual = 8.80173e-05, No Iterations 50
linear solve p 29
time step continuity errors : sum local = 9.95975e-08, global = 1.98321e-20, cumulative = 2.38994e-20
[OGL LOG] init_host_sparsity_pattern : 4 ms
[OGL LOG] matrix not stored update host matrix
[OGL LOG] update_host_mtx : 2 ms
[OGL LOG] matrix is not yet sorted, sorting host matrix
[OGL LOG] sort_host_mtx_sparsity_pattern : 2 ms
[OGL LOG] sort_host_mtx : 1 ms
[OGL LOG] init_preconditioner : 0 ms
[OGL LOG] solve : 16 ms
noneompGKOBiCGStab:  Solving for p, Initial residual = 0.00735047, Final residual = 8.35649e-05, No Iterations 47
linear solve p 28
time step continuity errors : sum local = 1.04454e-07, global = -6.07404e-21, cumulative = 1.78253e-20
ExecutionTime = 5.51 s  ClockTime = 1 s

End

