/*---------------------------------------------------------------------------*\
  =========                 |
  \\      /  F ield         | OpenFOAM: The Open Source CFD Toolbox
   \\    /   O peration     | Website:  https://openfoam.org
    \\  /    A nd           | Version:  8
     \\/     M anipulation  |
\*---------------------------------------------------------------------------*/
Build  : 8-ef60d22ea792
Exec   : icoFoam
Date   : Jul 29 2021
Time   : 07:47:13
Host   : "uc2n414.localdomain"
PID    : 2886051
I/O    : uncollated
Case   : /pfs/data5/home/kit/scc/nq7776/code/OBR/lidDrivenCavity3D/Variation_mesh/80/Variation_matrix_solver/BiCGStab_BJ_OMP/base
nProcs : 1
sigFpe : Enabling floating point exception trapping (FOAM_SIGFPE).
fileModificationChecking : Monitoring run-time modified files using timeStampMaster (fileModificationSkew 10)
allowSystemOperations : Allowing user-supplied system call operations

// * * * * * * * * * * * * * * * * * * * * * * * * * * * * * * * * * * * * * //
Create time

Create mesh for time = 0

Reading transportProperties

Reading field p

Reading field U

Reading/calculating face flux field phi


Starting time loop

Time = 0.001

Courant Number mean: 0 max: 0
DILUPBiCGStab:  Solving for Ux, Initial residual = 1, Final residual = 0.00289442, No Iterations 5
DILUPBiCGStab:  Solving for Uy:  solution singularity
DILUPBiCGStab:  Solving for Uz:  solution singularity
linear solve U 247942
[OGL LOG] init_host_sparsity_pattern : 149 ms
[OGL LOG] matrix not stored update host matrix
[OGL LOG] update_host_mtx : 77 ms
[OGL LOG] matrix is not yet sorted, compute sorting idxs
[OGL LOG] compute_sort : 4486 ms
[OGL LOG] matrix is not yet sorted, sorting host matrix
[OGL LOG] sort_host_mtx_sparsity_pattern : 107 ms
[OGL LOG] sort_host_mtx : 63 ms
[OGL LOG] init_preconditioner : 139 ms
[OGL LOG] solve : 36386 ms
BJompGKOBiCGStab:  Solving for p, Initial residual = 1, Final residual = 4.37108e-05, No Iterations 415
linear solve p 41514550
time step continuity errors : sum local = 2.46698e-07, global = 8.23903e-21, cumulative = 8.23903e-21
[OGL LOG] init_host_sparsity_pattern : 142 ms
[OGL LOG] matrix not stored update host matrix
[OGL LOG] update_host_mtx : 77 ms
[OGL LOG] matrix is not yet sorted, sorting host matrix
[OGL LOG] sort_host_mtx_sparsity_pattern : 106 ms
[OGL LOG] sort_host_mtx : 52 ms
[OGL LOG] init_preconditioner : 0 ms
[OGL LOG] solve : 35633 ms
BJompGKOBiCGStab:  Solving for p, Initial residual = 0.74651, Final residual = 9.59721e-05, No Iterations 405
linear solve p 36076584
time step continuity errors : sum local = 1.67125e-07, global = 1.2705e-21, cumulative = 9.50953e-21
ExecutionTime = 79.72 s  ClockTime = 80 s

Time = 0.002

Courant Number mean: 0.0451658 max: 0.613748
DILUPBiCGStab:  Solving for Ux, Initial residual = 0.146677, Final residual = 0.00106203, No Iterations 5
DILUPBiCGStab:  Solving for Uy, Initial residual = 0.385227, Final residual = 0.0024636, No Iterations 5
DILUPBiCGStab:  Solving for Uz, Initial residual = 0.980625, Final residual = 0.00738219, No Iterations 5
linear solve U 473454
[OGL LOG] init_host_sparsity_pattern : 138 ms
[OGL LOG] matrix not stored update host matrix
[OGL LOG] update_host_mtx : 66 ms
[OGL LOG] matrix is not yet sorted, sorting host matrix
[OGL LOG] sort_host_mtx_sparsity_pattern : 108 ms
[OGL LOG] sort_host_mtx : 53 ms
[OGL LOG] init_preconditioner : 0 ms
[OGL LOG] solve : 32411 ms
BJompGKOBiCGStab:  Solving for p, Initial residual = 0.724746, Final residual = 9.3599e-05, No Iterations 368
linear solve p 32846538
time step continuity errors : sum local = 1.96592e-07, global = 9.47851e-21, cumulative = 1.8988e-20
[OGL LOG] init_host_sparsity_pattern : 141 ms
[OGL LOG] matrix not stored update host matrix
[OGL LOG] update_host_mtx : 68 ms
[OGL LOG] matrix is not yet sorted, sorting host matrix
[OGL LOG] sort_host_mtx_sparsity_pattern : 107 ms
[OGL LOG] sort_host_mtx : 53 ms
[OGL LOG] init_preconditioner : 0 ms
[OGL LOG] solve : 33712 ms
BJompGKOBiCGStab:  Solving for p, Initial residual = 0.657067, Final residual = 5.49287e-05, No Iterations 384
linear solve p 34146709
time step continuity errors : sum local = 8.27631e-08, global = 6.8595e-21, cumulative = 2.58476e-20
ExecutionTime = 147.32 s  ClockTime = 148 s

Time = 0.003

Courant Number mean: 0.0679561 max: 0.721735
DILUPBiCGStab:  Solving for Ux, Initial residual = 0.0559031, Final residual = 0.000346572, No Iterations 5
DILUPBiCGStab:  Solving for Uy, Initial residual = 0.146269, Final residual = 0.000967723, No Iterations 5
DILUPBiCGStab:  Solving for Uz, Initial residual = 0.69082, Final residual = 0.00528861, No Iterations 5
linear solve U 470546
[OGL LOG] init_host_sparsity_pattern : 142 ms
[OGL LOG] matrix not stored update host matrix
[OGL LOG] update_host_mtx : 67 ms
[OGL LOG] matrix is not yet sorted, sorting host matrix
[OGL LOG] sort_host_mtx_sparsity_pattern : 107 ms
[OGL LOG] sort_host_mtx : 53 ms
[OGL LOG] init_preconditioner : 0 ms
[OGL LOG] solve : 37307 ms
BJompGKOBiCGStab:  Solving for p, Initial residual = 0.707197, Final residual = 8.44808e-05, No Iterations 424
linear solve p 37741985
time step continuity errors : sum local = 1.02661e-07, global = -1.72589e-20, cumulative = 8.58863e-21
[OGL LOG] init_host_sparsity_pattern : 137 ms
[OGL LOG] matrix not stored update host matrix
[OGL LOG] update_host_mtx : 66 ms
[OGL LOG] matrix is not yet sorted, sorting host matrix
[OGL LOG] sort_host_mtx_sparsity_pattern : 109 ms
[OGL LOG] sort_host_mtx : 52 ms
[OGL LOG] init_preconditioner : 0 ms
[OGL LOG] solve : 36767 ms
BJompGKOBiCGStab:  Solving for p, Initial residual = 0.663784, Final residual = 8.63681e-05, No Iterations 418
linear solve p 37196550
time step continuity errors : sum local = 8.26418e-08, global = 1.05914e-20, cumulative = 1.91801e-20
ExecutionTime = 222.85 s  ClockTime = 223 s

Time = 0.004

Courant Number mean: 0.0794175 max: 0.728886
DILUPBiCGStab:  Solving for Ux, Initial residual = 0.0298348, Final residual = 0.000183203, No Iterations 5
DILUPBiCGStab:  Solving for Uy, Initial residual = 0.100749, Final residual = 0.000584083, No Iterations 5
DILUPBiCGStab:  Solving for Uz, Initial residual = 0.432669, Final residual = 0.00275805, No Iterations 5
linear solve U 470797
[OGL LOG] init_host_sparsity_pattern : 143 ms
[OGL LOG] matrix not stored update host matrix
[OGL LOG] update_host_mtx : 67 ms
[OGL LOG] matrix is not yet sorted, sorting host matrix
[OGL LOG] sort_host_mtx_sparsity_pattern : 107 ms
[OGL LOG] sort_host_mtx : 53 ms
[OGL LOG] init_preconditioner : 0 ms
[OGL LOG] solve : 31617 ms
BJompGKOBiCGStab:  Solving for p, Initial residual = 0.530787, Final residual = 7.15043e-05, No Iterations 360
linear solve p 32052029
time step continuity errors : sum local = 4.75938e-08, global = -8.7836e-21, cumulative = 1.03965e-20
[OGL LOG] init_host_sparsity_pattern : 136 ms
[OGL LOG] matrix not stored update host matrix
[OGL LOG] update_host_mtx : 66 ms
[OGL LOG] matrix is not yet sorted, sorting host matrix
[OGL LOG] sort_host_mtx_sparsity_pattern : 106 ms
[OGL LOG] sort_host_mtx : 53 ms
[OGL LOG] init_preconditioner : 0 ms
[OGL LOG] solve : 32634 ms
BJompGKOBiCGStab:  Solving for p, Initial residual = 0.466401, Final residual = 9.761e-05, No Iterations 371
linear solve p 33060922
time step continuity errors : sum local = 7.18176e-08, global = 9.92683e-21, cumulative = 2.03233e-20
ExecutionTime = 288.56 s  ClockTime = 289 s

Time = 0.005

Courant Number mean: 0.0889423 max: 0.739489
DILUPBiCGStab:  Solving for Ux, Initial residual = 0.0220394, Final residual = 0.0001166, No Iterations 5
DILUPBiCGStab:  Solving for Uy, Initial residual = 0.053015, Final residual = 0.000207386, No Iterations 5
DILUPBiCGStab:  Solving for Uz, Initial residual = 0.232804, Final residual = 0.00187071, No Iterations 5
linear solve U 471820
[OGL LOG] init_host_sparsity_pattern : 139 ms
[OGL LOG] matrix not stored update host matrix
[OGL LOG] update_host_mtx : 67 ms
[OGL LOG] matrix is not yet sorted, sorting host matrix
[OGL LOG] sort_host_mtx_sparsity_pattern : 107 ms
[OGL LOG] sort_host_mtx : 53 ms
[OGL LOG] init_preconditioner : 0 ms
[OGL LOG] solve : 34230 ms
BJompGKOBiCGStab:  Solving for p, Initial residual = 0.465864, Final residual = 7.65138e-05, No Iterations 389
linear solve p 34662908
time step continuity errors : sum local = 5.0049e-08, global = -2.642e-21, cumulative = 1.76813e-20
[OGL LOG] init_host_sparsity_pattern : 139 ms
[OGL LOG] matrix not stored update host matrix
[OGL LOG] update_host_mtx : 68 ms
[OGL LOG] matrix is not yet sorted, sorting host matrix
[OGL LOG] sort_host_mtx_sparsity_pattern : 110 ms
[OGL LOG] sort_host_mtx : 53 ms
[OGL LOG] init_preconditioner : 0 ms
[OGL LOG] solve : 29334 ms
BJompGKOBiCGStab:  Solving for p, Initial residual = 0.412866, Final residual = 9.65567e-05, No Iterations 334
linear solve p 29769578
time step continuity errors : sum local = 4.62615e-08, global = 2.27302e-20, cumulative = 4.04115e-20
ExecutionTime = 353.61 s  ClockTime = 354 s

Time = 0.006

Courant Number mean: 0.096072 max: 0.745236
DILUPBiCGStab:  Solving for Ux, Initial residual = 0.0147087, Final residual = 6.87821e-05, No Iterations 5
DILUPBiCGStab:  Solving for Uy, Initial residual = 0.0419902, Final residual = 0.000170677, No Iterations 5
DILUPBiCGStab:  Solving for Uz, Initial residual = 0.156743, Final residual = 0.00087889, No Iterations 5
linear solve U 473693
[OGL LOG] init_host_sparsity_pattern : 136 ms
[OGL LOG] matrix not stored update host matrix
[OGL LOG] update_host_mtx : 66 ms
[OGL LOG] matrix is not yet sorted, sorting host matrix
[OGL LOG] sort_host_mtx_sparsity_pattern : 107 ms
[OGL LOG] sort_host_mtx : 53 ms
[OGL LOG] init_preconditioner : 0 ms
[OGL LOG] solve : 32033 ms
BJompGKOBiCGStab:  Solving for p, Initial residual = 0.319752, Final residual = 9.72119e-05, No Iterations 364
linear solve p 32461484
time step continuity errors : sum local = 4.71508e-08, global = 1.39499e-20, cumulative = 5.43614e-20
[OGL LOG] init_host_sparsity_pattern : 135 ms
[OGL LOG] matrix not stored update host matrix
[OGL LOG] update_host_mtx : 66 ms
[OGL LOG] matrix is not yet sorted, sorting host matrix
[OGL LOG] sort_host_mtx_sparsity_pattern : 107 ms
[OGL LOG] sort_host_mtx : 53 ms
[OGL LOG] init_preconditioner : 0 ms
[OGL LOG] solve : 29970 ms
BJompGKOBiCGStab:  Solving for p, Initial residual = 0.27483, Final residual = 8.1595e-05, No Iterations 341
linear solve p 30395945
time step continuity errors : sum local = 4.01153e-08, global = -3.39511e-21, cumulative = 5.09663e-20
ExecutionTime = 417.09 s  ClockTime = 418 s

Time = 0.007

Courant Number mean: 0.10204 max: 0.748848
DILUPBiCGStab:  Solving for Ux, Initial residual = 0.0120591, Final residual = 4.84044e-05, No Iterations 5
DILUPBiCGStab:  Solving for Uy, Initial residual = 0.0291964, Final residual = 7.97836e-05, No Iterations 5
DILUPBiCGStab:  Solving for Uz, Initial residual = 0.088879, Final residual = 0.00050178, No Iterations 5
linear solve U 474458
[OGL LOG] init_host_sparsity_pattern : 136 ms
[OGL LOG] matrix not stored update host matrix
[OGL LOG] update_host_mtx : 67 ms
[OGL LOG] matrix is not yet sorted, sorting host matrix
[OGL LOG] sort_host_mtx_sparsity_pattern : 109 ms
[OGL LOG] sort_host_mtx : 54 ms
[OGL LOG] init_preconditioner : 0 ms
[OGL LOG] solve : 20093 ms
BJompGKOBiCGStab:  Solving for p, Initial residual = 0.257388, Final residual = 9.99551e-05, No Iterations 228
linear solve p 20524500
time step continuity errors : sum local = 8.0371e-08, global = 1.22249e-20, cumulative = 6.31912e-20
[OGL LOG] init_host_sparsity_pattern : 142 ms
[OGL LOG] matrix not stored update host matrix
[OGL LOG] update_host_mtx : 66 ms
[OGL LOG] matrix is not yet sorted, sorting host matrix
[OGL LOG] sort_host_mtx_sparsity_pattern : 106 ms
[OGL LOG] sort_host_mtx : 53 ms
[OGL LOG] init_preconditioner : 0 ms
[OGL LOG] solve : 12360 ms
BJompGKOBiCGStab:  Solving for p, Initial residual = 0.220691, Final residual = 9.70299e-05, No Iterations 140
linear solve p 12792826
time step continuity errors : sum local = 6.38649e-08, global = -1.24473e-20, cumulative = 5.07439e-20
ExecutionTime = 451.09 s  ClockTime = 452 s

Time = 0.008

Courant Number mean: 0.107022 max: 0.752096
DILUPBiCGStab:  Solving for Ux, Initial residual = 0.00940244, Final residual = 3.42904e-05, No Iterations 5
DILUPBiCGStab:  Solving for Uy, Initial residual = 0.0244036, Final residual = 6.51012e-05, No Iterations 5
DILUPBiCGStab:  Solving for Uz, Initial residual = 0.0756172, Final residual = 0.00042416, No Iterations 5
linear solve U 470526
[OGL LOG] init_host_sparsity_pattern : 136 ms
[OGL LOG] matrix not stored update host matrix
[OGL LOG] update_host_mtx : 67 ms
[OGL LOG] matrix is not yet sorted, sorting host matrix
[OGL LOG] sort_host_mtx_sparsity_pattern : 106 ms
[OGL LOG] sort_host_mtx : 53 ms
[OGL LOG] init_preconditioner : 0 ms
[OGL LOG] solve : 33351 ms
BJompGKOBiCGStab:  Solving for p, Initial residual = 0.180844, Final residual = 9.94953e-05, No Iterations 379
linear solve p 33779753
time step continuity errors : sum local = 5.30061e-08, global = 2.73204e-21, cumulative = 5.34759e-20
[OGL LOG] init_host_sparsity_pattern : 138 ms
[OGL LOG] matrix not stored update host matrix
[OGL LOG] update_host_mtx : 66 ms
[OGL LOG] matrix is not yet sorted, sorting host matrix
[OGL LOG] sort_host_mtx_sparsity_pattern : 107 ms
[OGL LOG] sort_host_mtx : 53 ms
[OGL LOG] init_preconditioner : 0 ms
[OGL LOG] solve : 26262 ms
BJompGKOBiCGStab:  Solving for p, Initial residual = 0.152526, Final residual = 9.04541e-05, No Iterations 299
linear solve p 26697841
time step continuity errors : sum local = 4.48329e-08, global = -6.78978e-21, cumulative = 4.66862e-20
ExecutionTime = 512.18 s  ClockTime = 513 s

Time = 0.009

Courant Number mean: 0.111298 max: 0.754191
DILUPBiCGStab:  Solving for Ux, Initial residual = 0.0079617, Final residual = 2.34434e-05, No Iterations 5
DILUPBiCGStab:  Solving for Uy, Initial residual = 0.0196433, Final residual = 4.12469e-05, No Iterations 5
DILUPBiCGStab:  Solving for Uz, Initial residual = 0.0571739, Final residual = 0.00022523, No Iterations 5
linear solve U 474542
[OGL LOG] init_host_sparsity_pattern : 139 ms
[OGL LOG] matrix not stored update host matrix
[OGL LOG] update_host_mtx : 67 ms
[OGL LOG] matrix is not yet sorted, sorting host matrix
[OGL LOG] sort_host_mtx_sparsity_pattern : 106 ms
[OGL LOG] sort_host_mtx : 53 ms
[OGL LOG] init_preconditioner : 0 ms
[OGL LOG] solve : 24223 ms
BJompGKOBiCGStab:  Solving for p, Initial residual = 0.140691, Final residual = 9.9408e-05, No Iterations 275
linear solve p 24653520
time step continuity errors : sum local = 1.05035e-07, global = -4.00838e-21, cumulative = 4.26778e-20
[OGL LOG] init_host_sparsity_pattern : 136 ms
[OGL LOG] matrix not stored update host matrix
[OGL LOG] update_host_mtx : 66 ms
[OGL LOG] matrix is not yet sorted, sorting host matrix
[OGL LOG] sort_host_mtx_sparsity_pattern : 106 ms
[OGL LOG] sort_host_mtx : 53 ms
[OGL LOG] init_preconditioner : 0 ms
[OGL LOG] solve : 12868 ms
BJompGKOBiCGStab:  Solving for p, Initial residual = 0.119079, Final residual = 9.51023e-05, No Iterations 146
linear solve p 13295407
time step continuity errors : sum local = 5.37821e-08, global = 4.98084e-21, cumulative = 4.76586e-20
ExecutionTime = 550.8 s  ClockTime = 552 s

Time = 0.01

Courant Number mean: 0.115015 max: 0.756206
DILUPBiCGStab:  Solving for Ux, Initial residual = 0.00670206, Final residual = 1.86666e-05, No Iterations 5
DILUPBiCGStab:  Solving for Uy, Initial residual = 0.016869, Final residual = 3.56873e-05, No Iterations 5
DILUPBiCGStab:  Solving for Uz, Initial residual = 0.0505593, Final residual = 0.000252947, No Iterations 5
linear solve U 475316
[OGL LOG] init_host_sparsity_pattern : 137 ms
[OGL LOG] matrix not stored update host matrix
[OGL LOG] update_host_mtx : 67 ms
[OGL LOG] matrix is not yet sorted, sorting host matrix
[OGL LOG] sort_host_mtx_sparsity_pattern : 106 ms
[OGL LOG] sort_host_mtx : 54 ms
[OGL LOG] init_preconditioner : 0 ms
[OGL LOG] solve : 25553 ms
BJompGKOBiCGStab:  Solving for p, Initial residual = 0.101993, Final residual = 6.30733e-05, No Iterations 291
linear solve p 25981613
time step continuity errors : sum local = 3.98208e-08, global = -1.33889e-20, cumulative = 3.42697e-20
[OGL LOG] init_host_sparsity_pattern : 136 ms
[OGL LOG] matrix not stored update host matrix
[OGL LOG] update_host_mtx : 71 ms
[OGL LOG] matrix is not yet sorted, sorting host matrix
[OGL LOG] sort_host_mtx_sparsity_pattern : 106 ms
[OGL LOG] sort_host_mtx : 53 ms
[OGL LOG] init_preconditioner : 0 ms
[OGL LOG] solve : 22961 ms
BJompGKOBiCGStab:  Solving for p, Initial residual = 0.0854874, Final residual = 9.96131e-05, No Iterations 261
linear solve p 23394219
time step continuity errors : sum local = 7.82295e-08, global = -5.66174e-23, cumulative = 3.42131e-20
ExecutionTime = 600.82 s  ClockTime = 602 s

End

