/*---------------------------------------------------------------------------*\
  =========                 |
  \\      /  F ield         | OpenFOAM: The Open Source CFD Toolbox
   \\    /   O peration     | Website:  https://openfoam.org
    \\  /    A nd           | Version:  8
     \\/     M anipulation  |
\*---------------------------------------------------------------------------*/
Build  : 8-ef60d22ea792
Exec   : icoFoam
Date   : Jul 29 2021
Time   : 08:14:02
Host   : "nla-gpu2.ianm.kit.edu"
PID    : 1977060
I/O    : uncollated
Case   : /home/greole/code/OBR/lidDrivenCavity3D/Variation_mesh/60/Variation_matrix_solver/BiCGStab_BJ_HIP/base
nProcs : 1
sigFpe : Enabling floating point exception trapping (FOAM_SIGFPE).
fileModificationChecking : Monitoring run-time modified files using timeStampMaster (fileModificationSkew 10)
allowSystemOperations : Allowing user-supplied system call operations

// * * * * * * * * * * * * * * * * * * * * * * * * * * * * * * * * * * * * * //
Create time

Create mesh for time = 0

Reading transportProperties

Reading field p

Reading field U

Reading/calculating face flux field phi


Starting time loop

Time = 0.001

Courant Number mean: 0 max: 0
DILUPBiCGStab:  Solving for Ux, Initial residual = 1, Final residual = 0.000527977, No Iterations 5
DILUPBiCGStab:  Solving for Uy:  solution singularity
DILUPBiCGStab:  Solving for Uz:  solution singularity
linear solve U 87532
[OGL LOG] init_host_sparsity_pattern : 99 ms
[OGL LOG] matrix not stored update host matrix
[OGL LOG] update_host_mtx : 48 ms
[OGL LOG] matrix is not yet sorted, compute sorting idxs
[OGL LOG] compute_sort : 1958 ms
[OGL LOG] matrix is not yet sorted, sorting host matrix
[OGL LOG] sort_host_mtx_sparsity_pattern : 42 ms
[OGL LOG] sort_host_mtx : 26 ms
[OGL LOG] init_preconditioner : 195 ms
[OGL LOG] solve : 190 ms
BJhipGKOBiCGStab:  Solving for p, Initial residual = 1, Final residual = 9.60059e-05, No Iterations 300
linear solve p 3002353
time step continuity errors : sum local = 0.0056483, global = -2.01452e-19, cumulative = -2.01452e-19
[OGL LOG] init_host_sparsity_pattern : 96 ms
[OGL LOG] matrix not stored update host matrix
[OGL LOG] update_host_mtx : 52 ms
[OGL LOG] matrix is not yet sorted, sorting host matrix
[OGL LOG] sort_host_mtx_sparsity_pattern : 39 ms
[OGL LOG] sort_host_mtx : 23 ms
[OGL LOG] init_preconditioner : 0 ms
[OGL LOG] solve : 62 ms
BJhipGKOBiCGStab:  Solving for p, Initial residual = 0.957673, Final residual = 9.77958e-05, No Iterations 121
linear solve p 284767
time step continuity errors : sum local = 7.79648e-05, global = -4.4912e-21, cumulative = -2.05943e-19
ExecutionTime = 4.66 s  ClockTime = 5 s

Time = 0.002

Courant Number mean: 0.0335521 max: 0.42383
DILUPBiCGStab:  Solving for Ux, Initial residual = 0.159376, Final residual = 0.000146043, No Iterations 5
DILUPBiCGStab:  Solving for Uy, Initial residual = 0.366006, Final residual = 0.000278594, No Iterations 5
DILUPBiCGStab:  Solving for Uz, Initial residual = 0.888414, Final residual = 0.000405013, No Iterations 5
linear solve U 167396
[OGL LOG] init_host_sparsity_pattern : 95 ms
[OGL LOG] matrix not stored update host matrix
[OGL LOG] update_host_mtx : 52 ms
[OGL LOG] matrix is not yet sorted, sorting host matrix
[OGL LOG] sort_host_mtx_sparsity_pattern : 38 ms
[OGL LOG] sort_host_mtx : 23 ms
[OGL LOG] init_preconditioner : 0 ms
[OGL LOG] solve : 145 ms
BJhipGKOBiCGStab:  Solving for p, Initial residual = 0.866492, Final residual = 7.92579e-05, No Iterations 289
linear solve p 366683
time step continuity errors : sum local = 0.0101522, global = 1.99328e-18, cumulative = 1.78734e-18
[OGL LOG] init_host_sparsity_pattern : 95 ms
[OGL LOG] matrix not stored update host matrix
[OGL LOG] update_host_mtx : 48 ms
[OGL LOG] matrix is not yet sorted, sorting host matrix
[OGL LOG] sort_host_mtx_sparsity_pattern : 38 ms
[OGL LOG] sort_host_mtx : 23 ms
[OGL LOG] init_preconditioner : 0 ms
[OGL LOG] solve : 59 ms
BJhipGKOBiCGStab:  Solving for p, Initial residual = 0.901407, Final residual = 9.82607e-05, No Iterations 116
linear solve p 276703
time step continuity errors : sum local = 6.6006e-05, global = 1.73373e-20, cumulative = 1.80467e-18
ExecutionTime = 5.75 s  ClockTime = 6 s

Time = 0.003

Courant Number mean: 0.0505662 max: 0.516443
DILUPBiCGStab:  Solving for Ux, Initial residual = 0.0506412, Final residual = 2.96446e-05, No Iterations 5
DILUPBiCGStab:  Solving for Uy, Initial residual = 0.255795, Final residual = 0.000159675, No Iterations 5
DILUPBiCGStab:  Solving for Uz, Initial residual = 0.862004, Final residual = 0.000273917, No Iterations 5
linear solve U 166475
[OGL LOG] init_host_sparsity_pattern : 97 ms
[OGL LOG] matrix not stored update host matrix
[OGL LOG] update_host_mtx : 49 ms
[OGL LOG] matrix is not yet sorted, sorting host matrix
[OGL LOG] sort_host_mtx_sparsity_pattern : 38 ms
[OGL LOG] sort_host_mtx : 24 ms
[OGL LOG] init_preconditioner : 0 ms
[OGL LOG] solve : 114 ms
BJhipGKOBiCGStab:  Solving for p, Initial residual = 0.964111, Final residual = 9.79557e-05, No Iterations 225
linear solve p 334924
time step continuity errors : sum local = 1.79153e-06, global = 9.66788e-21, cumulative = 1.81434e-18
[OGL LOG] init_host_sparsity_pattern : 95 ms
[OGL LOG] matrix not stored update host matrix
[OGL LOG] update_host_mtx : 52 ms
[OGL LOG] matrix is not yet sorted, sorting host matrix
[OGL LOG] sort_host_mtx_sparsity_pattern : 38 ms
[OGL LOG] sort_host_mtx : 23 ms
[OGL LOG] init_preconditioner : 0 ms
[OGL LOG] solve : 56 ms
BJhipGKOBiCGStab:  Solving for p, Initial residual = 0.861026, Final residual = 9.29604e-05, No Iterations 109
linear solve p 277252
time step continuity errors : sum local = 0.000110547, global = 4.71948e-21, cumulative = 1.81906e-18
ExecutionTime = 6.79 s  ClockTime = 6 s

Time = 0.004

Courant Number mean: 0.0614926 max: 0.543331
DILUPBiCGStab:  Solving for Ux, Initial residual = 0.0376308, Final residual = 2.24109e-05, No Iterations 5
DILUPBiCGStab:  Solving for Uy, Initial residual = 0.143602, Final residual = 8.16074e-05, No Iterations 5
DILUPBiCGStab:  Solving for Uz, Initial residual = 0.811016, Final residual = 0.000178936, No Iterations 5
linear solve U 166282
[OGL LOG] init_host_sparsity_pattern : 95 ms
[OGL LOG] matrix not stored update host matrix
[OGL LOG] update_host_mtx : 52 ms
[OGL LOG] matrix is not yet sorted, sorting host matrix
[OGL LOG] sort_host_mtx_sparsity_pattern : 38 ms
[OGL LOG] sort_host_mtx : 23 ms
[OGL LOG] init_preconditioner : 0 ms
[OGL LOG] solve : 150 ms
BJhipGKOBiCGStab:  Solving for p, Initial residual = 0.926102, Final residual = 9.85229e-05, No Iterations 299
linear solve p 371432
time step continuity errors : sum local = 4.98381e-05, global = -6.7713e-21, cumulative = 1.81229e-18
[OGL LOG] init_host_sparsity_pattern : 97 ms
[OGL LOG] matrix not stored update host matrix
[OGL LOG] update_host_mtx : 52 ms
[OGL LOG] matrix is not yet sorted, sorting host matrix
[OGL LOG] sort_host_mtx_sparsity_pattern : 38 ms
[OGL LOG] sort_host_mtx : 23 ms
[OGL LOG] init_preconditioner : 0 ms
[OGL LOG] solve : 111 ms
BJhipGKOBiCGStab:  Solving for p, Initial residual = 0.821259, Final residual = 9.96495e-05, No Iterations 218
linear solve p 333461
time step continuity errors : sum local = 0.0283208, global = -8.15063e-18, cumulative = -6.33834e-18
ExecutionTime = 7.99 s  ClockTime = 7 s

Time = 0.005

Courant Number mean: 0.0803303 max: 0.617852
DILUPBiCGStab:  Solving for Ux, Initial residual = 0.027101, Final residual = 2.63272e-05, No Iterations 5
DILUPBiCGStab:  Solving for Uy, Initial residual = 0.275809, Final residual = 0.00016308, No Iterations 5
DILUPBiCGStab:  Solving for Uz, Initial residual = 0.555894, Final residual = 0.000241725, No Iterations 5
linear solve U 172189
[OGL LOG] init_host_sparsity_pattern : 95 ms
[OGL LOG] matrix not stored update host matrix
[OGL LOG] update_host_mtx : 52 ms
[OGL LOG] matrix is not yet sorted, sorting host matrix
[OGL LOG] sort_host_mtx_sparsity_pattern : 38 ms
[OGL LOG] sort_host_mtx : 23 ms
[OGL LOG] init_preconditioner : 0 ms
[OGL LOG] solve : 57 ms
BJhipGKOBiCGStab:  Solving for p, Initial residual = 0.978655, Final residual = 9.75749e-05, No Iterations 111
linear solve p 278359
time step continuity errors : sum local = 0.000104365, global = 5.59224e-20, cumulative = -6.28241e-18
[OGL LOG] init_host_sparsity_pattern : 95 ms
[OGL LOG] matrix not stored update host matrix
[OGL LOG] update_host_mtx : 52 ms
[OGL LOG] matrix is not yet sorted, sorting host matrix
[OGL LOG] sort_host_mtx_sparsity_pattern : 38 ms
[OGL LOG] sort_host_mtx : 24 ms
[OGL LOG] init_preconditioner : 0 ms
[OGL LOG] solve : 51 ms
BJhipGKOBiCGStab:  Solving for p, Initial residual = 0.80027, Final residual = 9.87916e-05, No Iterations 98
linear solve p 272123
time step continuity errors : sum local = 0.000147001, global = -8.90803e-20, cumulative = -6.37149e-18
ExecutionTime = 8.91 s  ClockTime = 8 s

Time = 0.006

Courant Number mean: 0.0783569 max: 0.589881
DILUPBiCGStab:  Solving for Ux, Initial residual = 0.0411006, Final residual = 2.82545e-05, No Iterations 5
DILUPBiCGStab:  Solving for Uy, Initial residual = 0.32488, Final residual = 0.000155026, No Iterations 5
DILUPBiCGStab:  Solving for Uz, Initial residual = 0.770276, Final residual = 0.000247969, No Iterations 5
linear solve U 166898
[OGL LOG] init_host_sparsity_pattern : 95 ms
[OGL LOG] matrix not stored update host matrix
[OGL LOG] update_host_mtx : 51 ms
[OGL LOG] matrix is not yet sorted, sorting host matrix
[OGL LOG] sort_host_mtx_sparsity_pattern : 38 ms
[OGL LOG] sort_host_mtx : 23 ms
[OGL LOG] init_preconditioner : 0 ms
[OGL LOG] solve : 126 ms
BJhipGKOBiCGStab:  Solving for p, Initial residual = 0.94042, Final residual = 3.45621e-05, No Iterations 250
linear solve p 346108
time step continuity errors : sum local = 9.62081e-07, global = 8.92321e-22, cumulative = -6.3706e-18
[OGL LOG] init_host_sparsity_pattern : 96 ms
[OGL LOG] matrix not stored update host matrix
[OGL LOG] update_host_mtx : 48 ms
[OGL LOG] matrix is not yet sorted, sorting host matrix
[OGL LOG] sort_host_mtx_sparsity_pattern : 38 ms
[OGL LOG] sort_host_mtx : 23 ms
[OGL LOG] init_preconditioner : 0 ms
[OGL LOG] solve : 57 ms
BJhipGKOBiCGStab:  Solving for p, Initial residual = 0.82368, Final residual = 9.98068e-05, No Iterations 112
linear solve p 274119
time step continuity errors : sum local = 3.96317e-06, global = 5.92303e-21, cumulative = -6.36468e-18
ExecutionTime = 9.96 s  ClockTime = 9 s

Time = 0.007

Courant Number mean: 0.0779604 max: 0.564803
DILUPBiCGStab:  Solving for Ux, Initial residual = 0.0205126, Final residual = 1.29429e-05, No Iterations 5
DILUPBiCGStab:  Solving for Uy, Initial residual = 0.183255, Final residual = 7.86848e-05, No Iterations 5
DILUPBiCGStab:  Solving for Uz, Initial residual = 0.863135, Final residual = 0.000150038, No Iterations 5
linear solve U 167027
[OGL LOG] init_host_sparsity_pattern : 95 ms
[OGL LOG] matrix not stored update host matrix
[OGL LOG] update_host_mtx : 48 ms
[OGL LOG] matrix is not yet sorted, sorting host matrix
[OGL LOG] sort_host_mtx_sparsity_pattern : 38 ms
[OGL LOG] sort_host_mtx : 23 ms
[OGL LOG] init_preconditioner : 0 ms
[OGL LOG] solve : 143 ms
BJhipGKOBiCGStab:  Solving for p, Initial residual = 0.931333, Final residual = 9.23083e-05, No Iterations 279
linear solve p 361647
time step continuity errors : sum local = 0.000137717, global = 5.00444e-23, cumulative = -6.36463e-18
[OGL LOG] init_host_sparsity_pattern : 95 ms
[OGL LOG] matrix not stored update host matrix
[OGL LOG] update_host_mtx : 52 ms
[OGL LOG] matrix is not yet sorted, sorting host matrix
[OGL LOG] sort_host_mtx_sparsity_pattern : 38 ms
[OGL LOG] sort_host_mtx : 24 ms
[OGL LOG] init_preconditioner : 0 ms
[OGL LOG] solve : 117 ms
BJhipGKOBiCGStab:  Solving for p, Initial residual = 0.796489, Final residual = 9.21465e-05, No Iterations 233
linear solve p 340102
time step continuity errors : sum local = 1.08146e-06, global = 1.61911e-20, cumulative = -6.34844e-18
ExecutionTime = 11.16 s  ClockTime = 10 s

Time = 0.008

Courant Number mean: 0.0810416 max: 0.558841
DILUPBiCGStab:  Solving for Ux, Initial residual = 0.0163573, Final residual = 9.50436e-06, No Iterations 5
DILUPBiCGStab:  Solving for Uy, Initial residual = 0.10658, Final residual = 3.95278e-05, No Iterations 5
DILUPBiCGStab:  Solving for Uz, Initial residual = 0.859522, Final residual = 0.000154344, No Iterations 5
linear solve U 166846
[OGL LOG] init_host_sparsity_pattern : 95 ms
[OGL LOG] matrix not stored update host matrix
[OGL LOG] update_host_mtx : 51 ms
[OGL LOG] matrix is not yet sorted, sorting host matrix
[OGL LOG] sort_host_mtx_sparsity_pattern : 38 ms
[OGL LOG] sort_host_mtx : 24 ms
[OGL LOG] init_preconditioner : 0 ms
[OGL LOG] solve : 125 ms
BJhipGKOBiCGStab:  Solving for p, Initial residual = 0.915281, Final residual = 9.88115e-05, No Iterations 247
linear solve p 346284
time step continuity errors : sum local = 5.40456e-06, global = -3.36368e-21, cumulative = -6.3518e-18
[OGL LOG] init_host_sparsity_pattern : 95 ms
[OGL LOG] matrix not stored update host matrix
[OGL LOG] update_host_mtx : 48 ms
[OGL LOG] matrix is not yet sorted, sorting host matrix
[OGL LOG] sort_host_mtx_sparsity_pattern : 38 ms
[OGL LOG] sort_host_mtx : 23 ms
[OGL LOG] init_preconditioner : 0 ms
[OGL LOG] solve : 113 ms
BJhipGKOBiCGStab:  Solving for p, Initial residual = 0.75387, Final residual = 9.91487e-05, No Iterations 224
linear solve p 328987
time step continuity errors : sum local = 6.15129e-07, global = 1.11254e-20, cumulative = -6.34068e-18
ExecutionTime = 12.31 s  ClockTime = 11 s

Time = 0.009

Courant Number mean: 0.083661 max: 0.557132
DILUPBiCGStab:  Solving for Ux, Initial residual = 0.0104561, Final residual = 5.17881e-06, No Iterations 5
DILUPBiCGStab:  Solving for Uy, Initial residual = 0.0612162, Final residual = 1.86775e-05, No Iterations 5
DILUPBiCGStab:  Solving for Uz, Initial residual = 0.8476, Final residual = 0.000196989, No Iterations 5
linear solve U 167239
[OGL LOG] init_host_sparsity_pattern : 95 ms
[OGL LOG] matrix not stored update host matrix
[OGL LOG] update_host_mtx : 52 ms
[OGL LOG] matrix is not yet sorted, sorting host matrix
[OGL LOG] sort_host_mtx_sparsity_pattern : 38 ms
[OGL LOG] sort_host_mtx : 24 ms
[OGL LOG] init_preconditioner : 0 ms
[OGL LOG] solve : 110 ms
BJhipGKOBiCGStab:  Solving for p, Initial residual = 0.875174, Final residual = 8.9863e-05, No Iterations 218
linear solve p 331376
time step continuity errors : sum local = 3.43156e-07, global = -9.33773e-21, cumulative = -6.35001e-18
[OGL LOG] init_host_sparsity_pattern : 95 ms
[OGL LOG] matrix not stored update host matrix
[OGL LOG] update_host_mtx : 52 ms
[OGL LOG] matrix is not yet sorted, sorting host matrix
[OGL LOG] sort_host_mtx_sparsity_pattern : 38 ms
[OGL LOG] sort_host_mtx : 23 ms
[OGL LOG] init_preconditioner : 0 ms
[OGL LOG] solve : 102 ms
BJhipGKOBiCGStab:  Solving for p, Initial residual = 0.702018, Final residual = 8.44889e-05, No Iterations 201
linear solve p 322309
time step continuity errors : sum local = 2.98903e-07, global = -1.44241e-20, cumulative = -6.36444e-18
ExecutionTime = 13.41 s  ClockTime = 12 s

Time = 0.01

Courant Number mean: 0.0863163 max: 0.557627
DILUPBiCGStab:  Solving for Ux, Initial residual = 0.00871401, Final residual = 3.36297e-06, No Iterations 5
DILUPBiCGStab:  Solving for Uy, Initial residual = 0.0377942, Final residual = 9.7635e-06, No Iterations 5
DILUPBiCGStab:  Solving for Uz, Initial residual = 0.78557, Final residual = 0.000119932, No Iterations 5
linear solve U 166338
[OGL LOG] init_host_sparsity_pattern : 95 ms
[OGL LOG] matrix not stored update host matrix
[OGL LOG] update_host_mtx : 48 ms
[OGL LOG] matrix is not yet sorted, sorting host matrix
[OGL LOG] sort_host_mtx_sparsity_pattern : 38 ms
[OGL LOG] sort_host_mtx : 24 ms
[OGL LOG] init_preconditioner : 0 ms
[OGL LOG] solve : 74 ms
BJhipGKOBiCGStab:  Solving for p, Initial residual = 0.808094, Final residual = 9.40224e-05, No Iterations 146
linear solve p 292565
time step continuity errors : sum local = 1.60307e-05, global = 8.80565e-21, cumulative = -6.35563e-18
[OGL LOG] init_host_sparsity_pattern : 96 ms
[OGL LOG] matrix not stored update host matrix
[OGL LOG] update_host_mtx : 49 ms
[OGL LOG] matrix is not yet sorted, sorting host matrix
[OGL LOG] sort_host_mtx_sparsity_pattern : 38 ms
[OGL LOG] sort_host_mtx : 23 ms
[OGL LOG] init_preconditioner : 0 ms
[OGL LOG] solve : 46 ms
BJhipGKOBiCGStab:  Solving for p, Initial residual = 0.637888, Final residual = 9.74587e-05, No Iterations 90
linear solve p 266308
time step continuity errors : sum local = 1.19262e-06, global = 1.44115e-20, cumulative = -6.34122e-18
ExecutionTime = 14.34 s  ClockTime = 13 s

End

