/*---------------------------------------------------------------------------*\
  =========                 |
  \\      /  F ield         | OpenFOAM: The Open Source CFD Toolbox
   \\    /   O peration     | Website:  https://openfoam.org
    \\  /    A nd           | Version:  8
     \\/     M anipulation  |
\*---------------------------------------------------------------------------*/
Build  : 8-14d69e1ee166
Exec   : icoFoam
Date   : Jul 29 2021
Time   : 08:50:41
Host   : "guyot.icl.utk.edu"
PID    : 183607
I/O    : uncollated
Case   : /home/greole/code/OBR/lidDrivenCavity3D/Variation_mesh/65/Variation_matrix_solver/CG_NoPrecond_CUDA/base
nProcs : 1
sigFpe : Enabling floating point exception trapping (FOAM_SIGFPE).
fileModificationChecking : Monitoring run-time modified files using timeStampMaster (fileModificationSkew 10)
allowSystemOperations : Allowing user-supplied system call operations

// * * * * * * * * * * * * * * * * * * * * * * * * * * * * * * * * * * * * * //
Create time

Create mesh for time = 0

Reading transportProperties

Reading field p

Reading field U

Reading/calculating face flux field phi


Starting time loop

Time = 0.001

Courant Number mean: 0 max: 0
DILUPBiCGStab:  Solving for Ux, Initial residual = 1, Final residual = 0.0009093, No Iterations 5
DILUPBiCGStab:  Solving for Uy:  solution singularity
DILUPBiCGStab:  Solving for Uz:  solution singularity
linear solve U 105020
[OGL LOG] init_host_sparsity_pattern : 123 ms
[OGL LOG] matrix not stored update host matrix
[OGL LOG] update_host_mtx : 61 ms
[OGL LOG] matrix is not yet sorted, compute sorting idxs
[OGL LOG] compute_sort : 2824 ms
[OGL LOG] matrix is not yet sorted, sorting host matrix
[OGL LOG] sort_host_mtx_sparsity_pattern : 49 ms
[OGL LOG] sort_host_mtx : 29 ms
[OGL LOG] init_preconditioner : 0 ms
[OGL LOG] solve : 375 ms
nonecudaGKOCG:  Solving for p, Initial residual = 1, Final residual = 9.42369e-05, No Iterations 509
linear solve p 5175658
time step continuity errors : sum local = 5.53659e-08, global = 7.71584e-21, cumulative = 7.71584e-21
[OGL LOG] init_host_sparsity_pattern : 111 ms
[OGL LOG] matrix not stored update host matrix
[OGL LOG] update_host_mtx : 56 ms
[OGL LOG] matrix is not yet sorted, sorting host matrix
[OGL LOG] sort_host_mtx_sparsity_pattern : 44 ms
[OGL LOG] sort_host_mtx : 28 ms
[OGL LOG] init_preconditioner : 0 ms
[OGL LOG] solve : 355 ms
nonecudaGKOCG:  Solving for p, Initial residual = 0.710529, Final residual = 9.94714e-05, No Iterations 502
linear solve p 614336
time step continuity errors : sum local = 7.8688e-08, global = -1.21446e-20, cumulative = -4.42872e-21
ExecutionTime = 7.17 s  ClockTime = 7 s

Time = 0.002

Courant Number mean: 0.036459 max: 0.470838
DILUPBiCGStab:  Solving for Ux, Initial residual = 0.154387, Final residual = 0.000271567, No Iterations 5
DILUPBiCGStab:  Solving for Uy, Initial residual = 0.350436, Final residual = 0.000506098, No Iterations 5
DILUPBiCGStab:  Solving for Uz, Initial residual = 0.982773, Final residual = 0.0017687, No Iterations 5
linear solve U 214010
[OGL LOG] init_host_sparsity_pattern : 109 ms
[OGL LOG] matrix not stored update host matrix
[OGL LOG] update_host_mtx : 55 ms
[OGL LOG] matrix is not yet sorted, sorting host matrix
[OGL LOG] sort_host_mtx_sparsity_pattern : 44 ms
[OGL LOG] sort_host_mtx : 26 ms
[OGL LOG] init_preconditioner : 0 ms
[OGL LOG] solve : 358 ms
nonecudaGKOCG:  Solving for p, Initial residual = 0.645966, Final residual = 9.32802e-05, No Iterations 499
linear solve p 614600
time step continuity errors : sum local = 7.81632e-08, global = 1.91827e-21, cumulative = -2.51045e-21
[OGL LOG] init_host_sparsity_pattern : 109 ms
[OGL LOG] matrix not stored update host matrix
[OGL LOG] update_host_mtx : 54 ms
[OGL LOG] matrix is not yet sorted, sorting host matrix
[OGL LOG] sort_host_mtx_sparsity_pattern : 46 ms
[OGL LOG] sort_host_mtx : 26 ms
[OGL LOG] init_preconditioner : 0 ms
[OGL LOG] solve : 354 ms
nonecudaGKOCG:  Solving for p, Initial residual = 0.569399, Final residual = 9.88745e-05, No Iterations 497
linear solve p 611221
time step continuity errors : sum local = 8.48816e-08, global = -9.60046e-21, cumulative = -1.21109e-20
ExecutionTime = 8.73 s  ClockTime = 9 s

Time = 0.003

Courant Number mean: 0.0547095 max: 0.564536
DILUPBiCGStab:  Solving for Ux, Initial residual = 0.050613, Final residual = 5.48088e-05, No Iterations 5
DILUPBiCGStab:  Solving for Uy, Initial residual = 0.109592, Final residual = 0.000120717, No Iterations 5
DILUPBiCGStab:  Solving for Uz, Initial residual = 0.389112, Final residual = 0.000649717, No Iterations 5
linear solve U 212488
[OGL LOG] init_host_sparsity_pattern : 109 ms
[OGL LOG] matrix not stored update host matrix
[OGL LOG] update_host_mtx : 56 ms
[OGL LOG] matrix is not yet sorted, sorting host matrix
[OGL LOG] sort_host_mtx_sparsity_pattern : 44 ms
[OGL LOG] sort_host_mtx : 26 ms
[OGL LOG] init_preconditioner : 0 ms
[OGL LOG] solve : 355 ms
nonecudaGKOCG:  Solving for p, Initial residual = 0.547717, Final residual = 9.39607e-05, No Iterations 495
linear solve p 611391
time step continuity errors : sum local = 5.50268e-08, global = -1.89437e-20, cumulative = -3.10546e-20
[OGL LOG] init_host_sparsity_pattern : 110 ms
[OGL LOG] matrix not stored update host matrix
[OGL LOG] update_host_mtx : 54 ms
[OGL LOG] matrix is not yet sorted, sorting host matrix
[OGL LOG] sort_host_mtx_sparsity_pattern : 43 ms
[OGL LOG] sort_host_mtx : 26 ms
[OGL LOG] init_preconditioner : 0 ms
[OGL LOG] solve : 350 ms
nonecudaGKOCG:  Solving for p, Initial residual = 0.491464, Final residual = 8.9751e-05, No Iterations 494
linear solve p 602994
time step continuity errors : sum local = 5.10659e-08, global = 3.69249e-21, cumulative = -2.73621e-20
ExecutionTime = 10.29 s  ClockTime = 10 s

Time = 0.004

Courant Number mean: 0.0645905 max: 0.579605
DILUPBiCGStab:  Solving for Ux, Initial residual = 0.0290686, Final residual = 3.32268e-05, No Iterations 5
DILUPBiCGStab:  Solving for Uy, Initial residual = 0.0718691, Final residual = 5.55056e-05, No Iterations 5
DILUPBiCGStab:  Solving for Uz, Initial residual = 0.208761, Final residual = 0.000261438, No Iterations 5
linear solve U 215498
[OGL LOG] init_host_sparsity_pattern : 109 ms
[OGL LOG] matrix not stored update host matrix
[OGL LOG] update_host_mtx : 55 ms
[OGL LOG] matrix is not yet sorted, sorting host matrix
[OGL LOG] sort_host_mtx_sparsity_pattern : 43 ms
[OGL LOG] sort_host_mtx : 26 ms
[OGL LOG] init_preconditioner : 0 ms
[OGL LOG] solve : 348 ms
nonecudaGKOCG:  Solving for p, Initial residual = 0.31668, Final residual = 9.34479e-05, No Iterations 484
linear solve p 602730
time step continuity errors : sum local = 4.861e-08, global = -1.31992e-20, cumulative = -4.05613e-20
[OGL LOG] init_host_sparsity_pattern : 110 ms
[OGL LOG] matrix not stored update host matrix
[OGL LOG] update_host_mtx : 55 ms
[OGL LOG] matrix is not yet sorted, sorting host matrix
[OGL LOG] sort_host_mtx_sparsity_pattern : 44 ms
[OGL LOG] sort_host_mtx : 29 ms
[OGL LOG] init_preconditioner : 0 ms
[OGL LOG] solve : 338 ms
nonecudaGKOCG:  Solving for p, Initial residual = 0.261918, Final residual = 9.97347e-05, No Iterations 480
linear solve p 596483
time step continuity errors : sum local = 5.25138e-08, global = 7.8685e-21, cumulative = -3.26928e-20
ExecutionTime = 11.82 s  ClockTime = 12 s

Time = 0.005

Courant Number mean: 0.0722267 max: 0.589261
DILUPBiCGStab:  Solving for Ux, Initial residual = 0.0206402, Final residual = 1.4658e-05, No Iterations 5
DILUPBiCGStab:  Solving for Uy, Initial residual = 0.04455, Final residual = 3.50823e-05, No Iterations 5
DILUPBiCGStab:  Solving for Uz, Initial residual = 0.0745625, Final residual = 7.55495e-05, No Iterations 5
linear solve U 217252
[OGL LOG] init_host_sparsity_pattern : 109 ms
[OGL LOG] matrix not stored update host matrix
[OGL LOG] update_host_mtx : 54 ms
[OGL LOG] matrix is not yet sorted, sorting host matrix
[OGL LOG] sort_host_mtx_sparsity_pattern : 43 ms
[OGL LOG] sort_host_mtx : 26 ms
[OGL LOG] init_preconditioner : 0 ms
[OGL LOG] solve : 330 ms
nonecudaGKOCG:  Solving for p, Initial residual = 0.213995, Final residual = 9.95082e-05, No Iterations 461
linear solve p 585107
time step continuity errors : sum local = 4.53301e-08, global = 1.01966e-20, cumulative = -2.24962e-20
[OGL LOG] init_host_sparsity_pattern : 110 ms
[OGL LOG] matrix not stored update host matrix
[OGL LOG] update_host_mtx : 55 ms
[OGL LOG] matrix is not yet sorted, sorting host matrix
[OGL LOG] sort_host_mtx_sparsity_pattern : 44 ms
[OGL LOG] sort_host_mtx : 26 ms
[OGL LOG] init_preconditioner : 0 ms
[OGL LOG] solve : 331 ms
nonecudaGKOCG:  Solving for p, Initial residual = 0.179762, Final residual = 9.74234e-05, No Iterations 461
linear solve p 587189
time step continuity errors : sum local = 4.41227e-08, global = -4.28809e-21, cumulative = -2.67843e-20
ExecutionTime = 13.33 s  ClockTime = 13 s

Time = 0.006

Courant Number mean: 0.0781056 max: 0.595023
DILUPBiCGStab:  Solving for Ux, Initial residual = 0.0153438, Final residual = 1.31843e-05, No Iterations 5
DILUPBiCGStab:  Solving for Uy, Initial residual = 0.0341657, Final residual = 1.47467e-05, No Iterations 5
DILUPBiCGStab:  Solving for Uz, Initial residual = 0.0671456, Final residual = 6.50318e-05, No Iterations 5
linear solve U 214727
[OGL LOG] init_host_sparsity_pattern : 110 ms
[OGL LOG] matrix not stored update host matrix
[OGL LOG] update_host_mtx : 54 ms
[OGL LOG] matrix is not yet sorted, sorting host matrix
[OGL LOG] sort_host_mtx_sparsity_pattern : 43 ms
[OGL LOG] sort_host_mtx : 27 ms
[OGL LOG] init_preconditioner : 0 ms
[OGL LOG] solve : 158 ms
nonecudaGKOCG:  Solving for p, Initial residual = 0.126579, Final residual = 9.71712e-05, No Iterations 223
linear solve p 413299
time step continuity errors : sum local = 5.18317e-08, global = 1.17118e-20, cumulative = -1.50725e-20
[OGL LOG] init_host_sparsity_pattern : 109 ms
[OGL LOG] matrix not stored update host matrix
[OGL LOG] update_host_mtx : 56 ms
[OGL LOG] matrix is not yet sorted, sorting host matrix
[OGL LOG] sort_host_mtx_sparsity_pattern : 44 ms
[OGL LOG] sort_host_mtx : 29 ms
[OGL LOG] init_preconditioner : 0 ms
[OGL LOG] solve : 156 ms
nonecudaGKOCG:  Solving for p, Initial residual = 0.103661, Final residual = 9.72665e-05, No Iterations 217
linear solve p 414137
time step continuity errors : sum local = 4.61073e-08, global = 1.07026e-20, cumulative = -4.36996e-21
ExecutionTime = 14.5 s  ClockTime = 14 s

Time = 0.007

Courant Number mean: 0.0829416 max: 0.598973
DILUPBiCGStab:  Solving for Ux, Initial residual = 0.0121948, Final residual = 5.65147e-06, No Iterations 5
DILUPBiCGStab:  Solving for Uy, Initial residual = 0.0270209, Final residual = 1.49269e-05, No Iterations 5
DILUPBiCGStab:  Solving for Uz, Initial residual = 0.0486838, Final residual = 4.09657e-05, No Iterations 5
linear solve U 215583
[OGL LOG] init_host_sparsity_pattern : 110 ms
[OGL LOG] matrix not stored update host matrix
[OGL LOG] update_host_mtx : 54 ms
[OGL LOG] matrix is not yet sorted, sorting host matrix
[OGL LOG] sort_host_mtx_sparsity_pattern : 43 ms
[OGL LOG] sort_host_mtx : 26 ms
[OGL LOG] init_preconditioner : 0 ms
[OGL LOG] solve : 151 ms
nonecudaGKOCG:  Solving for p, Initial residual = 0.084526, Final residual = 9.81477e-05, No Iterations 212
linear solve p 404885
time step continuity errors : sum local = 4.31853e-08, global = -3.06299e-20, cumulative = -3.49999e-20
[OGL LOG] init_host_sparsity_pattern : 109 ms
[OGL LOG] matrix not stored update host matrix
[OGL LOG] update_host_mtx : 56 ms
[OGL LOG] matrix is not yet sorted, sorting host matrix
[OGL LOG] sort_host_mtx_sparsity_pattern : 44 ms
[OGL LOG] sort_host_mtx : 26 ms
[OGL LOG] init_preconditioner : 0 ms
[OGL LOG] solve : 151 ms
nonecudaGKOCG:  Solving for p, Initial residual = 0.0699967, Final residual = 9.67266e-05, No Iterations 210
linear solve p 407346
time step continuity errors : sum local = 4.24991e-08, global = 7.51182e-21, cumulative = -2.7488e-20
ExecutionTime = 15.65 s  ClockTime = 15 s

Time = 0.008

Courant Number mean: 0.0869902 max: 0.601971
DILUPBiCGStab:  Solving for Ux, Initial residual = 0.0100251, Final residual = 4.75451e-06, No Iterations 5
DILUPBiCGStab:  Solving for Uy, Initial residual = 0.0221927, Final residual = 6.29449e-06, No Iterations 5
DILUPBiCGStab:  Solving for Uz, Initial residual = 0.0417604, Final residual = 2.72285e-05, No Iterations 5
linear solve U 216442
[OGL LOG] init_host_sparsity_pattern : 109 ms
[OGL LOG] matrix not stored update host matrix
[OGL LOG] update_host_mtx : 54 ms
[OGL LOG] matrix is not yet sorted, sorting host matrix
[OGL LOG] sort_host_mtx_sparsity_pattern : 47 ms
[OGL LOG] sort_host_mtx : 26 ms
[OGL LOG] init_preconditioner : 0 ms
[OGL LOG] solve : 154 ms
nonecudaGKOCG:  Solving for p, Initial residual = 0.0542258, Final residual = 9.6101e-05, No Iterations 217
linear solve p 412675
time step continuity errors : sum local = 4.9485e-08, global = -5.58347e-23, cumulative = -2.75439e-20
[OGL LOG] init_host_sparsity_pattern : 109 ms
[OGL LOG] matrix not stored update host matrix
[OGL LOG] update_host_mtx : 56 ms
[OGL LOG] matrix is not yet sorted, sorting host matrix
[OGL LOG] sort_host_mtx_sparsity_pattern : 44 ms
[OGL LOG] sort_host_mtx : 28 ms
[OGL LOG] init_preconditioner : 0 ms
[OGL LOG] solve : 147 ms
nonecudaGKOCG:  Solving for p, Initial residual = 0.0450375, Final residual = 9.62489e-05, No Iterations 206
linear solve p 405676
time step continuity errors : sum local = 4.44476e-08, global = -1.4958e-21, cumulative = -2.90397e-20
ExecutionTime = 16.81 s  ClockTime = 17 s

Time = 0.009

Courant Number mean: 0.0904653 max: 0.604263
DILUPBiCGStab:  Solving for Ux, Initial residual = 0.00840363, Final residual = 2.59079e-06, No Iterations 5
DILUPBiCGStab:  Solving for Uy, Initial residual = 0.0188047, Final residual = 6.39778e-06, No Iterations 5
DILUPBiCGStab:  Solving for Uz, Initial residual = 0.0358028, Final residual = 2.1552e-05, No Iterations 5
linear solve U 215441
[OGL LOG] init_host_sparsity_pattern : 110 ms
[OGL LOG] matrix not stored update host matrix
[OGL LOG] update_host_mtx : 54 ms
[OGL LOG] matrix is not yet sorted, sorting host matrix
[OGL LOG] sort_host_mtx_sparsity_pattern : 43 ms
[OGL LOG] sort_host_mtx : 27 ms
[OGL LOG] init_preconditioner : 0 ms
[OGL LOG] solve : 147 ms
nonecudaGKOCG:  Solving for p, Initial residual = 0.0386295, Final residual = 9.93056e-05, No Iterations 205
linear solve p 402442
time step continuity errors : sum local = 4.32269e-08, global = -2.65714e-20, cumulative = -5.56111e-20
[OGL LOG] init_host_sparsity_pattern : 110 ms
[OGL LOG] matrix not stored update host matrix
[OGL LOG] update_host_mtx : 55 ms
[OGL LOG] matrix is not yet sorted, sorting host matrix
[OGL LOG] sort_host_mtx_sparsity_pattern : 44 ms
[OGL LOG] sort_host_mtx : 29 ms
[OGL LOG] init_preconditioner : 0 ms
[OGL LOG] solve : 145 ms
nonecudaGKOCG:  Solving for p, Initial residual = 0.0326034, Final residual = 9.87445e-05, No Iterations 202
linear solve p 403407
time step continuity errors : sum local = 4.27e-08, global = -6.37708e-21, cumulative = -6.19882e-20
ExecutionTime = 17.95 s  ClockTime = 18 s

Time = 0.01

Courant Number mean: 0.0934677 max: 0.606123
DILUPBiCGStab:  Solving for Ux, Initial residual = 0.00720788, Final residual = 2.06841e-06, No Iterations 5
DILUPBiCGStab:  Solving for Uy, Initial residual = 0.016101, Final residual = 2.54511e-06, No Iterations 5
DILUPBiCGStab:  Solving for Uz, Initial residual = 0.0311989, Final residual = 1.54935e-05, No Iterations 5
linear solve U 215772
[OGL LOG] init_host_sparsity_pattern : 110 ms
[OGL LOG] matrix not stored update host matrix
[OGL LOG] update_host_mtx : 54 ms
[OGL LOG] matrix is not yet sorted, sorting host matrix
[OGL LOG] sort_host_mtx_sparsity_pattern : 43 ms
[OGL LOG] sort_host_mtx : 26 ms
[OGL LOG] init_preconditioner : 0 ms
[OGL LOG] solve : 316 ms
nonecudaGKOCG:  Solving for p, Initial residual = 0.0271932, Final residual = 8.90378e-05, No Iterations 443
linear solve p 570424
time step continuity errors : sum local = 3.77852e-08, global = -8.62618e-21, cumulative = -7.06143e-20
[OGL LOG] init_host_sparsity_pattern : 110 ms
[OGL LOG] matrix not stored update host matrix
[OGL LOG] update_host_mtx : 56 ms
[OGL LOG] matrix is not yet sorted, sorting host matrix
[OGL LOG] sort_host_mtx_sparsity_pattern : 44 ms
[OGL LOG] sort_host_mtx : 27 ms
[OGL LOG] init_preconditioner : 0 ms
[OGL LOG] solve : 148 ms
nonecudaGKOCG:  Solving for p, Initial residual = 0.0233871, Final residual = 9.75157e-05, No Iterations 206
linear solve p 404565
time step continuity errors : sum local = 4.90594e-08, global = -2.14644e-20, cumulative = -9.20787e-20
ExecutionTime = 19.27 s  ClockTime = 19 s

End

