/*---------------------------------------------------------------------------*\
  =========                 |
  \\      /  F ield         | OpenFOAM: The Open Source CFD Toolbox
   \\    /   O peration     | Website:  https://openfoam.org
    \\  /    A nd           | Version:  8
     \\/     M anipulation  |
\*---------------------------------------------------------------------------*/
Build  : 8-ef60d22ea792
Exec   : icoFoam
Date   : Jul 28 2021
Time   : 15:14:56
Host   : "nla-gpu2.ianm.kit.edu"
PID    : 1506557
I/O    : uncollated
Case   : /home/greole/code/OBR/lidDrivenCavity3D/Variation_mesh/95/Variation_matrix_solver/CG_BJ_HIP/base
nProcs : 1
sigFpe : Enabling floating point exception trapping (FOAM_SIGFPE).
fileModificationChecking : Monitoring run-time modified files using timeStampMaster (fileModificationSkew 10)
allowSystemOperations : Allowing user-supplied system call operations

// * * * * * * * * * * * * * * * * * * * * * * * * * * * * * * * * * * * * * //
Create time

Create mesh for time = 0

Reading transportProperties

Reading field p

Reading field U

Reading/calculating face flux field phi


Starting time loop

Time = 0.001

Courant Number mean: 0 max: 0
DILUPBiCGStab:  Solving for Ux, Initial residual = 1, Final residual = 0.00597808, No Iterations 5
DILUPBiCGStab:  Solving for Uy:  solution singularity
DILUPBiCGStab:  Solving for Uz:  solution singularity
linear solve U 354749
[OGL LOG] init_host_sparsity_pattern : 404 ms
[OGL LOG] matrix not stored update host matrix
[OGL LOG] update_host_mtx : 192 ms
[OGL LOG] matrix is not yet sorted, compute sorting idxs
[OGL LOG] compute_sort : 8618 ms
[OGL LOG] matrix is not yet sorted, sorting host matrix
[OGL LOG] sort_host_mtx_sparsity_pattern : 161 ms
[OGL LOG] sort_host_mtx : 107 ms
[OGL LOG] init_preconditioner : 644 ms
 CG create  precond 
[OGL LOG] solve : 423 ms
BJhipGKOCG:  Solving for p, Initial residual = 1, Final residual = 9.99744e-05, No Iterations 631
linear solve p 11031177
time step continuity errors : sum local = 5.77205e-08, global = 8.84217e-21, cumulative = 8.84217e-21
[OGL LOG] init_host_sparsity_pattern : 402 ms
[OGL LOG] matrix not stored update host matrix
[OGL LOG] update_host_mtx : 192 ms
[OGL LOG] matrix is not yet sorted, sorting host matrix
[OGL LOG] sort_host_mtx_sparsity_pattern : 168 ms
[OGL LOG] sort_host_mtx : 105 ms
[OGL LOG] init_preconditioner : 0 ms
 CG create  precond 
[OGL LOG] solve : 381 ms
BJhipGKOCG:  Solving for p, Initial residual = 0.770645, Final residual = 9.7936e-05, No Iterations 615
linear solve p 1282227
time step continuity errors : sum local = 7.18139e-08, global = 3.69395e-21, cumulative = 1.25361e-20
ExecutionTime = 17.34 s  ClockTime = 17 s

Time = 0.002

Courant Number mean: 0.0534417 max: 0.757475
DILUPBiCGStab:  Solving for Ux, Initial residual = 0.140128, Final residual = 0.00255032, No Iterations 5
DILUPBiCGStab:  Solving for Uy, Initial residual = 0.419605, Final residual = 0.00695945, No Iterations 5
DILUPBiCGStab:  Solving for Uz, Initial residual = 0.989675, Final residual = 0.0178024, No Iterations 5
linear solve U 708341
[OGL LOG] init_host_sparsity_pattern : 401 ms
[OGL LOG] matrix not stored update host matrix
[OGL LOG] update_host_mtx : 192 ms
[OGL LOG] matrix is not yet sorted, sorting host matrix
[OGL LOG] sort_host_mtx_sparsity_pattern : 171 ms
[OGL LOG] sort_host_mtx : 105 ms
[OGL LOG] init_preconditioner : 0 ms
 CG create  precond 
[OGL LOG] solve : 376 ms
BJhipGKOCG:  Solving for p, Initial residual = 0.783553, Final residual = 9.39869e-05, No Iterations 608
linear solve p 1280164
time step continuity errors : sum local = 9.30761e-08, global = 3.42805e-21, cumulative = 1.59642e-20
[OGL LOG] init_host_sparsity_pattern : 404 ms
[OGL LOG] matrix not stored update host matrix
[OGL LOG] update_host_mtx : 193 ms
[OGL LOG] matrix is not yet sorted, sorting host matrix
[OGL LOG] sort_host_mtx_sparsity_pattern : 173 ms
[OGL LOG] sort_host_mtx : 106 ms
[OGL LOG] init_preconditioner : 0 ms
 CG create  precond 
[OGL LOG] solve : 390 ms
BJhipGKOCG:  Solving for p, Initial residual = 0.7229, Final residual = 9.68362e-05, No Iterations 606
linear solve p 1309406
time step continuity errors : sum local = 9.78716e-08, global = -1.39393e-20, cumulative = 2.02486e-21
ExecutionTime = 21.51 s  ClockTime = 21 s

Time = 0.003

Courant Number mean: 0.0810139 max: 0.886813
DILUPBiCGStab:  Solving for Ux, Initial residual = 0.0625976, Final residual = 0.000877145, No Iterations 5
DILUPBiCGStab:  Solving for Uy, Initial residual = 0.202723, Final residual = 0.00232318, No Iterations 5
DILUPBiCGStab:  Solving for Uz, Initial residual = 0.778877, Final residual = 0.0126636, No Iterations 5
linear solve U 712552
[OGL LOG] init_host_sparsity_pattern : 402 ms
[OGL LOG] matrix not stored update host matrix
[OGL LOG] update_host_mtx : 193 ms
[OGL LOG] matrix is not yet sorted, sorting host matrix
[OGL LOG] sort_host_mtx_sparsity_pattern : 170 ms
[OGL LOG] sort_host_mtx : 104 ms
[OGL LOG] init_preconditioner : 0 ms
 CG create  precond 
[OGL LOG] solve : 236 ms
BJhipGKOCG:  Solving for p, Initial residual = 0.809005, Final residual = 9.75176e-05, No Iterations 363
linear solve p 1140523
time step continuity errors : sum local = 8.92256e-08, global = 1.39706e-20, cumulative = 1.59955e-20
[OGL LOG] init_host_sparsity_pattern : 407 ms
[OGL LOG] matrix not stored update host matrix
[OGL LOG] update_host_mtx : 192 ms
[OGL LOG] matrix is not yet sorted, sorting host matrix
[OGL LOG] sort_host_mtx_sparsity_pattern : 170 ms
[OGL LOG] sort_host_mtx : 103 ms
[OGL LOG] init_preconditioner : 0 ms
 CG create  precond 
[OGL LOG] solve : 233 ms
BJhipGKOCG:  Solving for p, Initial residual = 0.776106, Final residual = 9.79955e-05, No Iterations 361
linear solve p 1142137
time step continuity errors : sum local = 8.54728e-08, global = 5.94761e-21, cumulative = 2.19431e-20
ExecutionTime = 25.22 s  ClockTime = 24 s

Time = 0.004

Courant Number mean: 0.0936155 max: 0.877122
DILUPBiCGStab:  Solving for Ux, Initial residual = 0.0356763, Final residual = 0.00061717, No Iterations 5
DILUPBiCGStab:  Solving for Uy, Initial residual = 0.148241, Final residual = 0.0022421, No Iterations 5
DILUPBiCGStab:  Solving for Uz, Initial residual = 0.57983, Final residual = 0.00799499, No Iterations 5
linear solve U 700245
[OGL LOG] init_host_sparsity_pattern : 402 ms
[OGL LOG] matrix not stored update host matrix
[OGL LOG] update_host_mtx : 196 ms
[OGL LOG] matrix is not yet sorted, sorting host matrix
[OGL LOG] sort_host_mtx_sparsity_pattern : 167 ms
[OGL LOG] sort_host_mtx : 105 ms
[OGL LOG] init_preconditioner : 0 ms
 CG create  precond 
[OGL LOG] solve : 231 ms
BJhipGKOCG:  Solving for p, Initial residual = 0.704823, Final residual = 9.75475e-05, No Iterations 358
linear solve p 1137857
time step continuity errors : sum local = 8.0924e-08, global = 1.24762e-20, cumulative = 3.44193e-20
[OGL LOG] init_host_sparsity_pattern : 402 ms
[OGL LOG] matrix not stored update host matrix
[OGL LOG] update_host_mtx : 191 ms
[OGL LOG] matrix is not yet sorted, sorting host matrix
[OGL LOG] sort_host_mtx_sparsity_pattern : 167 ms
[OGL LOG] sort_host_mtx : 107 ms
[OGL LOG] init_preconditioner : 0 ms
 CG create  precond 
[OGL LOG] solve : 214 ms
BJhipGKOCG:  Solving for p, Initial residual = 0.6391, Final residual = 9.70682e-05, No Iterations 331
linear solve p 1115951
time step continuity errors : sum local = 7.94591e-08, global = 1.3234e-20, cumulative = 4.76532e-20
ExecutionTime = 28.85 s  ClockTime = 28 s

Time = 0.005

Courant Number mean: 0.105259 max: 0.88966
DILUPBiCGStab:  Solving for Ux, Initial residual = 0.0274659, Final residual = 0.000432741, No Iterations 5
DILUPBiCGStab:  Solving for Uy, Initial residual = 0.0812158, Final residual = 0.00141316, No Iterations 5
DILUPBiCGStab:  Solving for Uz, Initial residual = 0.484079, Final residual = 0.00623432, No Iterations 5
linear solve U 703352
[OGL LOG] init_host_sparsity_pattern : 402 ms
[OGL LOG] matrix not stored update host matrix
[OGL LOG] update_host_mtx : 191 ms
[OGL LOG] matrix is not yet sorted, sorting host matrix
[OGL LOG] sort_host_mtx_sparsity_pattern : 175 ms
[OGL LOG] sort_host_mtx : 104 ms
[OGL LOG] init_preconditioner : 0 ms
 CG create  precond 
[OGL LOG] solve : 202 ms
BJhipGKOCG:  Solving for p, Initial residual = 0.699301, Final residual = 9.81277e-05, No Iterations 325
linear solve p 1111266
time step continuity errors : sum local = 6.95505e-08, global = 8.81538e-21, cumulative = 5.64686e-20
[OGL LOG] init_host_sparsity_pattern : 402 ms
[OGL LOG] matrix not stored update host matrix
[OGL LOG] update_host_mtx : 191 ms
[OGL LOG] matrix is not yet sorted, sorting host matrix
[OGL LOG] sort_host_mtx_sparsity_pattern : 169 ms
[OGL LOG] sort_host_mtx : 107 ms
[OGL LOG] init_preconditioner : 0 ms
 CG create  precond 
[OGL LOG] solve : 192 ms
BJhipGKOCG:  Solving for p, Initial residual = 0.648237, Final residual = 9.836e-05, No Iterations 300
linear solve p 1095953
time step continuity errors : sum local = 6.47306e-08, global = 1.09122e-20, cumulative = 6.73808e-20
ExecutionTime = 32.41 s  ClockTime = 31 s

Time = 0.006

Courant Number mean: 0.113391 max: 0.895057
DILUPBiCGStab:  Solving for Ux, Initial residual = 0.0177913, Final residual = 0.000284088, No Iterations 5
DILUPBiCGStab:  Solving for Uy, Initial residual = 0.067217, Final residual = 0.00104602, No Iterations 5
DILUPBiCGStab:  Solving for Uz, Initial residual = 0.347076, Final residual = 0.00454157, No Iterations 5
linear solve U 707890
[OGL LOG] init_host_sparsity_pattern : 402 ms
[OGL LOG] matrix not stored update host matrix
[OGL LOG] update_host_mtx : 192 ms
[OGL LOG] matrix is not yet sorted, sorting host matrix
[OGL LOG] sort_host_mtx_sparsity_pattern : 172 ms
[OGL LOG] sort_host_mtx : 106 ms
[OGL LOG] init_preconditioner : 0 ms
 CG create  precond 
[OGL LOG] solve : 199 ms
BJhipGKOCG:  Solving for p, Initial residual = 0.581974, Final residual = 9.85434e-05, No Iterations 316
linear solve p 1107927
time step continuity errors : sum local = 6.12985e-08, global = -6.14023e-21, cumulative = 6.12406e-20
[OGL LOG] init_host_sparsity_pattern : 404 ms
[OGL LOG] matrix not stored update host matrix
[OGL LOG] update_host_mtx : 192 ms
[OGL LOG] matrix is not yet sorted, sorting host matrix
[OGL LOG] sort_host_mtx_sparsity_pattern : 171 ms
[OGL LOG] sort_host_mtx : 106 ms
[OGL LOG] init_preconditioner : 0 ms
 CG create  precond 
[OGL LOG] solve : 197 ms
BJhipGKOCG:  Solving for p, Initial residual = 0.523298, Final residual = 9.89067e-05, No Iterations 312
linear solve p 1103199
time step continuity errors : sum local = 5.93213e-08, global = 3.74877e-20, cumulative = 9.87283e-20
ExecutionTime = 35.99 s  ClockTime = 34 s

Time = 0.007

Courant Number mean: 0.120594 max: 0.898291
DILUPBiCGStab:  Solving for Ux, Initial residual = 0.0152466, Final residual = 0.000219203, No Iterations 5
DILUPBiCGStab:  Solving for Uy, Initial residual = 0.043773, Final residual = 0.000706443, No Iterations 5
DILUPBiCGStab:  Solving for Uz, Initial residual = 0.264561, Final residual = 0.00350918, No Iterations 5
linear solve U 707082
[OGL LOG] init_host_sparsity_pattern : 401 ms
[OGL LOG] matrix not stored update host matrix
[OGL LOG] update_host_mtx : 191 ms
[OGL LOG] matrix is not yet sorted, sorting host matrix
[OGL LOG] sort_host_mtx_sparsity_pattern : 175 ms
[OGL LOG] sort_host_mtx : 104 ms
[OGL LOG] init_preconditioner : 0 ms
 CG create  precond 
[OGL LOG] solve : 367 ms
BJhipGKOCG:  Solving for p, Initial residual = 0.562192, Final residual = 9.65195e-05, No Iterations 596
linear solve p 1273438
time step continuity errors : sum local = 4.78559e-08, global = -1.44211e-20, cumulative = 8.43072e-20
[OGL LOG] init_host_sparsity_pattern : 402 ms
[OGL LOG] matrix not stored update host matrix
[OGL LOG] update_host_mtx : 191 ms
[OGL LOG] matrix is not yet sorted, sorting host matrix
[OGL LOG] sort_host_mtx_sparsity_pattern : 163 ms
[OGL LOG] sort_host_mtx : 107 ms
[OGL LOG] init_preconditioner : 0 ms
 CG create  precond 
[OGL LOG] solve : 365 ms
BJhipGKOCG:  Solving for p, Initial residual = 0.504798, Final residual = 9.68938e-05, No Iterations 594
linear solve p 1263087
time step continuity errors : sum local = 4.78372e-08, global = -1.05626e-20, cumulative = 7.37446e-20
ExecutionTime = 40.08 s  ClockTime = 38 s

Time = 0.008

Courant Number mean: 0.126416 max: 0.902022
DILUPBiCGStab:  Solving for Ux, Initial residual = 0.0110602, Final residual = 0.000149439, No Iterations 5
DILUPBiCGStab:  Solving for Uy, Initial residual = 0.0375005, Final residual = 0.000547707, No Iterations 5
DILUPBiCGStab:  Solving for Uz, Initial residual = 0.19745, Final residual = 0.00262077, No Iterations 5
linear solve U 706989
[OGL LOG] init_host_sparsity_pattern : 401 ms
[OGL LOG] matrix not stored update host matrix
[OGL LOG] update_host_mtx : 191 ms
[OGL LOG] matrix is not yet sorted, sorting host matrix
[OGL LOG] sort_host_mtx_sparsity_pattern : 173 ms
[OGL LOG] sort_host_mtx : 103 ms
[OGL LOG] init_preconditioner : 0 ms
 CG create  precond 
[OGL LOG] solve : 186 ms
BJhipGKOCG:  Solving for p, Initial residual = 0.459213, Final residual = 9.77877e-05, No Iterations 297
linear solve p 1088695
time step continuity errors : sum local = 4.928e-08, global = 1.70462e-21, cumulative = 7.54492e-20
[OGL LOG] init_host_sparsity_pattern : 403 ms
[OGL LOG] matrix not stored update host matrix
[OGL LOG] update_host_mtx : 191 ms
[OGL LOG] matrix is not yet sorted, sorting host matrix
[OGL LOG] sort_host_mtx_sparsity_pattern : 165 ms
[OGL LOG] sort_host_mtx : 104 ms
[OGL LOG] init_preconditioner : 0 ms
 CG create  precond 
[OGL LOG] solve : 182 ms
BJhipGKOCG:  Solving for p, Initial residual = 0.406916, Final residual = 9.49257e-05, No Iterations 295
linear solve p 1080295
time step continuity errors : sum local = 4.63423e-08, global = -4.51071e-21, cumulative = 7.09385e-20
ExecutionTime = 43.58 s  ClockTime = 41 s

Time = 0.009

Courant Number mean: 0.131553 max: 0.903728
DILUPBiCGStab:  Solving for Ux, Initial residual = 0.0096544, Final residual = 0.000116482, No Iterations 5
DILUPBiCGStab:  Solving for Uy, Initial residual = 0.0273314, Final residual = 0.000335188, No Iterations 5
DILUPBiCGStab:  Solving for Uz, Initial residual = 0.148125, Final residual = 0.00217061, No Iterations 5
linear solve U 700564
[OGL LOG] init_host_sparsity_pattern : 400 ms
[OGL LOG] matrix not stored update host matrix
[OGL LOG] update_host_mtx : 191 ms
[OGL LOG] matrix is not yet sorted, sorting host matrix
[OGL LOG] sort_host_mtx_sparsity_pattern : 172 ms
[OGL LOG] sort_host_mtx : 103 ms
[OGL LOG] init_preconditioner : 0 ms
 CG create  precond 
[OGL LOG] solve : 360 ms
BJhipGKOCG:  Solving for p, Initial residual = 0.428098, Final residual = 9.74684e-05, No Iterations 588
linear solve p 1262267
time step continuity errors : sum local = 4.09699e-08, global = -1.21794e-20, cumulative = 5.87591e-20
[OGL LOG] init_host_sparsity_pattern : 402 ms
[OGL LOG] matrix not stored update host matrix
[OGL LOG] update_host_mtx : 191 ms
[OGL LOG] matrix is not yet sorted, sorting host matrix
[OGL LOG] sort_host_mtx_sparsity_pattern : 168 ms
[OGL LOG] sort_host_mtx : 101 ms
[OGL LOG] init_preconditioner : 0 ms
 CG create  precond 
[OGL LOG] solve : 356 ms
BJhipGKOCG:  Solving for p, Initial residual = 0.375898, Final residual = 9.97339e-05, No Iterations 580
linear solve p 1254892
time step continuity errors : sum local = 4.19233e-08, global = -3.42727e-21, cumulative = 5.53318e-20
ExecutionTime = 47.65 s  ClockTime = 45 s

Time = 0.01

Courant Number mean: 0.135966 max: 0.906065
DILUPBiCGStab:  Solving for Ux, Initial residual = 0.00755456, Final residual = 8.36418e-05, No Iterations 5
DILUPBiCGStab:  Solving for Uy, Initial residual = 0.0238147, Final residual = 0.000280256, No Iterations 5
DILUPBiCGStab:  Solving for Uz, Initial residual = 0.116083, Final residual = 0.00173112, No Iterations 5
linear solve U 703950
[OGL LOG] init_host_sparsity_pattern : 401 ms
[OGL LOG] matrix not stored update host matrix
[OGL LOG] update_host_mtx : 191 ms
[OGL LOG] matrix is not yet sorted, sorting host matrix
[OGL LOG] sort_host_mtx_sparsity_pattern : 167 ms
[OGL LOG] sort_host_mtx : 107 ms
[OGL LOG] init_preconditioner : 0 ms
 CG create  precond 
[OGL LOG] solve : 184 ms
BJhipGKOCG:  Solving for p, Initial residual = 0.350932, Final residual = 9.51376e-05, No Iterations 294
linear solve p 1085037
time step continuity errors : sum local = 4.08661e-08, global = 2.00655e-21, cumulative = 5.73384e-20
[OGL LOG] init_host_sparsity_pattern : 402 ms
[OGL LOG] matrix not stored update host matrix
[OGL LOG] update_host_mtx : 191 ms
[OGL LOG] matrix is not yet sorted, sorting host matrix
[OGL LOG] sort_host_mtx_sparsity_pattern : 175 ms
[OGL LOG] sort_host_mtx : 103 ms
[OGL LOG] init_preconditioner : 0 ms
 CG create  precond 
[OGL LOG] solve : 175 ms
BJhipGKOCG:  Solving for p, Initial residual = 0.307491, Final residual = 9.88212e-05, No Iterations 281
linear solve p 1080545
time step continuity errors : sum local = 4.11013e-08, global = 5.93015e-21, cumulative = 6.32685e-20
ExecutionTime = 51.17 s  ClockTime = 48 s

End

