/*---------------------------------------------------------------------------*\
  =========                 |
  \\      /  F ield         | OpenFOAM: The Open Source CFD Toolbox
   \\    /   O peration     | Website:  https://openfoam.org
    \\  /    A nd           | Version:  8
     \\/     M anipulation  |
\*---------------------------------------------------------------------------*/
Build  : 8-40a5a48f630f
Exec   : icoFoam
Date   : Jul 28 2021
Time   : 13:18:39
Host   : "uc2n446.localdomain"
PID    : 417357
I/O    : uncollated
Case   : /pfs/data5/home/kit/scc/nq7776/code/OBR/lidDrivenCavity3D/Variation_mesh/30/Variation_matrix_solver/BiCGStab_BJ_OMP/base
nProcs : 1
sigFpe : Enabling floating point exception trapping (FOAM_SIGFPE).
fileModificationChecking : Monitoring run-time modified files using timeStampMaster (fileModificationSkew 10)
allowSystemOperations : Allowing user-supplied system call operations

// * * * * * * * * * * * * * * * * * * * * * * * * * * * * * * * * * * * * * //
Create time

Create mesh for time = 0

Reading transportProperties

Reading field p

Reading field U

Reading/calculating face flux field phi


Starting time loop

Time = 0.001

Courant Number mean: 0 max: 0
nonePBiCGStab:  Solving for Ux, Initial residual = 1, Final residual = 0.00734209, No Iterations 5
nonePBiCGStab:  Solving for Uy, Initial residual = 0, Final residual = 0, No Iterations 0
nonePBiCGStab:  Solving for Uz, Initial residual = 0, Final residual = 0, No Iterations 0
linear solve U 5
[OGL LOG] init_host_sparsity_pattern : 7 ms
[OGL LOG] matrix not stored update host matrix
[OGL LOG] update_host_mtx : 4 ms
[OGL LOG] matrix is not yet sorted, compute sorting idxs
[OGL LOG] compute_sort : 193 ms
[OGL LOG] matrix is not yet sorted, sorting host matrix
[OGL LOG] sort_host_mtx_sparsity_pattern : 5 ms
[OGL LOG] sort_host_mtx : 3 ms
[OGL LOG] init_preconditioner : 1 ms
[OGL LOG] solve : 131 ms
BJompGKOBiCGStab:  Solving for p, Initial residual = 1, Final residual = 3.90715e-05, No Iterations 151
linear solve p 355
time step continuity errors : sum local = 6.50682e-07, global = 2.56922e-21, cumulative = 2.56922e-21
[OGL LOG] init_host_sparsity_pattern : 8 ms
[OGL LOG] matrix not stored update host matrix
[OGL LOG] update_host_mtx : 3 ms
[OGL LOG] matrix is not yet sorted, sorting host matrix
[OGL LOG] sort_host_mtx_sparsity_pattern : 5 ms
[OGL LOG] sort_host_mtx : 2 ms
[OGL LOG] init_preconditioner : 0 ms
[OGL LOG] solve : 121 ms
BJompGKOBiCGStab:  Solving for p, Initial residual = 0.53101, Final residual = 8.2917e-05, No Iterations 140
linear solve p 145
time step continuity errors : sum local = 4.15719e-06, global = -4.19732e-21, cumulative = -1.6281e-21
ExecutionTime = 5.66 s  ClockTime = 1 s

Time = 0.002

Courant Number mean: 0.0150844 max: 0.148279
nonePBiCGStab:  Solving for Ux, Initial residual = 0.19568, Final residual = 0.00210199, No Iterations 5
nonePBiCGStab:  Solving for Uy, Initial residual = 0.282008, Final residual = 0.00205084, No Iterations 5
nonePBiCGStab:  Solving for Uz, Initial residual = 0.87266, Final residual = 0.00930247, No Iterations 5
linear solve U 9
[OGL LOG] init_host_sparsity_pattern : 7 ms
[OGL LOG] matrix not stored update host matrix
[OGL LOG] update_host_mtx : 4 ms
[OGL LOG] matrix is not yet sorted, sorting host matrix
[OGL LOG] sort_host_mtx_sparsity_pattern : 5 ms
[OGL LOG] sort_host_mtx : 2 ms
[OGL LOG] init_preconditioner : 0 ms
[OGL LOG] solve : 122 ms
BJompGKOBiCGStab:  Solving for p, Initial residual = 0.35553, Final residual = 3.74018e-05, No Iterations 144
linear solve p 145
time step continuity errors : sum local = 4.23531e-06, global = 1.60663e-20, cumulative = 1.44382e-20
[OGL LOG] init_host_sparsity_pattern : 7 ms
[OGL LOG] matrix not stored update host matrix
[OGL LOG] update_host_mtx : 3 ms
[OGL LOG] matrix is not yet sorted, sorting host matrix
[OGL LOG] sort_host_mtx_sparsity_pattern : 5 ms
[OGL LOG] sort_host_mtx : 2 ms
[OGL LOG] init_preconditioner : 0 ms
[OGL LOG] solve : 63 ms
BJompGKOBiCGStab:  Solving for p, Initial residual = 0.255974, Final residual = 7.33934e-05, No Iterations 75
linear solve p 85
time step continuity errors : sum local = 9.82478e-08, global = -2.13525e-20, cumulative = -6.9143e-21
ExecutionTime = 9.65 s  ClockTime = 1 s

Time = 0.003

Courant Number mean: 0.0234546 max: 0.204099
nonePBiCGStab:  Solving for Ux, Initial residual = 0.0797049, Final residual = 0.000604247, No Iterations 5
nonePBiCGStab:  Solving for Uy, Initial residual = 0.116829, Final residual = 0.000693799, No Iterations 5
nonePBiCGStab:  Solving for Uz, Initial residual = 0.219845, Final residual = 0.00263173, No Iterations 5
linear solve U 10
[OGL LOG] init_host_sparsity_pattern : 6 ms
[OGL LOG] matrix not stored update host matrix
[OGL LOG] update_host_mtx : 3 ms
[OGL LOG] matrix is not yet sorted, sorting host matrix
[OGL LOG] sort_host_mtx_sparsity_pattern : 5 ms
[OGL LOG] sort_host_mtx : 2 ms
[OGL LOG] init_preconditioner : 0 ms
[OGL LOG] solve : 103 ms
BJompGKOBiCGStab:  Solving for p, Initial residual = 0.11158, Final residual = 8.66832e-05, No Iterations 122
linear solve p 124
time step continuity errors : sum local = 4.83692e-07, global = -3.05869e-20, cumulative = -3.75012e-20
[OGL LOG] init_host_sparsity_pattern : 7 ms
[OGL LOG] matrix not stored update host matrix
[OGL LOG] update_host_mtx : 3 ms
[OGL LOG] matrix is not yet sorted, sorting host matrix
[OGL LOG] sort_host_mtx_sparsity_pattern : 5 ms
[OGL LOG] sort_host_mtx : 2 ms
[OGL LOG] init_preconditioner : 0 ms
[OGL LOG] solve : 46 ms
BJompGKOBiCGStab:  Solving for p, Initial residual = 0.0816289, Final residual = 9.85202e-05, No Iterations 54
linear solve p 67
time step continuity errors : sum local = 1.16047e-07, global = 1.00258e-20, cumulative = -2.74754e-20
ExecutionTime = 12.89 s  ClockTime = 1 s

Time = 0.004

Courant Number mean: 0.0285793 max: 0.226289
nonePBiCGStab:  Solving for Ux, Initial residual = 0.0460538, Final residual = 0.000149, No Iterations 5
nonePBiCGStab:  Solving for Uy, Initial residual = 0.0705033, Final residual = 0.000179578, No Iterations 5
nonePBiCGStab:  Solving for Uz, Initial residual = 0.119512, Final residual = 0.000771798, No Iterations 5
linear solve U 9
[OGL LOG] init_host_sparsity_pattern : 7 ms
[OGL LOG] matrix not stored update host matrix
[OGL LOG] update_host_mtx : 3 ms
[OGL LOG] matrix is not yet sorted, sorting host matrix
[OGL LOG] sort_host_mtx_sparsity_pattern : 5 ms
[OGL LOG] sort_host_mtx : 2 ms
[OGL LOG] init_preconditioner : 0 ms
[OGL LOG] solve : 50 ms
BJompGKOBiCGStab:  Solving for p, Initial residual = 0.057532, Final residual = 9.47754e-05, No Iterations 59
linear solve p 71
time step continuity errors : sum local = 9.81092e-08, global = 2.73174e-20, cumulative = -1.5794e-22
[OGL LOG] init_host_sparsity_pattern : 7 ms
[OGL LOG] matrix not stored update host matrix
[OGL LOG] update_host_mtx : 3 ms
[OGL LOG] matrix is not yet sorted, sorting host matrix
[OGL LOG] sort_host_mtx_sparsity_pattern : 5 ms
[OGL LOG] sort_host_mtx : 2 ms
[OGL LOG] init_preconditioner : 0 ms
[OGL LOG] solve : 46 ms
BJompGKOBiCGStab:  Solving for p, Initial residual = 0.0420685, Final residual = 8.52815e-05, No Iterations 54
linear solve p 67
time step continuity errors : sum local = 9.50891e-08, global = -3.54376e-21, cumulative = -3.7017e-21
ExecutionTime = 15.09 s  ClockTime = 1 s

Time = 0.005

Courant Number mean: 0.0322777 max: 0.23731
nonePBiCGStab:  Solving for Ux, Initial residual = 0.0314975, Final residual = 6.78869e-05, No Iterations 5
nonePBiCGStab:  Solving for Uy, Initial residual = 0.0484636, Final residual = 8.30032e-05, No Iterations 5
nonePBiCGStab:  Solving for Uz, Initial residual = 0.0831862, Final residual = 0.000412937, No Iterations 5
linear solve U 10
[OGL LOG] init_host_sparsity_pattern : 7 ms
[OGL LOG] matrix not stored update host matrix
[OGL LOG] update_host_mtx : 3 ms
[OGL LOG] matrix is not yet sorted, sorting host matrix
[OGL LOG] sort_host_mtx_sparsity_pattern : 5 ms
[OGL LOG] sort_host_mtx : 2 ms
[OGL LOG] init_preconditioner : 0 ms
[OGL LOG] solve : 44 ms
BJompGKOBiCGStab:  Solving for p, Initial residual = 0.0353932, Final residual = 9.39574e-05, No Iterations 52
linear solve p 65
time step continuity errors : sum local = 7.02755e-08, global = 9.19716e-21, cumulative = 5.49546e-21
[OGL LOG] init_host_sparsity_pattern : 7 ms
[OGL LOG] matrix not stored update host matrix
[OGL LOG] update_host_mtx : 3 ms
[OGL LOG] matrix is not yet sorted, sorting host matrix
[OGL LOG] sort_host_mtx_sparsity_pattern : 5 ms
[OGL LOG] sort_host_mtx : 2 ms
[OGL LOG] init_preconditioner : 0 ms
[OGL LOG] solve : 41 ms
BJompGKOBiCGStab:  Solving for p, Initial residual = 0.0261157, Final residual = 9.35759e-05, No Iterations 49
linear solve p 63
time step continuity errors : sum local = 9.06406e-08, global = 2.61182e-20, cumulative = 3.16136e-20
ExecutionTime = 17.07 s  ClockTime = 1 s

Time = 0.006

Courant Number mean: 0.0351476 max: 0.243821
nonePBiCGStab:  Solving for Ux, Initial residual = 0.0235484, Final residual = 3.76127e-05, No Iterations 5
nonePBiCGStab:  Solving for Uy, Initial residual = 0.0366298, Final residual = 4.64558e-05, No Iterations 5
nonePBiCGStab:  Solving for Uz, Initial residual = 0.065344, Final residual = 0.000242567, No Iterations 5
linear solve U 10
[OGL LOG] init_host_sparsity_pattern : 7 ms
[OGL LOG] matrix not stored update host matrix
[OGL LOG] update_host_mtx : 3 ms
[OGL LOG] matrix is not yet sorted, sorting host matrix
[OGL LOG] sort_host_mtx_sparsity_pattern : 5 ms
[OGL LOG] sort_host_mtx : 2 ms
[OGL LOG] init_preconditioner : 0 ms
[OGL LOG] solve : 39 ms
BJompGKOBiCGStab:  Solving for p, Initial residual = 0.0252977, Final residual = 9.76212e-05, No Iterations 46
linear solve p 60
time step continuity errors : sum local = 8.05307e-08, global = 1.25905e-20, cumulative = 4.42041e-20
[OGL LOG] init_host_sparsity_pattern : 7 ms
[OGL LOG] matrix not stored update host matrix
[OGL LOG] update_host_mtx : 3 ms
[OGL LOG] matrix is not yet sorted, sorting host matrix
[OGL LOG] sort_host_mtx_sparsity_pattern : 5 ms
[OGL LOG] sort_host_mtx : 2 ms
[OGL LOG] init_preconditioner : 0 ms
[OGL LOG] solve : 41 ms
BJompGKOBiCGStab:  Solving for p, Initial residual = 0.0187781, Final residual = 9.95946e-05, No Iterations 49
linear solve p 63
time step continuity errors : sum local = 9.16838e-08, global = 1.05907e-20, cumulative = 5.47948e-20
ExecutionTime = 18.97 s  ClockTime = 2 s

Time = 0.007

Courant Number mean: 0.0374486 max: 0.248185
nonePBiCGStab:  Solving for Ux, Initial residual = 0.0185676, Final residual = 2.13377e-05, No Iterations 5
nonePBiCGStab:  Solving for Uy, Initial residual = 0.0291625, Final residual = 2.92187e-05, No Iterations 5
nonePBiCGStab:  Solving for Uz, Initial residual = 0.0536305, Final residual = 0.000135361, No Iterations 5
linear solve U 9
[OGL LOG] init_host_sparsity_pattern : 7 ms
[OGL LOG] matrix not stored update host matrix
[OGL LOG] update_host_mtx : 3 ms
[OGL LOG] matrix is not yet sorted, sorting host matrix
[OGL LOG] sort_host_mtx_sparsity_pattern : 5 ms
[OGL LOG] sort_host_mtx : 2 ms
[OGL LOG] init_preconditioner : 0 ms
[OGL LOG] solve : 44 ms
BJompGKOBiCGStab:  Solving for p, Initial residual = 0.0196678, Final residual = 9.61252e-05, No Iterations 50
linear solve p 66
time step continuity errors : sum local = 9.27276e-08, global = -3.49278e-20, cumulative = 1.9867e-20
[OGL LOG] init_host_sparsity_pattern : 7 ms
[OGL LOG] matrix not stored update host matrix
[OGL LOG] update_host_mtx : 3 ms
[OGL LOG] matrix is not yet sorted, sorting host matrix
[OGL LOG] sort_host_mtx_sparsity_pattern : 5 ms
[OGL LOG] sort_host_mtx : 2 ms
[OGL LOG] init_preconditioner : 0 ms
[OGL LOG] solve : 50 ms
BJompGKOBiCGStab:  Solving for p, Initial residual = 0.0147834, Final residual = 9.23043e-05, No Iterations 46
linear solve p 74
time step continuity errors : sum local = 1.01611e-07, global = 6.06758e-21, cumulative = 2.59346e-20
ExecutionTime = 21.24 s  ClockTime = 2 s

Time = 0.008

Courant Number mean: 0.0393441 max: 0.251358
nonePBiCGStab:  Solving for Ux, Initial residual = 0.0151455, Final residual = 1.26475e-05, No Iterations 5
nonePBiCGStab:  Solving for Uy, Initial residual = 0.0240106, Final residual = 1.92713e-05, No Iterations 5
nonePBiCGStab:  Solving for Uz, Initial residual = 0.0452916, Final residual = 9.52795e-05, No Iterations 5
linear solve U 10
[OGL LOG] init_host_sparsity_pattern : 7 ms
[OGL LOG] matrix not stored update host matrix
[OGL LOG] update_host_mtx : 3 ms
[OGL LOG] matrix is not yet sorted, sorting host matrix
[OGL LOG] sort_host_mtx_sparsity_pattern : 5 ms
[OGL LOG] sort_host_mtx : 2 ms
[OGL LOG] init_preconditioner : 0 ms
[OGL LOG] solve : 44 ms
BJompGKOBiCGStab:  Solving for p, Initial residual = 0.0160608, Final residual = 9.44228e-05, No Iterations 46
linear solve p 68
time step continuity errors : sum local = 1.00079e-07, global = 2.04453e-21, cumulative = 2.79791e-20
[OGL LOG] init_host_sparsity_pattern : 7 ms
[OGL LOG] matrix not stored update host matrix
[OGL LOG] update_host_mtx : 3 ms
[OGL LOG] matrix is not yet sorted, sorting host matrix
[OGL LOG] sort_host_mtx_sparsity_pattern : 5 ms
[OGL LOG] sort_host_mtx : 2 ms
[OGL LOG] init_preconditioner : 0 ms
[OGL LOG] solve : 45 ms
BJompGKOBiCGStab:  Solving for p, Initial residual = 0.0121954, Final residual = 7.17327e-05, No Iterations 48
linear solve p 67
time step continuity errors : sum local = 6.39444e-08, global = -2.25107e-20, cumulative = 5.46845e-21
ExecutionTime = 23.24 s  ClockTime = 2 s

Time = 0.009

Courant Number mean: 0.040989 max: 0.253796
nonePBiCGStab:  Solving for Ux, Initial residual = 0.0126962, Final residual = 8.38693e-06, No Iterations 5
nonePBiCGStab:  Solving for Uy, Initial residual = 0.0202365, Final residual = 1.36997e-05, No Iterations 5
nonePBiCGStab:  Solving for Uz, Initial residual = 0.0388814, Final residual = 7.06606e-05, No Iterations 5
linear solve U 9
[OGL LOG] init_host_sparsity_pattern : 6 ms
[OGL LOG] matrix not stored update host matrix
[OGL LOG] update_host_mtx : 3 ms
[OGL LOG] matrix is not yet sorted, sorting host matrix
[OGL LOG] sort_host_mtx_sparsity_pattern : 5 ms
[OGL LOG] sort_host_mtx : 2 ms
[OGL LOG] init_preconditioner : 0 ms
[OGL LOG] solve : 43 ms
BJompGKOBiCGStab:  Solving for p, Initial residual = 0.013315, Final residual = 7.58956e-05, No Iterations 46
linear solve p 65
time step continuity errors : sum local = 8.36929e-08, global = 6.40987e-21, cumulative = 1.18783e-20
[OGL LOG] init_host_sparsity_pattern : 7 ms
[OGL LOG] matrix not stored update host matrix
[OGL LOG] update_host_mtx : 3 ms
[OGL LOG] matrix is not yet sorted, sorting host matrix
[OGL LOG] sort_host_mtx_sparsity_pattern : 5 ms
[OGL LOG] sort_host_mtx : 2 ms
[OGL LOG] init_preconditioner : 0 ms
[OGL LOG] solve : 44 ms
BJompGKOBiCGStab:  Solving for p, Initial residual = 0.010143, Final residual = 7.5761e-05, No Iterations 46
linear solve p 66
time step continuity errors : sum local = 9.53969e-08, global = -2.26695e-20, cumulative = -1.07912e-20
ExecutionTime = 25.29 s  ClockTime = 2 s

Time = 0.01

Courant Number mean: 0.042424 max: 0.255735
nonePBiCGStab:  Solving for Ux, Initial residual = 0.0108089, Final residual = 5.97929e-06, No Iterations 5
nonePBiCGStab:  Solving for Uy, Initial residual = 0.017375, Final residual = 1.01688e-05, No Iterations 5
nonePBiCGStab:  Solving for Uz, Initial residual = 0.0338195, Final residual = 5.43992e-05, No Iterations 5
linear solve U 10
[OGL LOG] init_host_sparsity_pattern : 6 ms
[OGL LOG] matrix not stored update host matrix
[OGL LOG] update_host_mtx : 3 ms
[OGL LOG] matrix is not yet sorted, sorting host matrix
[OGL LOG] sort_host_mtx_sparsity_pattern : 5 ms
[OGL LOG] sort_host_mtx : 2 ms
[OGL LOG] init_preconditioner : 0 ms
[OGL LOG] solve : 43 ms
BJompGKOBiCGStab:  Solving for p, Initial residual = 0.0113607, Final residual = 8.6156e-05, No Iterations 46
linear solve p 65
time step continuity errors : sum local = 6.75012e-08, global = -2.95428e-20, cumulative = -4.0334e-20
[OGL LOG] init_host_sparsity_pattern : 7 ms
[OGL LOG] matrix not stored update host matrix
[OGL LOG] update_host_mtx : 4 ms
[OGL LOG] matrix is not yet sorted, sorting host matrix
[OGL LOG] sort_host_mtx_sparsity_pattern : 5 ms
[OGL LOG] sort_host_mtx : 2 ms
[OGL LOG] init_preconditioner : 0 ms
[OGL LOG] solve : 39 ms
BJompGKOBiCGStab:  Solving for p, Initial residual = 0.00868378, Final residual = 9.11958e-05, No Iterations 42
linear solve p 62
time step continuity errors : sum local = 7.43005e-08, global = 1.68245e-20, cumulative = -2.35094e-20
ExecutionTime = 27.25 s  ClockTime = 2 s

End

