/*---------------------------------------------------------------------------*\
  =========                 |
  \\      /  F ield         | OpenFOAM: The Open Source CFD Toolbox
   \\    /   O peration     | Website:  https://openfoam.org
    \\  /    A nd           | Version:  8
     \\/     M anipulation  |
\*---------------------------------------------------------------------------*/
Build  : 8-14d69e1ee166
Exec   : icoFoam
Date   : Jul 29 2021
Time   : 07:21:36
Host   : "guyot.icl.utk.edu"
PID    : 257464
I/O    : uncollated
Case   : /home/greole/code/OBR/lidDrivenCavity3D/Variation_mesh/90/Variation_matrix_solver/BiCGStab_NoPrecond_CUDA/base
nProcs : 1
sigFpe : Enabling floating point exception trapping (FOAM_SIGFPE).
fileModificationChecking : Monitoring run-time modified files using timeStampMaster (fileModificationSkew 10)
allowSystemOperations : Allowing user-supplied system call operations

// * * * * * * * * * * * * * * * * * * * * * * * * * * * * * * * * * * * * * //
Create time

Create mesh for time = 0

Reading transportProperties

Reading field p

Reading field U

Reading/calculating face flux field phi


Starting time loop

Time = 0.001

Courant Number mean: 0 max: 0
DILUPBiCGStab:  Solving for Ux, Initial residual = 1, Final residual = 0.00485432, No Iterations 5
DILUPBiCGStab:  Solving for Uy:  solution singularity
DILUPBiCGStab:  Solving for Uz:  solution singularity
linear solve U 282702
[OGL LOG] init_host_sparsity_pattern : 333 ms
[OGL LOG] matrix not stored update host matrix
[OGL LOG] update_host_mtx : 164 ms
[OGL LOG] matrix is not yet sorted, compute sorting idxs
[OGL LOG] compute_sort : 7795 ms
[OGL LOG] matrix is not yet sorted, sorting host matrix
[OGL LOG] sort_host_mtx_sparsity_pattern : 149 ms
[OGL LOG] sort_host_mtx : 82 ms
[OGL LOG] init_preconditioner : 0 ms
[OGL LOG] solve : 1475 ms
nonecudaGKOBiCGStab:  Solving for p, Initial residual = 1, Final residual = 6.52593e-05, No Iterations 580
linear solve p 11712103
time step continuity errors : sum local = 0.00113232, global = -5.79568e-19, cumulative = -5.79568e-19
[OGL LOG] init_host_sparsity_pattern : 326 ms
[OGL LOG] matrix not stored update host matrix
[OGL LOG] update_host_mtx : 166 ms
[OGL LOG] matrix is not yet sorted, sorting host matrix
[OGL LOG] sort_host_mtx_sparsity_pattern : 131 ms
[OGL LOG] sort_host_mtx : 90 ms
[OGL LOG] init_preconditioner : 0 ms
[OGL LOG] solve : 551 ms
nonecudaGKOBiCGStab:  Solving for p, Initial residual = 0.922864, Final residual = 9.81775e-05, No Iterations 216
linear solve p 1307655
time step continuity errors : sum local = 3.64715e-07, global = 9.26195e-21, cumulative = -5.70306e-19
ExecutionTime = 16.63 s  ClockTime = 17 s

Time = 0.002

Courant Number mean: 0.0507522 max: 0.711927
DILUPBiCGStab:  Solving for Ux, Initial residual = 0.143026, Final residual = 0.00199118, No Iterations 5
DILUPBiCGStab:  Solving for Uy, Initial residual = 0.410168, Final residual = 0.00518506, No Iterations 5
DILUPBiCGStab:  Solving for Uz, Initial residual = 0.88913, Final residual = 0.0200932, No Iterations 5
linear solve U 564686
[OGL LOG] init_host_sparsity_pattern : 326 ms
[OGL LOG] matrix not stored update host matrix
[OGL LOG] update_host_mtx : 164 ms
[OGL LOG] matrix is not yet sorted, sorting host matrix
[OGL LOG] sort_host_mtx_sparsity_pattern : 131 ms
[OGL LOG] sort_host_mtx : 87 ms
[OGL LOG] init_preconditioner : 0 ms
[OGL LOG] solve : 1245 ms
nonecudaGKOBiCGStab:  Solving for p, Initial residual = 0.969629, Final residual = 9.93493e-05, No Iterations 496
linear solve p 1995118
time step continuity errors : sum local = 0.00117671, global = -1.50147e-18, cumulative = -2.07178e-18
[OGL LOG] init_host_sparsity_pattern : 326 ms
[OGL LOG] matrix not stored update host matrix
[OGL LOG] update_host_mtx : 164 ms
[OGL LOG] matrix is not yet sorted, sorting host matrix
[OGL LOG] sort_host_mtx_sparsity_pattern : 135 ms
[OGL LOG] sort_host_mtx : 81 ms
[OGL LOG] init_preconditioner : 0 ms
[OGL LOG] solve : 1199 ms
nonecudaGKOBiCGStab:  Solving for p, Initial residual = 0.832653, Final residual = 9.99077e-05, No Iterations 476
linear solve p 1949791
time step continuity errors : sum local = 1.56541e-06, global = 9.82727e-21, cumulative = -2.06195e-18
ExecutionTime = 21.46 s  ClockTime = 22 s

Time = 0.003

Courant Number mean: 0.0807734 max: 0.908864
DILUPBiCGStab:  Solving for Ux, Initial residual = 0.0677849, Final residual = 0.00069268, No Iterations 5
DILUPBiCGStab:  Solving for Uy, Initial residual = 0.241595, Final residual = 0.00288219, No Iterations 5
DILUPBiCGStab:  Solving for Uz, Initial residual = 0.821922, Final residual = 0.0144986, No Iterations 5
linear solve U 561969
[OGL LOG] init_host_sparsity_pattern : 326 ms
[OGL LOG] matrix not stored update host matrix
[OGL LOG] update_host_mtx : 165 ms
[OGL LOG] matrix is not yet sorted, sorting host matrix
[OGL LOG] sort_host_mtx_sparsity_pattern : 134 ms
[OGL LOG] sort_host_mtx : 86 ms
[OGL LOG] init_preconditioner : 0 ms
[OGL LOG] solve : 1331 ms
nonecudaGKOBiCGStab:  Solving for p, Initial residual = 0.97431, Final residual = 8.83747e-05, No Iterations 526
linear solve p 2088624
time step continuity errors : sum local = 1.37806e-06, global = 5.29018e-21, cumulative = -2.05666e-18
[OGL LOG] init_host_sparsity_pattern : 326 ms
[OGL LOG] matrix not stored update host matrix
[OGL LOG] update_host_mtx : 164 ms
[OGL LOG] matrix is not yet sorted, sorting host matrix
[OGL LOG] sort_host_mtx_sparsity_pattern : 136 ms
[OGL LOG] sort_host_mtx : 84 ms
[OGL LOG] init_preconditioner : 0 ms
[OGL LOG] solve : 1299 ms
nonecudaGKOBiCGStab:  Solving for p, Initial residual = 0.878666, Final residual = 2.60399e-05, No Iterations 512
linear solve p 2053851
time step continuity errors : sum local = 0.0168172, global = -3.88047e-17, cumulative = -4.08613e-17
ExecutionTime = 26.5 s  ClockTime = 27 s

Time = 0.004

Courant Number mean: 0.101998 max: 1.26968
DILUPBiCGStab:  Solving for Ux, Initial residual = 0.0554281, Final residual = 0.000698857, No Iterations 5
DILUPBiCGStab:  Solving for Uy, Initial residual = 0.230883, Final residual = 0.00570817, No Iterations 5
DILUPBiCGStab:  Solving for Uz, Initial residual = 0.707224, Final residual = 0.0172433, No Iterations 5
linear solve U 562582
[OGL LOG] init_host_sparsity_pattern : 326 ms
[OGL LOG] matrix not stored update host matrix
[OGL LOG] update_host_mtx : 164 ms
[OGL LOG] matrix is not yet sorted, sorting host matrix
[OGL LOG] sort_host_mtx_sparsity_pattern : 132 ms
[OGL LOG] sort_host_mtx : 81 ms
[OGL LOG] init_preconditioner : 0 ms
[OGL LOG] solve : 1232 ms
nonecudaGKOBiCGStab:  Solving for p, Initial residual = 0.99611, Final residual = 4.71599e-05, No Iterations 487
linear solve p 1980236
time step continuity errors : sum local = 0.395755, global = 2.06352e-15, cumulative = 2.02266e-15
[OGL LOG] init_host_sparsity_pattern : 326 ms
[OGL LOG] matrix not stored update host matrix
[OGL LOG] update_host_mtx : 164 ms
[OGL LOG] matrix is not yet sorted, sorting host matrix
[OGL LOG] sort_host_mtx_sparsity_pattern : 131 ms
[OGL LOG] sort_host_mtx : 85 ms
[OGL LOG] init_preconditioner : 0 ms
[OGL LOG] solve : 425 ms
nonecudaGKOBiCGStab:  Solving for p, Initial residual = 0.863716, Final residual = 7.2356e-05, No Iterations 165
linear solve p 1175352
time step continuity errors : sum local = 0.00044789, global = 8.1154e-19, cumulative = 2.02347e-15
ExecutionTime = 30.55 s  ClockTime = 31 s

Time = 0.005

Courant Number mean: 0.19263 max: 3.16352
DILUPBiCGStab:  Solving for Ux, Initial residual = 0.173417, Final residual = 0.00342916, No Iterations 5
DILUPBiCGStab:  Solving for Uy, Initial residual = 0.533137, Final residual = 0.0196678, No Iterations 5
DILUPBiCGStab:  Solving for Uz, Initial residual = 0.858818, Final residual = 0.020629, No Iterations 5
linear solve U 564955
[OGL LOG] init_host_sparsity_pattern : 327 ms
[OGL LOG] matrix not stored update host matrix
[OGL LOG] update_host_mtx : 170 ms
[OGL LOG] matrix is not yet sorted, sorting host matrix
[OGL LOG] sort_host_mtx_sparsity_pattern : 148 ms
[OGL LOG] sort_host_mtx : 85 ms
[OGL LOG] init_preconditioner : 0 ms
[OGL LOG] solve : 1206 ms
nonecudaGKOBiCGStab:  Solving for p, Initial residual = 0.998722, Final residual = 9.64888e-05, No Iterations 478
linear solve p 1981458
time step continuity errors : sum local = 0.36948, global = 1.16542e-16, cumulative = 2.14001e-15
[OGL LOG] init_host_sparsity_pattern : 326 ms
[OGL LOG] matrix not stored update host matrix
[OGL LOG] update_host_mtx : 164 ms
[OGL LOG] matrix is not yet sorted, sorting host matrix
[OGL LOG] sort_host_mtx_sparsity_pattern : 131 ms
[OGL LOG] sort_host_mtx : 86 ms
[OGL LOG] init_preconditioner : 0 ms
[OGL LOG] solve : 598 ms
nonecudaGKOBiCGStab:  Solving for p, Initial residual = 0.855756, Final residual = 8.76315e-05, No Iterations 235
linear solve p 1349824
time step continuity errors : sum local = 0.000380231, global = 3.92912e-18, cumulative = 2.14394e-15
ExecutionTime = 34.77 s  ClockTime = 35 s

Time = 0.006

Courant Number mean: 2.27418 max: 59.7171
DILUPBiCGStab:  Solving for Ux, Initial residual = 0.838686, Final residual = 0.0278199, No Iterations 5
DILUPBiCGStab:  Solving for Uy, Initial residual = 0.918354, Final residual = 0.0314476, No Iterations 5
DILUPBiCGStab:  Solving for Uz, Initial residual = 0.82577, Final residual = 0.0204784, No Iterations 5
linear solve U 562171
[OGL LOG] init_host_sparsity_pattern : 327 ms
[OGL LOG] matrix not stored update host matrix
[OGL LOG] update_host_mtx : 170 ms
[OGL LOG] matrix is not yet sorted, sorting host matrix
[OGL LOG] sort_host_mtx_sparsity_pattern : 147 ms
[OGL LOG] sort_host_mtx : 86 ms
[OGL LOG] init_preconditioner : 0 ms
[OGL LOG] solve : 1237 ms
nonecudaGKOBiCGStab:  Solving for p, Initial residual = 0.972046, Final residual = 8.9354e-05, No Iterations 491
linear solve p 2010111
time step continuity errors : sum local = 0.827204, global = -2.33047e-15, cumulative = -1.86526e-16
[OGL LOG] init_host_sparsity_pattern : 326 ms
[OGL LOG] matrix not stored update host matrix
[OGL LOG] update_host_mtx : 164 ms
[OGL LOG] matrix is not yet sorted, sorting host matrix
[OGL LOG] sort_host_mtx_sparsity_pattern : 138 ms
[OGL LOG] sort_host_mtx : 85 ms
[OGL LOG] init_preconditioner : 0 ms
[OGL LOG] solve : 1375 ms
nonecudaGKOBiCGStab:  Solving for p, Initial residual = 0.829914, Final residual = 6.37896e-05, No Iterations 542
linear solve p 2131325
time step continuity errors : sum local = 1.35526, global = 3.29416e-16, cumulative = 1.4289e-16
ExecutionTime = 39.8 s  ClockTime = 40 s

Time = 0.007

Courant Number mean: 3.77834 max: 103.635
DILUPBiCGStab:  Solving for Ux, Initial residual = 0.824078, Final residual = 0.893086, No Iterations 5
DILUPBiCGStab:  Solving for Uy, Initial residual = 0.820601, Final residual = 1.63367, No Iterations 5
DILUPBiCGStab:  Solving for Uz, Initial residual = 0.693167, Final residual = 0.955102, No Iterations 5
linear solve U 560419
[OGL LOG] init_host_sparsity_pattern : 327 ms
[OGL LOG] matrix not stored update host matrix
[OGL LOG] update_host_mtx : 164 ms
[OGL LOG] matrix is not yet sorted, sorting host matrix
[OGL LOG] sort_host_mtx_sparsity_pattern : 138 ms
[OGL LOG] sort_host_mtx : 81 ms
[OGL LOG] init_preconditioner : 0 ms
[OGL LOG] solve : 7498 ms
nonecudaGKOBiCGStab:  Solving for p, Initial residual = 0.877146, Final residual = 0.791429, No Iterations 3000
linear solve p 8253538
time step continuity errors : sum local = 4.47211, global = -7.72137e-15, cumulative = -7.57848e-15
[OGL LOG] init_host_sparsity_pattern : 327 ms
[OGL LOG] matrix not stored update host matrix
[OGL LOG] update_host_mtx : 165 ms
[OGL LOG] matrix is not yet sorted, sorting host matrix
[OGL LOG] sort_host_mtx_sparsity_pattern : 140 ms
[OGL LOG] sort_host_mtx : 91 ms
[OGL LOG] init_preconditioner : 0 ms
[OGL LOG] solve : 7568 ms
nonecudaGKOBiCGStab:  Solving for p, Initial residual = 0.95938, Final residual = 14.1537, No Iterations 3000
linear solve p 8334627
time step continuity errors : sum local = 607.734, global = 3.77317e-14, cumulative = 3.01532e-14
ExecutionTime = 57.29 s  ClockTime = 57 s

Time = 0.008

Courant Number mean: 21505.9 max: 3.90509e+07
DILUPBiCGStab:  Solving for Ux, Initial residual = 0.99998, Final residual = 1148.82, No Iterations 5
DILUPBiCGStab:  Solving for Uy, Initial residual = 0.999993, Final residual = 770.515, No Iterations 5
DILUPBiCGStab:  Solving for Uz, Initial residual = 0.999997, Final residual = 789.741, No Iterations 5
linear solve U 562699
[OGL LOG] init_host_sparsity_pattern : 327 ms
[OGL LOG] matrix not stored update host matrix
[OGL LOG] update_host_mtx : 164 ms
[OGL LOG] matrix is not yet sorted, sorting host matrix
[OGL LOG] sort_host_mtx_sparsity_pattern : 142 ms
[OGL LOG] sort_host_mtx : 85 ms
[OGL LOG] init_preconditioner : 0 ms
[OGL LOG] solve : 7513 ms
nonecudaGKOBiCGStab:  Solving for p, Initial residual = 1, Final residual = 2.87019, No Iterations 3000
linear solve p 8275436
time step continuity errors : sum local = 7.15789e+11, global = 0.000259849, cumulative = 0.000259849
[OGL LOG] init_host_sparsity_pattern : 325 ms
[OGL LOG] matrix not stored update host matrix
[OGL LOG] update_host_mtx : 164 ms
[OGL LOG] matrix is not yet sorted, sorting host matrix
[OGL LOG] sort_host_mtx_sparsity_pattern : 142 ms
[OGL LOG] sort_host_mtx : 81 ms
[OGL LOG] init_preconditioner : 0 ms
[OGL LOG] solve : 7505 ms
nonecudaGKOBiCGStab:  Solving for p, Initial residual = 0.990288, Final residual = 12.4564, No Iterations 3000
linear solve p 8262050
time step continuity errors : sum local = 6.78783e+14, global = -0.104292, cumulative = -0.104032
ExecutionTime = 74.71 s  ClockTime = 75 s

Time = 0.009

Courant Number mean: 5.80867e+14 max: 1.05418e+19
DILUPBiCGStab:  Solving for Ux, Initial residual = 0.999993, Final residual = 614.815, No Iterations 5
DILUPBiCGStab:  Solving for Uy, Initial residual = 0.999985, Final residual = 60.316, No Iterations 5
DILUPBiCGStab:  Solving for Uz, Initial residual = 1, Final residual = 59.1284, No Iterations 5
linear solve U 563893
[OGL LOG] init_host_sparsity_pattern : 326 ms
[OGL LOG] matrix not stored update host matrix
[OGL LOG] update_host_mtx : 164 ms
[OGL LOG] matrix is not yet sorted, sorting host matrix
[OGL LOG] sort_host_mtx_sparsity_pattern : 140 ms
[OGL LOG] sort_host_mtx : 83 ms
[OGL LOG] init_preconditioner : 0 ms
[OGL LOG] solve : 7591 ms
nonecudaGKOBiCGStab:  Solving for p, Initial residual = 1, Final residual = 2.16822, No Iterations 3000
linear solve p 8346937
time step continuity errors : sum local = 7.94859e+31, global = 8.90897e+15, cumulative = 8.90897e+15
[OGL LOG] init_host_sparsity_pattern : 326 ms
[OGL LOG] matrix not stored update host matrix
[OGL LOG] update_host_mtx : 164 ms
[OGL LOG] matrix is not yet sorted, sorting host matrix
[OGL LOG] sort_host_mtx_sparsity_pattern : 141 ms
[OGL LOG] sort_host_mtx : 84 ms
[OGL LOG] init_preconditioner : 0 ms
[OGL LOG] solve : 7504 ms
nonecudaGKOBiCGStab:  Solving for p, Initial residual = 0.966572, Final residual = 0.907831, No Iterations 3000
linear solve p 8263010
time step continuity errors : sum local = 1.28496e+33, global = -2.7122e+17, cumulative = -2.62311e+17
ExecutionTime = 92.22 s  ClockTime = 92 s

Time = 0.01

Courant Number mean: 3.18215e+33 max: 4.42981e+37
DILUPBiCGStab:  Solving for Ux, Initial residual = 0.999979, Final residual = 30.3376, No Iterations 5
DILUPBiCGStab:  Solving for Uy, Initial residual = 0.999994, Final residual = 29.9765, No Iterations 5
DILUPBiCGStab:  Solving for Uz, Initial residual = 0.999978, Final residual = 138.259, No Iterations 5
linear solve U 560287
[OGL LOG] init_host_sparsity_pattern : 326 ms
[OGL LOG] matrix not stored update host matrix
[OGL LOG] update_host_mtx : 164 ms
[OGL LOG] matrix is not yet sorted, sorting host matrix
[OGL LOG] sort_host_mtx_sparsity_pattern : 145 ms
[OGL LOG] sort_host_mtx : 88 ms
[OGL LOG] init_preconditioner : 0 ms
[OGL LOG] solve : 7569 ms
nonecudaGKOBiCGStab:  Solving for p, Initial residual = 1, Final residual = 1077.06, No Iterations 3000
linear solve p 8339421
time step continuity errors : sum local = 1.03672e+55, global = -1.07145e+39, cumulative = -1.07145e+39
[OGL LOG] init_host_sparsity_pattern : 326 ms
[OGL LOG] matrix not stored update host matrix
[OGL LOG] update_host_mtx : 164 ms
[OGL LOG] matrix is not yet sorted, sorting host matrix
[OGL LOG] sort_host_mtx_sparsity_pattern : 141 ms
[OGL LOG] sort_host_mtx : 87 ms
[OGL LOG] init_preconditioner : 0 ms
[OGL LOG] solve : 7518 ms
nonecudaGKOBiCGStab:  Solving for p, Initial residual = 0.952256, Final residual = 34.5259, No Iterations 3000
linear solve p 8281201
time step continuity errors : sum local = 6.42631e+56, global = 2.91321e+40, cumulative = 2.80607e+40
ExecutionTime = 109.73 s  ClockTime = 110 s

End

