/*---------------------------------------------------------------------------*\
  =========                 |
  \\      /  F ield         | OpenFOAM: The Open Source CFD Toolbox
   \\    /   O peration     | Website:  https://openfoam.org
    \\  /    A nd           | Version:  8
     \\/     M anipulation  |
\*---------------------------------------------------------------------------*/
Build  : 8-14d69e1ee166
Exec   : icoFoam
Date   : Jul 29 2021
Time   : 03:46:34
Host   : "guyot.icl.utk.edu"
PID    : 79980
I/O    : uncollated
Case   : /home/greole/code/OBR/lidDrivenCavity3D/Variation_mesh/50/Variation_matrix_solver/BiCGStab_NoPrecond_CUDA/base
nProcs : 1
sigFpe : Enabling floating point exception trapping (FOAM_SIGFPE).
fileModificationChecking : Monitoring run-time modified files using timeStampMaster (fileModificationSkew 10)
allowSystemOperations : Allowing user-supplied system call operations

// * * * * * * * * * * * * * * * * * * * * * * * * * * * * * * * * * * * * * //
Create time

Create mesh for time = 0

Reading transportProperties

Reading field p

Reading field U

Reading/calculating face flux field phi


Starting time loop

Time = 0.001

Courant Number mean: 0 max: 0
DILUPBiCGStab:  Solving for Ux, Initial residual = 1, Final residual = 0.000120903, No Iterations 5
DILUPBiCGStab:  Solving for Uy:  solution singularity
DILUPBiCGStab:  Solving for Uz:  solution singularity
linear solve U 46798
[OGL LOG] init_host_sparsity_pattern : 56 ms
[OGL LOG] matrix not stored update host matrix
[OGL LOG] update_host_mtx : 27 ms
[OGL LOG] matrix is not yet sorted, compute sorting idxs
[OGL LOG] compute_sort : 1183 ms
[OGL LOG] matrix is not yet sorted, sorting host matrix
[OGL LOG] sort_host_mtx_sparsity_pattern : 23 ms
[OGL LOG] sort_host_mtx : 14 ms
[OGL LOG] init_preconditioner : 0 ms
[OGL LOG] solve : 140 ms
nonecudaGKOBiCGStab:  Solving for p, Initial residual = 1, Final residual = 3.04051e-05, No Iterations 314
linear solve p 3109664
time step continuity errors : sum local = 3.51516e-08, global = -1.23431e-20, cumulative = -1.23431e-20
[OGL LOG] init_host_sparsity_pattern : 53 ms
[OGL LOG] matrix not stored update host matrix
[OGL LOG] update_host_mtx : 27 ms
[OGL LOG] matrix is not yet sorted, sorting host matrix
[OGL LOG] sort_host_mtx_sparsity_pattern : 21 ms
[OGL LOG] sort_host_mtx : 12 ms
[OGL LOG] init_preconditioner : 0 ms
[OGL LOG] solve : 138 ms
nonecudaGKOBiCGStab:  Solving for p, Initial residual = 0.658464, Final residual = 2.14598e-05, No Iterations 311
linear solve p 264327
time step continuity errors : sum local = 3.50832e-08, global = 5.25482e-21, cumulative = -7.08827e-21
ExecutionTime = 3.97 s  ClockTime = 4 s

Time = 0.002

Courant Number mean: 0.0274931 max: 0.32948
DILUPBiCGStab:  Solving for Ux, Initial residual = 0.167074, Final residual = 2.79818e-05, No Iterations 5
DILUPBiCGStab:  Solving for Uy, Initial residual = 0.315244, Final residual = 4.21804e-05, No Iterations 5
DILUPBiCGStab:  Solving for Uz, Initial residual = 0.971643, Final residual = 0.000170831, No Iterations 5
linear solve U 97667
[OGL LOG] init_host_sparsity_pattern : 52 ms
[OGL LOG] matrix not stored update host matrix
[OGL LOG] update_host_mtx : 27 ms
[OGL LOG] matrix is not yet sorted, sorting host matrix
[OGL LOG] sort_host_mtx_sparsity_pattern : 20 ms
[OGL LOG] sort_host_mtx : 12 ms
[OGL LOG] init_preconditioner : 0 ms
[OGL LOG] solve : 136 ms
nonecudaGKOBiCGStab:  Solving for p, Initial residual = 0.543055, Final residual = 6.19757e-05, No Iterations 307
linear solve p 259513
time step continuity errors : sum local = 5.871e-08, global = 6.707e-21, cumulative = -3.81266e-22
[OGL LOG] init_host_sparsity_pattern : 52 ms
[OGL LOG] matrix not stored update host matrix
[OGL LOG] update_host_mtx : 26 ms
[OGL LOG] matrix is not yet sorted, sorting host matrix
[OGL LOG] sort_host_mtx_sparsity_pattern : 20 ms
[OGL LOG] sort_host_mtx : 12 ms
[OGL LOG] init_preconditioner : 0 ms
[OGL LOG] solve : 132 ms
nonecudaGKOBiCGStab:  Solving for p, Initial residual = 0.45695, Final residual = 9.52523e-05, No Iterations 297
linear solve p 255758
time step continuity errors : sum local = 1.5814e-07, global = -4.9605e-22, cumulative = -8.77316e-22
ExecutionTime = 4.64 s  ClockTime = 5 s

Time = 0.003

Courant Number mean: 0.0414301 max: 0.40964
DILUPBiCGStab:  Solving for Ux, Initial residual = 0.0554026, Final residual = 8.56129e-06, No Iterations 5
DILUPBiCGStab:  Solving for Uy, Initial residual = 0.100229, Final residual = 9.94758e-06, No Iterations 5
DILUPBiCGStab:  Solving for Uz, Initial residual = 0.165059, Final residual = 2.98611e-05, No Iterations 5
linear solve U 98159
[OGL LOG] init_host_sparsity_pattern : 52 ms
[OGL LOG] matrix not stored update host matrix
[OGL LOG] update_host_mtx : 27 ms
[OGL LOG] matrix is not yet sorted, sorting host matrix
[OGL LOG] sort_host_mtx_sparsity_pattern : 20 ms
[OGL LOG] sort_host_mtx : 12 ms
[OGL LOG] init_preconditioner : 0 ms
[OGL LOG] solve : 121 ms
nonecudaGKOBiCGStab:  Solving for p, Initial residual = 0.31012, Final residual = 9.96093e-05, No Iterations 272
linear solve p 244822
time step continuity errors : sum local = 1.15651e-07, global = 1.38593e-20, cumulative = 1.29819e-20
[OGL LOG] init_host_sparsity_pattern : 52 ms
[OGL LOG] matrix not stored update host matrix
[OGL LOG] update_host_mtx : 26 ms
[OGL LOG] matrix is not yet sorted, sorting host matrix
[OGL LOG] sort_host_mtx_sparsity_pattern : 20 ms
[OGL LOG] sort_host_mtx : 12 ms
[OGL LOG] init_preconditioner : 0 ms
[OGL LOG] solve : 52 ms
nonecudaGKOBiCGStab:  Solving for p, Initial residual = 0.259137, Final residual = 9.5987e-05, No Iterations 114
linear solve p 175157
time step continuity errors : sum local = 6.83716e-08, global = 1.21691e-20, cumulative = 2.51511e-20
ExecutionTime = 5.22 s  ClockTime = 6 s

Time = 0.004

Courant Number mean: 0.0493939 max: 0.429156
DILUPBiCGStab:  Solving for Ux, Initial residual = 0.033042, Final residual = 2.2538e-06, No Iterations 5
DILUPBiCGStab:  Solving for Uy, Initial residual = 0.0643455, Final residual = 4.53108e-06, No Iterations 5
DILUPBiCGStab:  Solving for Uz, Initial residual = 0.132706, Final residual = 1.82177e-05, No Iterations 5
linear solve U 98449
[OGL LOG] init_host_sparsity_pattern : 52 ms
[OGL LOG] matrix not stored update host matrix
[OGL LOG] update_host_mtx : 27 ms
[OGL LOG] matrix is not yet sorted, sorting host matrix
[OGL LOG] sort_host_mtx_sparsity_pattern : 20 ms
[OGL LOG] sort_host_mtx : 12 ms
[OGL LOG] init_preconditioner : 0 ms
[OGL LOG] solve : 118 ms
nonecudaGKOBiCGStab:  Solving for p, Initial residual = 0.148064, Final residual = 5.60706e-05, No Iterations 264
linear solve p 241255
time step continuity errors : sum local = 6.13304e-08, global = 3.08277e-21, cumulative = 2.82338e-20
[OGL LOG] init_host_sparsity_pattern : 52 ms
[OGL LOG] matrix not stored update host matrix
[OGL LOG] update_host_mtx : 26 ms
[OGL LOG] matrix is not yet sorted, sorting host matrix
[OGL LOG] sort_host_mtx_sparsity_pattern : 20 ms
[OGL LOG] sort_host_mtx : 12 ms
[OGL LOG] init_preconditioner : 0 ms
[OGL LOG] solve : 47 ms
nonecudaGKOBiCGStab:  Solving for p, Initial residual = 0.117949, Final residual = 9.9086e-05, No Iterations 102
linear solve p 169832
time step continuity errors : sum local = 1.00871e-07, global = 2.18384e-20, cumulative = 5.00723e-20
ExecutionTime = 5.79 s  ClockTime = 6 s

Time = 0.005

Courant Number mean: 0.0552656 max: 0.438885
DILUPBiCGStab:  Solving for Ux, Initial residual = 0.0231299, Final residual = 1.18799e-06, No Iterations 5
DILUPBiCGStab:  Solving for Uy, Initial residual = 0.0446907, Final residual = 2.66568e-06, No Iterations 5
DILUPBiCGStab:  Solving for Uz, Initial residual = 0.088465, Final residual = 1.11516e-05, No Iterations 5
linear solve U 97818
[OGL LOG] init_host_sparsity_pattern : 52 ms
[OGL LOG] matrix not stored update host matrix
[OGL LOG] update_host_mtx : 27 ms
[OGL LOG] matrix is not yet sorted, sorting host matrix
[OGL LOG] sort_host_mtx_sparsity_pattern : 20 ms
[OGL LOG] sort_host_mtx : 12 ms
[OGL LOG] init_preconditioner : 0 ms
[OGL LOG] solve : 118 ms
nonecudaGKOBiCGStab:  Solving for p, Initial residual = 0.0762322, Final residual = 9.88265e-05, No Iterations 263
linear solve p 241165
time step continuity errors : sum local = 8.20855e-08, global = 2.91876e-21, cumulative = 5.2991e-20
[OGL LOG] init_host_sparsity_pattern : 52 ms
[OGL LOG] matrix not stored update host matrix
[OGL LOG] update_host_mtx : 26 ms
[OGL LOG] matrix is not yet sorted, sorting host matrix
[OGL LOG] sort_host_mtx_sparsity_pattern : 20 ms
[OGL LOG] sort_host_mtx : 12 ms
[OGL LOG] init_preconditioner : 0 ms
[OGL LOG] solve : 50 ms
nonecudaGKOBiCGStab:  Solving for p, Initial residual = 0.062832, Final residual = 9.25898e-05, No Iterations 109
linear solve p 173508
time step continuity errors : sum local = 8.99826e-08, global = 7.19694e-21, cumulative = 6.0188e-20
ExecutionTime = 6.37 s  ClockTime = 7 s

Time = 0.006

Courant Number mean: 0.0598393 max: 0.44477
DILUPBiCGStab:  Solving for Ux, Initial residual = 0.0177269, Final residual = 8.70358e-07, No Iterations 5
DILUPBiCGStab:  Solving for Uy, Initial residual = 0.0339728, Final residual = 1.04226e-06, No Iterations 5
DILUPBiCGStab:  Solving for Uz, Initial residual = 0.071013, Final residual = 8.22188e-06, No Iterations 5
linear solve U 98590
[OGL LOG] init_host_sparsity_pattern : 52 ms
[OGL LOG] matrix not stored update host matrix
[OGL LOG] update_host_mtx : 27 ms
[OGL LOG] matrix is not yet sorted, sorting host matrix
[OGL LOG] sort_host_mtx_sparsity_pattern : 20 ms
[OGL LOG] sort_host_mtx : 12 ms
[OGL LOG] init_preconditioner : 0 ms
[OGL LOG] solve : 121 ms
nonecudaGKOBiCGStab:  Solving for p, Initial residual = 0.0484921, Final residual = 9.12678e-05, No Iterations 272
linear solve p 244548
time step continuity errors : sum local = 5.9296e-08, global = 3.04253e-20, cumulative = 9.06132e-20
[OGL LOG] init_host_sparsity_pattern : 52 ms
[OGL LOG] matrix not stored update host matrix
[OGL LOG] update_host_mtx : 26 ms
[OGL LOG] matrix is not yet sorted, sorting host matrix
[OGL LOG] sort_host_mtx_sparsity_pattern : 20 ms
[OGL LOG] sort_host_mtx : 12 ms
[OGL LOG] init_preconditioner : 0 ms
[OGL LOG] solve : 122 ms
nonecudaGKOBiCGStab:  Solving for p, Initial residual = 0.0402415, Final residual = 9.85563e-05, No Iterations 274
linear solve p 245189
time step continuity errors : sum local = 7.52047e-08, global = 2.35587e-20, cumulative = 1.14172e-19
ExecutionTime = 7.02 s  ClockTime = 7 s

Time = 0.007

Courant Number mean: 0.063584 max: 0.448844
DILUPBiCGStab:  Solving for Ux, Initial residual = 0.0140447, Final residual = 7.93329e-07, No Iterations 5
DILUPBiCGStab:  Solving for Uy, Initial residual = 0.0274021, Final residual = 9.27253e-07, No Iterations 5
DILUPBiCGStab:  Solving for Uz, Initial residual = 0.0592044, Final residual = 5.979e-06, No Iterations 5
linear solve U 98362
[OGL LOG] init_host_sparsity_pattern : 52 ms
[OGL LOG] matrix not stored update host matrix
[OGL LOG] update_host_mtx : 27 ms
[OGL LOG] matrix is not yet sorted, sorting host matrix
[OGL LOG] sort_host_mtx_sparsity_pattern : 20 ms
[OGL LOG] sort_host_mtx : 12 ms
[OGL LOG] init_preconditioner : 0 ms
[OGL LOG] solve : 119 ms
nonecudaGKOBiCGStab:  Solving for p, Initial residual = 0.0326806, Final residual = 6.94794e-05, No Iterations 267
linear solve p 242448
time step continuity errors : sum local = 3.67594e-08, global = 6.72371e-21, cumulative = 1.20896e-19
[OGL LOG] init_host_sparsity_pattern : 53 ms
[OGL LOG] matrix not stored update host matrix
[OGL LOG] update_host_mtx : 27 ms
[OGL LOG] matrix is not yet sorted, sorting host matrix
[OGL LOG] sort_host_mtx_sparsity_pattern : 20 ms
[OGL LOG] sort_host_mtx : 12 ms
[OGL LOG] init_preconditioner : 0 ms
[OGL LOG] solve : 91 ms
nonecudaGKOBiCGStab:  Solving for p, Initial residual = 0.0280297, Final residual = 9.89974e-05, No Iterations 204
linear solve p 215138
time step continuity errors : sum local = 1.04679e-07, global = 7.16547e-21, cumulative = 1.28061e-19
ExecutionTime = 7.63 s  ClockTime = 8 s

Time = 0.008

Courant Number mean: 0.0666982 max: 0.451861
DILUPBiCGStab:  Solving for Ux, Initial residual = 0.0116573, Final residual = 7.08902e-07, No Iterations 5
DILUPBiCGStab:  Solving for Uy, Initial residual = 0.0224978, Final residual = 5.13378e-07, No Iterations 5
DILUPBiCGStab:  Solving for Uz, Initial residual = 0.0488059, Final residual = 4.87892e-06, No Iterations 5
linear solve U 97833
[OGL LOG] init_host_sparsity_pattern : 52 ms
[OGL LOG] matrix not stored update host matrix
[OGL LOG] update_host_mtx : 27 ms
[OGL LOG] matrix is not yet sorted, sorting host matrix
[OGL LOG] sort_host_mtx_sparsity_pattern : 20 ms
[OGL LOG] sort_host_mtx : 12 ms
[OGL LOG] init_preconditioner : 0 ms
[OGL LOG] solve : 122 ms
nonecudaGKOBiCGStab:  Solving for p, Initial residual = 0.0237559, Final residual = 5.98164e-05, No Iterations 274
linear solve p 245682
time step continuity errors : sum local = 3.52902e-08, global = -1.18086e-20, cumulative = 1.16253e-19
[OGL LOG] init_host_sparsity_pattern : 52 ms
[OGL LOG] matrix not stored update host matrix
[OGL LOG] update_host_mtx : 26 ms
[OGL LOG] matrix is not yet sorted, sorting host matrix
[OGL LOG] sort_host_mtx_sparsity_pattern : 21 ms
[OGL LOG] sort_host_mtx : 12 ms
[OGL LOG] init_preconditioner : 0 ms
[OGL LOG] solve : 109 ms
nonecudaGKOBiCGStab:  Solving for p, Initial residual = 0.0207827, Final residual = 9.99816e-05, No Iterations 245
linear solve p 233057
time step continuity errors : sum local = 7.87958e-08, global = 1.19316e-20, cumulative = 1.28184e-19
ExecutionTime = 8.28 s  ClockTime = 9 s

Time = 0.009

Courant Number mean: 0.0693812 max: 0.454188
DILUPBiCGStab:  Solving for Ux, Initial residual = 0.00973061, Final residual = 4.5587e-07, No Iterations 5
DILUPBiCGStab:  Solving for Uy, Initial residual = 0.0192166, Final residual = 5.98797e-07, No Iterations 5
DILUPBiCGStab:  Solving for Uz, Initial residual = 0.0424621, Final residual = 4.08249e-06, No Iterations 5
linear solve U 98762
[OGL LOG] init_host_sparsity_pattern : 52 ms
[OGL LOG] matrix not stored update host matrix
[OGL LOG] update_host_mtx : 27 ms
[OGL LOG] matrix is not yet sorted, sorting host matrix
[OGL LOG] sort_host_mtx_sparsity_pattern : 20 ms
[OGL LOG] sort_host_mtx : 12 ms
[OGL LOG] init_preconditioner : 0 ms
[OGL LOG] solve : 96 ms
nonecudaGKOBiCGStab:  Solving for p, Initial residual = 0.0196033, Final residual = 9.89004e-05, No Iterations 213
linear solve p 219270
time step continuity errors : sum local = 1.04408e-07, global = 6.46524e-21, cumulative = 1.34649e-19
[OGL LOG] init_host_sparsity_pattern : 52 ms
[OGL LOG] matrix not stored update host matrix
[OGL LOG] update_host_mtx : 26 ms
[OGL LOG] matrix is not yet sorted, sorting host matrix
[OGL LOG] sort_host_mtx_sparsity_pattern : 20 ms
[OGL LOG] sort_host_mtx : 12 ms
[OGL LOG] init_preconditioner : 0 ms
[OGL LOG] solve : 46 ms
nonecudaGKOBiCGStab:  Solving for p, Initial residual = 0.0172786, Final residual = 8.75858e-05, No Iterations 100
linear solve p 169357
time step continuity errors : sum local = 5.93449e-08, global = 3.52263e-22, cumulative = 1.35002e-19
ExecutionTime = 8.82 s  ClockTime = 9 s

Time = 0.01

Courant Number mean: 0.0717118 max: 0.456064
DILUPBiCGStab:  Solving for Ux, Initial residual = 0.00836112, Final residual = 3.35217e-07, No Iterations 5
DILUPBiCGStab:  Solving for Uy, Initial residual = 0.0164436, Final residual = 3.48641e-07, No Iterations 5
DILUPBiCGStab:  Solving for Uz, Initial residual = 0.0359316, Final residual = 3.0513e-06, No Iterations 5
linear solve U 98608
[OGL LOG] init_host_sparsity_pattern : 52 ms
[OGL LOG] matrix not stored update host matrix
[OGL LOG] update_host_mtx : 27 ms
[OGL LOG] matrix is not yet sorted, sorting host matrix
[OGL LOG] sort_host_mtx_sparsity_pattern : 20 ms
[OGL LOG] sort_host_mtx : 12 ms
[OGL LOG] init_preconditioner : 0 ms
[OGL LOG] solve : 50 ms
nonecudaGKOBiCGStab:  Solving for p, Initial residual = 0.0161154, Final residual = 9.89773e-05, No Iterations 109
linear solve p 173533
time step continuity errors : sum local = 1.01752e-07, global = -2.25775e-20, cumulative = 1.12424e-19
[OGL LOG] init_host_sparsity_pattern : 52 ms
[OGL LOG] matrix not stored update host matrix
[OGL LOG] update_host_mtx : 26 ms
[OGL LOG] matrix is not yet sorted, sorting host matrix
[OGL LOG] sort_host_mtx_sparsity_pattern : 21 ms
[OGL LOG] sort_host_mtx : 13 ms
[OGL LOG] init_preconditioner : 0 ms
[OGL LOG] solve : 45 ms
nonecudaGKOBiCGStab:  Solving for p, Initial residual = 0.0143228, Final residual = 7.29078e-05, No Iterations 98
linear solve p 169657
time step continuity errors : sum local = 5.59001e-08, global = 1.34397e-20, cumulative = 1.25864e-19
ExecutionTime = 9.33 s  ClockTime = 10 s

End

