/*---------------------------------------------------------------------------*\
  =========                 |
  \\      /  F ield         | OpenFOAM: The Open Source CFD Toolbox
   \\    /   O peration     | Website:  https://openfoam.org
    \\  /    A nd           | Version:  8
     \\/     M anipulation  |
\*---------------------------------------------------------------------------*/
Build  : 8-14d69e1ee166
Exec   : icoFoam
Date   : Jul 29 2021
Time   : 08:11:20
Host   : "guyot.icl.utk.edu"
PID    : 97763
I/O    : uncollated
Case   : /home/greole/code/OBR/lidDrivenCavity3D/Variation_mesh/75/Variation_matrix_solver/CG_BJ_CUDA/base
nProcs : 1
sigFpe : Enabling floating point exception trapping (FOAM_SIGFPE).
fileModificationChecking : Monitoring run-time modified files using timeStampMaster (fileModificationSkew 10)
allowSystemOperations : Allowing user-supplied system call operations

// * * * * * * * * * * * * * * * * * * * * * * * * * * * * * * * * * * * * * //
Create time

Create mesh for time = 0

Reading transportProperties

Reading field p

Reading field U

Reading/calculating face flux field phi


Starting time loop

Time = 0.001

Courant Number mean: 0 max: 0
DILUPBiCGStab:  Solving for Ux, Initial residual = 1, Final residual = 0.00209367, No Iterations 5
DILUPBiCGStab:  Solving for Uy:  solution singularity
DILUPBiCGStab:  Solving for Uz:  solution singularity
linear solve U 167092
[OGL LOG] init_host_sparsity_pattern : 188 ms
[OGL LOG] matrix not stored update host matrix
[OGL LOG] update_host_mtx : 94 ms
[OGL LOG] matrix is not yet sorted, compute sorting idxs
[OGL LOG] compute_sort : 4154 ms
[OGL LOG] matrix is not yet sorted, sorting host matrix
[OGL LOG] sort_host_mtx_sparsity_pattern : 75 ms
[OGL LOG] sort_host_mtx : 49 ms
[OGL LOG] init_preconditioner : 65 ms
 CG create  precond 
[OGL LOG] solve : 527 ms
BJcudaGKOCG:  Solving for p, Initial residual = 1, Final residual = 9.88733e-05, No Iterations 500
linear solve p 6833532
time step continuity errors : sum local = 5.8119e-08, global = -8.53709e-22, cumulative = -8.53709e-22
[OGL LOG] init_host_sparsity_pattern : 181 ms
[OGL LOG] matrix not stored update host matrix
[OGL LOG] update_host_mtx : 91 ms
[OGL LOG] matrix is not yet sorted, sorting host matrix
[OGL LOG] sort_host_mtx_sparsity_pattern : 68 ms
[OGL LOG] sort_host_mtx : 41 ms
[OGL LOG] init_preconditioner : 0 ms
 CG create  precond 
[OGL LOG] solve : 486 ms
BJcudaGKOCG:  Solving for p, Initial residual = 0.735624, Final residual = 9.91496e-05, No Iterations 482
linear solve p 897246
time step continuity errors : sum local = 7.65922e-08, global = -1.45864e-20, cumulative = -1.54401e-20
ExecutionTime = 9.82 s  ClockTime = 9 s

Time = 0.002

Courant Number mean: 0.0422934 max: 0.566001
DILUPBiCGStab:  Solving for Ux, Initial residual = 0.148658, Final residual = 0.000720405, No Iterations 5
DILUPBiCGStab:  Solving for Uy, Initial residual = 0.373403, Final residual = 0.00156876, No Iterations 5
DILUPBiCGStab:  Solving for Uz, Initial residual = 0.986124, Final residual = 0.00479755, No Iterations 5
linear solve U 331803
[OGL LOG] init_host_sparsity_pattern : 181 ms
[OGL LOG] matrix not stored update host matrix
[OGL LOG] update_host_mtx : 90 ms
[OGL LOG] matrix is not yet sorted, sorting host matrix
[OGL LOG] sort_host_mtx_sparsity_pattern : 69 ms
[OGL LOG] sort_host_mtx : 41 ms
[OGL LOG] init_preconditioner : 0 ms
 CG create  precond 
[OGL LOG] solve : 484 ms
BJcudaGKOCG:  Solving for p, Initial residual = 0.699689, Final residual = 9.40218e-05, No Iterations 474
linear solve p 896112
time step continuity errors : sum local = 8.25099e-08, global = 3.07769e-21, cumulative = -1.23624e-20
[OGL LOG] init_host_sparsity_pattern : 182 ms
[OGL LOG] matrix not stored update host matrix
[OGL LOG] update_host_mtx : 90 ms
[OGL LOG] matrix is not yet sorted, sorting host matrix
[OGL LOG] sort_host_mtx_sparsity_pattern : 68 ms
[OGL LOG] sort_host_mtx : 41 ms
[OGL LOG] init_preconditioner : 0 ms
 CG create  precond 
[OGL LOG] solve : 481 ms
BJcudaGKOCG:  Solving for p, Initial residual = 0.630563, Final residual = 9.78172e-05, No Iterations 472
linear solve p 891573
time step continuity errors : sum local = 8.77039e-08, global = 2.70729e-21, cumulative = -9.65512e-21
ExecutionTime = 12.17 s  ClockTime = 12 s

Time = 0.003

Courant Number mean: 0.063525 max: 0.668454
DILUPBiCGStab:  Solving for Ux, Initial residual = 0.0539125, Final residual = 0.000213874, No Iterations 5
DILUPBiCGStab:  Solving for Uy, Initial residual = 0.130271, Final residual = 0.000491817, No Iterations 5
DILUPBiCGStab:  Solving for Uz, Initial residual = 0.610601, Final residual = 0.00276801, No Iterations 5
linear solve U 332343
[OGL LOG] init_host_sparsity_pattern : 181 ms
[OGL LOG] matrix not stored update host matrix
[OGL LOG] update_host_mtx : 90 ms
[OGL LOG] matrix is not yet sorted, sorting host matrix
[OGL LOG] sort_host_mtx_sparsity_pattern : 68 ms
[OGL LOG] sort_host_mtx : 42 ms
[OGL LOG] init_preconditioner : 0 ms
 CG create  precond 
[OGL LOG] solve : 476 ms
BJcudaGKOCG:  Solving for p, Initial residual = 0.658889, Final residual = 9.46749e-05, No Iterations 468
linear solve p 887558
time step continuity errors : sum local = 6.19187e-08, global = -3.77363e-21, cumulative = -1.34288e-20
[OGL LOG] init_host_sparsity_pattern : 182 ms
[OGL LOG] matrix not stored update host matrix
[OGL LOG] update_host_mtx : 90 ms
[OGL LOG] matrix is not yet sorted, sorting host matrix
[OGL LOG] sort_host_mtx_sparsity_pattern : 68 ms
[OGL LOG] sort_host_mtx : 43 ms
[OGL LOG] init_preconditioner : 0 ms
 CG create  precond 
[OGL LOG] solve : 474 ms
BJcudaGKOCG:  Solving for p, Initial residual = 0.614146, Final residual = 9.35863e-05, No Iterations 467
linear solve p 887102
time step continuity errors : sum local = 5.94099e-08, global = -1.55445e-20, cumulative = -2.89733e-20
ExecutionTime = 14.51 s  ClockTime = 14 s

Time = 0.004

Courant Number mean: 0.074521 max: 0.679255
DILUPBiCGStab:  Solving for Ux, Initial residual = 0.0288363, Final residual = 0.0001054, No Iterations 5
DILUPBiCGStab:  Solving for Uy, Initial residual = 0.0884832, Final residual = 0.000296661, No Iterations 5
DILUPBiCGStab:  Solving for Uz, Initial residual = 0.323559, Final residual = 0.00117527, No Iterations 5
linear solve U 332197
[OGL LOG] init_host_sparsity_pattern : 181 ms
[OGL LOG] matrix not stored update host matrix
[OGL LOG] update_host_mtx : 90 ms
[OGL LOG] matrix is not yet sorted, sorting host matrix
[OGL LOG] sort_host_mtx_sparsity_pattern : 68 ms
[OGL LOG] sort_host_mtx : 42 ms
[OGL LOG] init_preconditioner : 0 ms
 CG create  precond 
[OGL LOG] solve : 473 ms
BJcudaGKOCG:  Solving for p, Initial residual = 0.457162, Final residual = 9.69053e-05, No Iterations 464
linear solve p 885992
time step continuity errors : sum local = 5.40885e-08, global = 1.94182e-21, cumulative = -2.70315e-20
[OGL LOG] init_host_sparsity_pattern : 181 ms
[OGL LOG] matrix not stored update host matrix
[OGL LOG] update_host_mtx : 90 ms
[OGL LOG] matrix is not yet sorted, sorting host matrix
[OGL LOG] sort_host_mtx_sparsity_pattern : 73 ms
[OGL LOG] sort_host_mtx : 43 ms
[OGL LOG] init_preconditioner : 0 ms
 CG create  precond 
[OGL LOG] solve : 471 ms
BJcudaGKOCG:  Solving for p, Initial residual = 0.393365, Final residual = 9.83066e-05, No Iterations 461
linear solve p 888611
time step continuity errors : sum local = 5.5565e-08, global = -1.37654e-20, cumulative = -4.07969e-20
ExecutionTime = 16.84 s  ClockTime = 16 s

Time = 0.005

Courant Number mean: 0.0833976 max: 0.689394
DILUPBiCGStab:  Solving for Ux, Initial residual = 0.0210209, Final residual = 6.37587e-05, No Iterations 5
DILUPBiCGStab:  Solving for Uy, Initial residual = 0.0480525, Final residual = 0.000107456, No Iterations 5
DILUPBiCGStab:  Solving for Uz, Initial residual = 0.123855, Final residual = 0.000602354, No Iterations 5
linear solve U 331906
[OGL LOG] init_host_sparsity_pattern : 181 ms
[OGL LOG] matrix not stored update host matrix
[OGL LOG] update_host_mtx : 90 ms
[OGL LOG] matrix is not yet sorted, sorting host matrix
[OGL LOG] sort_host_mtx_sparsity_pattern : 69 ms
[OGL LOG] sort_host_mtx : 44 ms
[OGL LOG] init_preconditioner : 0 ms
 CG create  precond 
[OGL LOG] solve : 464 ms
BJcudaGKOCG:  Solving for p, Initial residual = 0.373662, Final residual = 9.49516e-05, No Iterations 454
linear solve p 877337
time step continuity errors : sum local = 4.26899e-08, global = 7.05855e-21, cumulative = -3.37384e-20
[OGL LOG] init_host_sparsity_pattern : 181 ms
[OGL LOG] matrix not stored update host matrix
[OGL LOG] update_host_mtx : 90 ms
[OGL LOG] matrix is not yet sorted, sorting host matrix
[OGL LOG] sort_host_mtx_sparsity_pattern : 68 ms
[OGL LOG] sort_host_mtx : 41 ms
[OGL LOG] init_preconditioner : 0 ms
 CG create  precond 
[OGL LOG] solve : 457 ms
BJcudaGKOCG:  Solving for p, Initial residual = 0.324821, Final residual = 9.89315e-05, No Iterations 449
linear solve p 867415
time step continuity errors : sum local = 4.40772e-08, global = -5.49906e-21, cumulative = -3.92374e-20
ExecutionTime = 19.15 s  ClockTime = 19 s

Time = 0.006

Courant Number mean: 0.0901389 max: 0.695124
DILUPBiCGStab:  Solving for Ux, Initial residual = 0.0146315, Final residual = 3.89586e-05, No Iterations 5
DILUPBiCGStab:  Solving for Uy, Initial residual = 0.0378474, Final residual = 8.06888e-05, No Iterations 5
DILUPBiCGStab:  Solving for Uz, Initial residual = 0.102506, Final residual = 0.000381626, No Iterations 5
linear solve U 332625
[OGL LOG] init_host_sparsity_pattern : 181 ms
[OGL LOG] matrix not stored update host matrix
[OGL LOG] update_host_mtx : 90 ms
[OGL LOG] matrix is not yet sorted, sorting host matrix
[OGL LOG] sort_host_mtx_sparsity_pattern : 68 ms
[OGL LOG] sort_host_mtx : 44 ms
[OGL LOG] init_preconditioner : 0 ms
 CG create  precond 
[OGL LOG] solve : 227 ms
BJcudaGKOCG:  Solving for p, Initial residual = 0.240239, Final residual = 9.86994e-05, No Iterations 222
linear solve p 640013
time step continuity errors : sum local = 5.00306e-08, global = -2.80425e-22, cumulative = -3.95178e-20
[OGL LOG] init_host_sparsity_pattern : 181 ms
[OGL LOG] matrix not stored update host matrix
[OGL LOG] update_host_mtx : 90 ms
[OGL LOG] matrix is not yet sorted, sorting host matrix
[OGL LOG] sort_host_mtx_sparsity_pattern : 75 ms
[OGL LOG] sort_host_mtx : 42 ms
[OGL LOG] init_preconditioner : 0 ms
 CG create  precond 
[OGL LOG] solve : 219 ms
BJcudaGKOCG:  Solving for p, Initial residual = 0.201948, Final residual = 9.80446e-05, No Iterations 217
linear solve p 636444
time step continuity errors : sum local = 4.47759e-08, global = 1.19872e-20, cumulative = -2.75306e-20
ExecutionTime = 20.99 s  ClockTime = 21 s

Time = 0.007

Courant Number mean: 0.0957224 max: 0.698933
DILUPBiCGStab:  Solving for Ux, Initial residual = 0.0117978, Final residual = 2.48938e-05, No Iterations 5
DILUPBiCGStab:  Solving for Uy, Initial residual = 0.0277972, Final residual = 4.64372e-05, No Iterations 5
DILUPBiCGStab:  Solving for Uz, Initial residual = 0.056002, Final residual = 0.000135748, No Iterations 5
linear solve U 331754
[OGL LOG] init_host_sparsity_pattern : 181 ms
[OGL LOG] matrix not stored update host matrix
[OGL LOG] update_host_mtx : 90 ms
[OGL LOG] matrix is not yet sorted, sorting host matrix
[OGL LOG] sort_host_mtx_sparsity_pattern : 72 ms
[OGL LOG] sort_host_mtx : 43 ms
[OGL LOG] init_preconditioner : 0 ms
 CG create  precond 
[OGL LOG] solve : 214 ms
BJcudaGKOCG:  Solving for p, Initial residual = 0.179843, Final residual = 9.9705e-05, No Iterations 211
linear solve p 630442
time step continuity errors : sum local = 4.12877e-08, global = -6.48745e-21, cumulative = -3.4018e-20
[OGL LOG] init_host_sparsity_pattern : 181 ms
[OGL LOG] matrix not stored update host matrix
[OGL LOG] update_host_mtx : 90 ms
[OGL LOG] matrix is not yet sorted, sorting host matrix
[OGL LOG] sort_host_mtx_sparsity_pattern : 68 ms
[OGL LOG] sort_host_mtx : 41 ms
[OGL LOG] init_preconditioner : 0 ms
 CG create  precond 
[OGL LOG] solve : 214 ms
BJcudaGKOCG:  Solving for p, Initial residual = 0.151845, Final residual = 9.61999e-05, No Iterations 210
linear solve p 624699
time step continuity errors : sum local = 3.88453e-08, global = 6.02266e-21, cumulative = -2.79954e-20
ExecutionTime = 22.8 s  ClockTime = 22 s

Time = 0.008

Courant Number mean: 0.100393 max: 0.702022
DILUPBiCGStab:  Solving for Ux, Initial residual = 0.00946236, Final residual = 1.82498e-05, No Iterations 5
DILUPBiCGStab:  Solving for Uy, Initial residual = 0.0229709, Final residual = 3.19881e-05, No Iterations 5
DILUPBiCGStab:  Solving for Uz, Initial residual = 0.0501115, Final residual = 0.000136389, No Iterations 5
linear solve U 331451
[OGL LOG] init_host_sparsity_pattern : 181 ms
[OGL LOG] matrix not stored update host matrix
[OGL LOG] update_host_mtx : 90 ms
[OGL LOG] matrix is not yet sorted, sorting host matrix
[OGL LOG] sort_host_mtx_sparsity_pattern : 74 ms
[OGL LOG] sort_host_mtx : 43 ms
[OGL LOG] init_preconditioner : 0 ms
 CG create  precond 
[OGL LOG] solve : 213 ms
BJcudaGKOCG:  Solving for p, Initial residual = 0.120834, Final residual = 9.56129e-05, No Iterations 210
linear solve p 631948
time step continuity errors : sum local = 4.67653e-08, global = 4.95192e-21, cumulative = -2.30435e-20
[OGL LOG] init_host_sparsity_pattern : 181 ms
[OGL LOG] matrix not stored update host matrix
[OGL LOG] update_host_mtx : 90 ms
[OGL LOG] matrix is not yet sorted, sorting host matrix
[OGL LOG] sort_host_mtx_sparsity_pattern : 68 ms
[OGL LOG] sort_host_mtx : 41 ms
[OGL LOG] init_preconditioner : 0 ms
 CG create  precond 
[OGL LOG] solve : 207 ms
BJcudaGKOCG:  Solving for p, Initial residual = 0.100397, Final residual = 9.38791e-05, No Iterations 203
linear solve p 617644
time step continuity errors : sum local = 4.00958e-08, global = 1.30562e-20, cumulative = -9.98721e-21
ExecutionTime = 24.62 s  ClockTime = 24 s

Time = 0.009

Courant Number mean: 0.104394 max: 0.704236
DILUPBiCGStab:  Solving for Ux, Initial residual = 0.00790537, Final residual = 1.11876e-05, No Iterations 5
DILUPBiCGStab:  Solving for Uy, Initial residual = 0.0190345, Final residual = 2.60425e-05, No Iterations 5
DILUPBiCGStab:  Solving for Uz, Initial residual = 0.0372804, Final residual = 8.14105e-05, No Iterations 5
linear solve U 332121
[OGL LOG] init_host_sparsity_pattern : 181 ms
[OGL LOG] matrix not stored update host matrix
[OGL LOG] update_host_mtx : 90 ms
[OGL LOG] matrix is not yet sorted, sorting host matrix
[OGL LOG] sort_host_mtx_sparsity_pattern : 68 ms
[OGL LOG] sort_host_mtx : 44 ms
[OGL LOG] init_preconditioner : 0 ms
 CG create  precond 
[OGL LOG] solve : 212 ms
BJcudaGKOCG:  Solving for p, Initial residual = 0.0897756, Final residual = 9.45479e-05, No Iterations 209
linear solve p 624580
time step continuity errors : sum local = 4.21218e-08, global = -1.18892e-20, cumulative = -2.18765e-20
[OGL LOG] init_host_sparsity_pattern : 181 ms
[OGL LOG] matrix not stored update host matrix
[OGL LOG] update_host_mtx : 90 ms
[OGL LOG] matrix is not yet sorted, sorting host matrix
[OGL LOG] sort_host_mtx_sparsity_pattern : 68 ms
[OGL LOG] sort_host_mtx : 42 ms
[OGL LOG] init_preconditioner : 0 ms
 CG create  precond 
[OGL LOG] solve : 205 ms
BJcudaGKOCG:  Solving for p, Initial residual = 0.0750757, Final residual = 9.74945e-05, No Iterations 201
linear solve p 615931
time step continuity errors : sum local = 3.87554e-08, global = -1.76304e-20, cumulative = -3.95068e-20
ExecutionTime = 26.42 s  ClockTime = 26 s

Time = 0.01

Courant Number mean: 0.107876 max: 0.706139
DILUPBiCGStab:  Solving for Ux, Initial residual = 0.00676166, Final residual = 8.87845e-06, No Iterations 5
DILUPBiCGStab:  Solving for Uy, Initial residual = 0.0162345, Final residual = 1.44398e-05, No Iterations 5
DILUPBiCGStab:  Solving for Uz, Initial residual = 0.0342733, Final residual = 6.92458e-05, No Iterations 5
linear solve U 332362
[OGL LOG] init_host_sparsity_pattern : 181 ms
[OGL LOG] matrix not stored update host matrix
[OGL LOG] update_host_mtx : 90 ms
[OGL LOG] matrix is not yet sorted, sorting host matrix
[OGL LOG] sort_host_mtx_sparsity_pattern : 68 ms
[OGL LOG] sort_host_mtx : 41 ms
[OGL LOG] init_preconditioner : 0 ms
 CG create  precond 
[OGL LOG] solve : 427 ms
BJcudaGKOCG:  Solving for p, Initial residual = 0.0619314, Final residual = 9.55989e-05, No Iterations 422
linear solve p 837525
time step continuity errors : sum local = 3.64279e-08, global = -2.59645e-20, cumulative = -6.54713e-20
[OGL LOG] init_host_sparsity_pattern : 181 ms
[OGL LOG] matrix not stored update host matrix
[OGL LOG] update_host_mtx : 90 ms
[OGL LOG] matrix is not yet sorted, sorting host matrix
[OGL LOG] sort_host_mtx_sparsity_pattern : 71 ms
[OGL LOG] sort_host_mtx : 41 ms
[OGL LOG] init_preconditioner : 0 ms
 CG create  precond 
[OGL LOG] solve : 424 ms
BJcudaGKOCG:  Solving for p, Initial residual = 0.0515259, Final residual = 9.71327e-05, No Iterations 420
linear solve p 837730
time step continuity errors : sum local = 3.70217e-08, global = 1.08067e-20, cumulative = -5.46645e-20
ExecutionTime = 28.66 s  ClockTime = 28 s

End

