/*---------------------------------------------------------------------------*\
  =========                 |
  \\      /  F ield         | OpenFOAM: The Open Source CFD Toolbox
   \\    /   O peration     | Website:  https://openfoam.org
    \\  /    A nd           | Version:  8
     \\/     M anipulation  |
\*---------------------------------------------------------------------------*/
Build  : 8-ef60d22ea792
Exec   : icoFoam
Date   : Jul 28 2021
Time   : 22:08:55
Host   : "uc2n428.localdomain"
PID    : 4078708
I/O    : uncollated
Case   : /pfs/data5/home/kit/scc/nq7776/code/OBR/lidDrivenCavity3D/Variation_mesh/5/Variation_matrix_solver/BiCGStab_BJ_OMP/base
nProcs : 1
sigFpe : Enabling floating point exception trapping (FOAM_SIGFPE).
fileModificationChecking : Monitoring run-time modified files using timeStampMaster (fileModificationSkew 10)
allowSystemOperations : Allowing user-supplied system call operations

// * * * * * * * * * * * * * * * * * * * * * * * * * * * * * * * * * * * * * //
Create time

Create mesh for time = 0

Reading transportProperties

Reading field p

Reading field U

Reading/calculating face flux field phi


Starting time loop

Time = 0.001

Courant Number mean: 0 max: 0
DILUPBiCGStab:  Solving for Ux, Initial residual = 1, Final residual = 8.38041e-30, No Iterations 5
DILUPBiCGStab:  Solving for Uy:  solution singularity
DILUPBiCGStab:  Solving for Uz:  solution singularity
linear solve U 158
[OGL LOG] init_host_sparsity_pattern : 0 ms
[OGL LOG] matrix not stored update host matrix
[OGL LOG] update_host_mtx : 0 ms
[OGL LOG] matrix is not yet sorted, compute sorting idxs
[OGL LOG] compute_sort : 0 ms
[OGL LOG] matrix is not yet sorted, sorting host matrix
[OGL LOG] sort_host_mtx_sparsity_pattern : 0 ms
[OGL LOG] sort_host_mtx : 0 ms
[OGL LOG] init_preconditioner : 0 ms
[OGL LOG] solve : 1 ms
BJompGKOBiCGStab:  Solving for p, Initial residual = 1, Final residual = 4.56547e-05, No Iterations 17
linear solve p 4343
time step continuity errors : sum local = 1.46143e-07, global = 1.92568e-21, cumulative = 1.92568e-21
[OGL LOG] init_host_sparsity_pattern : 0 ms
[OGL LOG] matrix not stored update host matrix
[OGL LOG] update_host_mtx : 0 ms
[OGL LOG] matrix is not yet sorted, sorting host matrix
[OGL LOG] sort_host_mtx_sparsity_pattern : 0 ms
[OGL LOG] sort_host_mtx : 0 ms
[OGL LOG] init_preconditioner : 0 ms
[OGL LOG] solve : 1 ms
BJompGKOBiCGStab:  Solving for p, Initial residual = 0.0546035, Final residual = 1.54712e-05, No Iterations 14
linear solve p 1597
time step continuity errors : sum local = 9.9238e-07, global = 5.12356e-21, cumulative = 7.04923e-21
ExecutionTime = 0.04 s  ClockTime = 0 s

Time = 0.002

Courant Number mean: 0.000593455 max: 0.0013735
DILUPBiCGStab:  Solving for Ux, Initial residual = 0.290598, Final residual = 1.32927e-30, No Iterations 5
DILUPBiCGStab:  Solving for Uy, Initial residual = 0.317559, Final residual = 1.13225e-30, No Iterations 5
DILUPBiCGStab:  Solving for Uz, Initial residual = 0.354987, Final residual = 1.1512e-30, No Iterations 5
linear solve U 105
[OGL LOG] init_host_sparsity_pattern : 0 ms
[OGL LOG] matrix not stored update host matrix
[OGL LOG] update_host_mtx : 0 ms
[OGL LOG] matrix is not yet sorted, sorting host matrix
[OGL LOG] sort_host_mtx_sparsity_pattern : 0 ms
[OGL LOG] sort_host_mtx : 0 ms
[OGL LOG] init_preconditioner : 0 ms
[OGL LOG] solve : 1 ms
BJompGKOBiCGStab:  Solving for p, Initial residual = 0.113199, Final residual = 1.68673e-05, No Iterations 13
linear solve p 1442
time step continuity errors : sum local = 5.62613e-07, global = -1.48955e-21, cumulative = 5.55969e-21
[OGL LOG] init_host_sparsity_pattern : 0 ms
[OGL LOG] matrix not stored update host matrix
[OGL LOG] update_host_mtx : 0 ms
[OGL LOG] matrix is not yet sorted, sorting host matrix
[OGL LOG] sort_host_mtx_sparsity_pattern : 0 ms
[OGL LOG] sort_host_mtx : 0 ms
[OGL LOG] init_preconditioner : 0 ms
[OGL LOG] solve : 0 ms
BJompGKOBiCGStab:  Solving for p, Initial residual = 0.00385004, Final residual = 5.96954e-05, No Iterations 10
linear solve p 1212
time step continuity errors : sum local = 1.67067e-06, global = 4.31039e-21, cumulative = 9.87007e-21
ExecutionTime = 0.05 s  ClockTime = 0 s

Time = 0.003

Courant Number mean: 0.00113082 max: 0.00263368
DILUPBiCGStab:  Solving for Ux, Initial residual = 0.161843, Final residual = 7.37539e-31, No Iterations 5
DILUPBiCGStab:  Solving for Uy, Initial residual = 0.186717, Final residual = 6.8304e-31, No Iterations 5
DILUPBiCGStab:  Solving for Uz, Initial residual = 0.313215, Final residual = 2.69001e-30, No Iterations 5
linear solve U 112
[OGL LOG] init_host_sparsity_pattern : 0 ms
[OGL LOG] matrix not stored update host matrix
[OGL LOG] update_host_mtx : 0 ms
[OGL LOG] matrix is not yet sorted, sorting host matrix
[OGL LOG] sort_host_mtx_sparsity_pattern : 0 ms
[OGL LOG] sort_host_mtx : 0 ms
[OGL LOG] init_preconditioner : 0 ms
[OGL LOG] solve : 1 ms
BJompGKOBiCGStab:  Solving for p, Initial residual = 0.0607307, Final residual = 2.00946e-05, No Iterations 12
linear solve p 1458
time step continuity errors : sum local = 7.34739e-07, global = -1.11516e-20, cumulative = -1.28156e-21
[OGL LOG] init_host_sparsity_pattern : 0 ms
[OGL LOG] matrix not stored update host matrix
[OGL LOG] update_host_mtx : 0 ms
[OGL LOG] matrix is not yet sorted, sorting host matrix
[OGL LOG] sort_host_mtx_sparsity_pattern : 0 ms
[OGL LOG] sort_host_mtx : 0 ms
[OGL LOG] init_preconditioner : 0 ms
[OGL LOG] solve : 0 ms
BJompGKOBiCGStab:  Solving for p, Initial residual = 0.0025538, Final residual = 2.05657e-05, No Iterations 10
linear solve p 1205
time step continuity errors : sum local = 1.1752e-06, global = -4.78369e-21, cumulative = -6.06525e-21
ExecutionTime = 0.06 s  ClockTime = 0 s

Time = 0.004

Courant Number mean: 0.00161839 max: 0.00379106
DILUPBiCGStab:  Solving for Ux, Initial residual = 0.108861, Final residual = 5.01645e-31, No Iterations 5
DILUPBiCGStab:  Solving for Uy, Initial residual = 0.129096, Final residual = 4.60948e-31, No Iterations 5
DILUPBiCGStab:  Solving for Uz, Initial residual = 0.171897, Final residual = 8.6023e-31, No Iterations 5
linear solve U 103
[OGL LOG] init_host_sparsity_pattern : 0 ms
[OGL LOG] matrix not stored update host matrix
[OGL LOG] update_host_mtx : 0 ms
[OGL LOG] matrix is not yet sorted, sorting host matrix
[OGL LOG] sort_host_mtx_sparsity_pattern : 0 ms
[OGL LOG] sort_host_mtx : 0 ms
[OGL LOG] init_preconditioner : 0 ms
[OGL LOG] solve : 1 ms
BJompGKOBiCGStab:  Solving for p, Initial residual = 0.0360224, Final residual = 6.09088e-05, No Iterations 12
linear solve p 1356
time step continuity errors : sum local = 7.33881e-07, global = -1.59133e-20, cumulative = -2.19786e-20
[OGL LOG] init_host_sparsity_pattern : 0 ms
[OGL LOG] matrix not stored update host matrix
[OGL LOG] update_host_mtx : 0 ms
[OGL LOG] matrix is not yet sorted, sorting host matrix
[OGL LOG] sort_host_mtx_sparsity_pattern : 0 ms
[OGL LOG] sort_host_mtx : 0 ms
[OGL LOG] init_preconditioner : 0 ms
[OGL LOG] solve : 0 ms
BJompGKOBiCGStab:  Solving for p, Initial residual = 0.00195364, Final residual = 1.92767e-05, No Iterations 9
linear solve p 1110
time step continuity errors : sum local = 3.00609e-06, global = -5.49744e-21, cumulative = -2.7476e-20
ExecutionTime = 0.06 s  ClockTime = 0 s

Time = 0.005

Courant Number mean: 0.00206249 max: 0.00485739
DILUPBiCGStab:  Solving for Ux, Initial residual = 0.0799946, Final residual = 3.72626e-31, No Iterations 5
DILUPBiCGStab:  Solving for Uy, Initial residual = 0.0967964, Final residual = 3.36462e-31, No Iterations 5
DILUPBiCGStab:  Solving for Uz, Initial residual = 0.162471, Final residual = 9.44172e-31, No Iterations 5
linear solve U 103
[OGL LOG] init_host_sparsity_pattern : 0 ms
[OGL LOG] matrix not stored update host matrix
[OGL LOG] update_host_mtx : 0 ms
[OGL LOG] matrix is not yet sorted, sorting host matrix
[OGL LOG] sort_host_mtx_sparsity_pattern : 0 ms
[OGL LOG] sort_host_mtx : 0 ms
[OGL LOG] init_preconditioner : 0 ms
[OGL LOG] solve : 1 ms
BJompGKOBiCGStab:  Solving for p, Initial residual = 0.0293028, Final residual = 4.7757e-05, No Iterations 11
linear solve p 1278
time step continuity errors : sum local = 1.20246e-06, global = 3.719e-21, cumulative = -2.3757e-20
[OGL LOG] init_host_sparsity_pattern : 0 ms
[OGL LOG] matrix not stored update host matrix
[OGL LOG] update_host_mtx : 0 ms
[OGL LOG] matrix is not yet sorted, sorting host matrix
[OGL LOG] sort_host_mtx_sparsity_pattern : 0 ms
[OGL LOG] sort_host_mtx : 0 ms
[OGL LOG] init_preconditioner : 0 ms
[OGL LOG] solve : 0 ms
BJompGKOBiCGStab:  Solving for p, Initial residual = 0.00242862, Final residual = 5.45436e-05, No Iterations 9
linear solve p 1153
time step continuity errors : sum local = 3.49008e-05, global = 5.57189e-21, cumulative = -1.81851e-20
ExecutionTime = 0.07 s  ClockTime = 0 s

Time = 0.006

Courant Number mean: 0.00247713 max: 0.00583904
DILUPBiCGStab:  Solving for Ux, Initial residual = 0.063076, Final residual = 3.17808e-31, No Iterations 5
DILUPBiCGStab:  Solving for Uy, Initial residual = 0.0757304, Final residual = 2.66938e-31, No Iterations 5
DILUPBiCGStab:  Solving for Uz, Initial residual = 0.329884, Final residual = 3.25429e-30, No Iterations 5
linear solve U 97
[OGL LOG] init_host_sparsity_pattern : 0 ms
[OGL LOG] matrix not stored update host matrix
[OGL LOG] update_host_mtx : 0 ms
[OGL LOG] matrix is not yet sorted, sorting host matrix
[OGL LOG] sort_host_mtx_sparsity_pattern : 0 ms
[OGL LOG] sort_host_mtx : 0 ms
[OGL LOG] init_preconditioner : 0 ms
[OGL LOG] solve : 1 ms
BJompGKOBiCGStab:  Solving for p, Initial residual = 0.101319, Final residual = 4.18768e-05, No Iterations 11
linear solve p 1295
time step continuity errors : sum local = 7.65156e-07, global = -2.21089e-20, cumulative = -4.0294e-20
[OGL LOG] init_host_sparsity_pattern : 0 ms
[OGL LOG] matrix not stored update host matrix
[OGL LOG] update_host_mtx : 0 ms
[OGL LOG] matrix is not yet sorted, sorting host matrix
[OGL LOG] sort_host_mtx_sparsity_pattern : 0 ms
[OGL LOG] sort_host_mtx : 0 ms
[OGL LOG] init_preconditioner : 0 ms
[OGL LOG] solve : 1 ms
BJompGKOBiCGStab:  Solving for p, Initial residual = 0.0040016, Final residual = 5.07906e-05, No Iterations 11
linear solve p 1315
time step continuity errors : sum local = 5.84372e-07, global = 4.61401e-21, cumulative = -3.568e-20
ExecutionTime = 0.07 s  ClockTime = 0 s

Time = 0.007

Courant Number mean: 0.00283823 max: 0.00676704
DILUPBiCGStab:  Solving for Ux, Initial residual = 0.049083, Final residual = 2.33007e-31, No Iterations 5
DILUPBiCGStab:  Solving for Uy, Initial residual = 0.0629404, Final residual = 2.48264e-31, No Iterations 5
DILUPBiCGStab:  Solving for Uz, Initial residual = 0.423644, Final residual = 5.09876e-30, No Iterations 5
linear solve U 103
[OGL LOG] init_host_sparsity_pattern : 0 ms
[OGL LOG] matrix not stored update host matrix
[OGL LOG] update_host_mtx : 0 ms
[OGL LOG] matrix is not yet sorted, sorting host matrix
[OGL LOG] sort_host_mtx_sparsity_pattern : 0 ms
[OGL LOG] sort_host_mtx : 0 ms
[OGL LOG] init_preconditioner : 0 ms
[OGL LOG] solve : 1 ms
BJompGKOBiCGStab:  Solving for p, Initial residual = 0.0442251, Final residual = 4.3535e-05, No Iterations 11
linear solve p 1289
time step continuity errors : sum local = 1.77986e-06, global = 7.86152e-21, cumulative = -2.78184e-20
[OGL LOG] init_host_sparsity_pattern : 0 ms
[OGL LOG] matrix not stored update host matrix
[OGL LOG] update_host_mtx : 0 ms
[OGL LOG] matrix is not yet sorted, sorting host matrix
[OGL LOG] sort_host_mtx_sparsity_pattern : 0 ms
[OGL LOG] sort_host_mtx : 0 ms
[OGL LOG] init_preconditioner : 0 ms
[OGL LOG] solve : 0 ms
BJompGKOBiCGStab:  Solving for p, Initial residual = 0.00366986, Final residual = 3.00763e-05, No Iterations 10
linear solve p 1235
time step continuity errors : sum local = 1.09663e-06, global = -4.95647e-21, cumulative = -3.27749e-20
ExecutionTime = 0.08 s  ClockTime = 0 s

Time = 0.008

Courant Number mean: 0.00317408 max: 0.00760341
DILUPBiCGStab:  Solving for Ux, Initial residual = 0.0408754, Final residual = 1.95303e-31, No Iterations 5
DILUPBiCGStab:  Solving for Uy, Initial residual = 0.0512604, Final residual = 1.69716e-31, No Iterations 5
DILUPBiCGStab:  Solving for Uz, Initial residual = 0.107022, Final residual = 4.84403e-31, No Iterations 5
linear solve U 102
[OGL LOG] init_host_sparsity_pattern : 0 ms
[OGL LOG] matrix not stored update host matrix
[OGL LOG] update_host_mtx : 0 ms
[OGL LOG] matrix is not yet sorted, sorting host matrix
[OGL LOG] sort_host_mtx_sparsity_pattern : 0 ms
[OGL LOG] sort_host_mtx : 0 ms
[OGL LOG] init_preconditioner : 0 ms
[OGL LOG] solve : 1 ms
BJompGKOBiCGStab:  Solving for p, Initial residual = 0.0149019, Final residual = 4.31474e-05, No Iterations 11
linear solve p 1306
time step continuity errors : sum local = 1.72505e-06, global = -4.1359e-21, cumulative = -3.69108e-20
[OGL LOG] init_host_sparsity_pattern : 0 ms
[OGL LOG] matrix not stored update host matrix
[OGL LOG] update_host_mtx : 0 ms
[OGL LOG] matrix is not yet sorted, sorting host matrix
[OGL LOG] sort_host_mtx_sparsity_pattern : 0 ms
[OGL LOG] sort_host_mtx : 0 ms
[OGL LOG] init_preconditioner : 0 ms
[OGL LOG] solve : 0 ms
BJompGKOBiCGStab:  Solving for p, Initial residual = 0.00282489, Final residual = 5.80914e-05, No Iterations 9
linear solve p 1118
time step continuity errors : sum local = 0.000711124, global = 4.28016e-20, cumulative = 5.89082e-21
ExecutionTime = 0.09 s  ClockTime = 0 s

Time = 0.009

Courant Number mean: 0.00389684 max: 0.0189101
DILUPBiCGStab:  Solving for Ux, Initial residual = 0.0557687, Final residual = 4.44663e-31, No Iterations 5
DILUPBiCGStab:  Solving for Uy, Initial residual = 0.073282, Final residual = 6.06692e-31, No Iterations 5
DILUPBiCGStab:  Solving for Uz, Initial residual = 0.373813, Final residual = 4.31641e-30, No Iterations 5
linear solve U 102
[OGL LOG] init_host_sparsity_pattern : 0 ms
[OGL LOG] matrix not stored update host matrix
[OGL LOG] update_host_mtx : 0 ms
[OGL LOG] matrix is not yet sorted, sorting host matrix
[OGL LOG] sort_host_mtx_sparsity_pattern : 0 ms
[OGL LOG] sort_host_mtx : 0 ms
[OGL LOG] init_preconditioner : 0 ms
[OGL LOG] solve : 1 ms
BJompGKOBiCGStab:  Solving for p, Initial residual = 0.569669, Final residual = 9.79157e-05, No Iterations 13
linear solve p 1439
time step continuity errors : sum local = 7.88393e-07, global = 8.17916e-21, cumulative = 1.407e-20
[OGL LOG] init_host_sparsity_pattern : 0 ms
[OGL LOG] matrix not stored update host matrix
[OGL LOG] update_host_mtx : 0 ms
[OGL LOG] matrix is not yet sorted, sorting host matrix
[OGL LOG] sort_host_mtx_sparsity_pattern : 0 ms
[OGL LOG] sort_host_mtx : 0 ms
[OGL LOG] init_preconditioner : 0 ms
[OGL LOG] solve : 1 ms
BJompGKOBiCGStab:  Solving for p, Initial residual = 0.033479, Final residual = 8.23798e-05, No Iterations 11
linear solve p 1307
time step continuity errors : sum local = 3.10799e-06, global = -1.8198e-20, cumulative = -4.12799e-21
ExecutionTime = 0.09 s  ClockTime = 0 s

Time = 0.01

Courant Number mean: 0.00383776 max: 0.00944883
DILUPBiCGStab:  Solving for Ux, Initial residual = 0.035364, Final residual = 2.87523e-31, No Iterations 5
DILUPBiCGStab:  Solving for Uy, Initial residual = 0.0679362, Final residual = 5.34857e-31, No Iterations 5
DILUPBiCGStab:  Solving for Uz, Initial residual = 0.691911, Final residual = 8.31396e-30, No Iterations 5
linear solve U 97
[OGL LOG] init_host_sparsity_pattern : 0 ms
[OGL LOG] matrix not stored update host matrix
[OGL LOG] update_host_mtx : 0 ms
[OGL LOG] matrix is not yet sorted, sorting host matrix
[OGL LOG] sort_host_mtx_sparsity_pattern : 0 ms
[OGL LOG] sort_host_mtx : 0 ms
[OGL LOG] init_preconditioner : 0 ms
[OGL LOG] solve : 1 ms
BJompGKOBiCGStab:  Solving for p, Initial residual = 0.278469, Final residual = 3.82706e-05, No Iterations 13
linear solve p 1385
time step continuity errors : sum local = 1.54313e-06, global = 2.61124e-20, cumulative = 2.19844e-20
[OGL LOG] init_host_sparsity_pattern : 0 ms
[OGL LOG] matrix not stored update host matrix
[OGL LOG] update_host_mtx : 0 ms
[OGL LOG] matrix is not yet sorted, sorting host matrix
[OGL LOG] sort_host_mtx_sparsity_pattern : 0 ms
[OGL LOG] sort_host_mtx : 0 ms
[OGL LOG] init_preconditioner : 0 ms
[OGL LOG] solve : 1 ms
BJompGKOBiCGStab:  Solving for p, Initial residual = 0.0247789, Final residual = 8.44206e-05, No Iterations 11
linear solve p 1304
time step continuity errors : sum local = 1.50457e-06, global = 2.79918e-21, cumulative = 2.47836e-20
ExecutionTime = 0.1 s  ClockTime = 0 s

End

