/*---------------------------------------------------------------------------*\
  =========                 |
  \\      /  F ield         | OpenFOAM: The Open Source CFD Toolbox
   \\    /   O peration     | Website:  https://openfoam.org
    \\  /    A nd           | Version:  8
     \\/     M anipulation  |
\*---------------------------------------------------------------------------*/
Build  : 8-14d69e1ee166
Exec   : icoFoam
Date   : Jul 29 2021
Time   : 05:06:22
Host   : "guyot.icl.utk.edu"
PID    : 241803
I/O    : uncollated
Case   : /home/greole/code/OBR/lidDrivenCavity3D/Variation_mesh/60/Variation_matrix_solver/CG_DIC_Serial/base
nProcs : 1
sigFpe : Enabling floating point exception trapping (FOAM_SIGFPE).
fileModificationChecking : Monitoring run-time modified files using timeStampMaster (fileModificationSkew 10)
allowSystemOperations : Allowing user-supplied system call operations

// * * * * * * * * * * * * * * * * * * * * * * * * * * * * * * * * * * * * * //
Create time

Create mesh for time = 0

Reading transportProperties

Reading field p

Reading field U

Reading/calculating face flux field phi


Starting time loop

Time = 0.001

Courant Number mean: 0 max: 0
DILUPBiCGStab:  Solving for Ux, Initial residual = 1, Final residual = 0.000527977, No Iterations 5
DILUPBiCGStab:  Solving for Uy:  solution singularity
DILUPBiCGStab:  Solving for Uz:  solution singularity
linear solve U 84100
DICPCG:  Solving for p, Initial residual = 1, Final residual = 9.40938e-05, No Iterations 150
linear solve p 639919
time step continuity errors : sum local = 5.51168e-08, global = -3.36581e-21, cumulative = -3.36581e-21
DICPCG:  Solving for p, Initial residual = 0.695543, Final residual = 7.92054e-05, No Iterations 149
linear solve p 631827
time step continuity errors : sum local = 6.33639e-08, global = -4.04353e-21, cumulative = -7.40934e-21
ExecutionTime = 2.37 s  ClockTime = 2 s

Time = 0.002

Courant Number mean: 0.0334999 max: 0.423482
DILUPBiCGStab:  Solving for Ux, Initial residual = 0.157977, Final residual = 0.000145596, No Iterations 5
DILUPBiCGStab:  Solving for Uy, Initial residual = 0.339075, Final residual = 0.000249791, No Iterations 5
DILUPBiCGStab:  Solving for Uz, Initial residual = 0.980306, Final residual = 0.000934736, No Iterations 5
linear solve U 157751
DICPCG:  Solving for p, Initial residual = 0.615132, Final residual = 9.47623e-05, No Iterations 142
linear solve p 601219
time step continuity errors : sum local = 7.80084e-08, global = 2.52368e-21, cumulative = -4.88566e-21
DICPCG:  Solving for p, Initial residual = 0.535174, Final residual = 9.2898e-05, No Iterations 144
linear solve p 601260
time step continuity errors : sum local = 7.85444e-08, global = 2.00461e-20, cumulative = 1.51604e-20
ExecutionTime = 3.81 s  ClockTime = 4 s

Time = 0.003

Courant Number mean: 0.050297 max: 0.512853
DILUPBiCGStab:  Solving for Ux, Initial residual = 0.050484, Final residual = 3.33656e-05, No Iterations 5
DILUPBiCGStab:  Solving for Uy, Initial residual = 0.103203, Final residual = 6.93851e-05, No Iterations 5
DILUPBiCGStab:  Solving for Uz, Initial residual = 0.278545, Final residual = 0.000238159, No Iterations 5
linear solve U 159256
DICPCG:  Solving for p, Initial residual = 0.472569, Final residual = 8.93112e-05, No Iterations 143
linear solve p 618642
time step continuity errors : sum local = 5.11154e-08, global = 1.09657e-20, cumulative = 2.61261e-20
DICPCG:  Solving for p, Initial residual = 0.416449, Final residual = 9.00714e-05, No Iterations 142
linear solve p 596469
time step continuity errors : sum local = 5.01651e-08, global = -2.0744e-21, cumulative = 2.40517e-20
ExecutionTime = 5.27 s  ClockTime = 5 s

Time = 0.004

Courant Number mean: 0.0595684 max: 0.529579
DILUPBiCGStab:  Solving for Ux, Initial residual = 0.0299439, Final residual = 2.01424e-05, No Iterations 5
DILUPBiCGStab:  Solving for Uy, Initial residual = 0.066991, Final residual = 2.38539e-05, No Iterations 5
DILUPBiCGStab:  Solving for Uz, Initial residual = 0.166387, Final residual = 0.000110409, No Iterations 5
linear solve U 156951
DICPCG:  Solving for p, Initial residual = 0.25139, Final residual = 9.69567e-05, No Iterations 135
linear solve p 565643
time step continuity errors : sum local = 5.0407e-08, global = 9.10615e-21, cumulative = 3.31578e-20
DICPCG:  Solving for p, Initial residual = 0.204921, Final residual = 9.05026e-05, No Iterations 135
linear solve p 571227
time step continuity errors : sum local = 4.76136e-08, global = -3.38886e-21, cumulative = 2.9769e-20
ExecutionTime = 6.65 s  ClockTime = 7 s

Time = 0.005

Courant Number mean: 0.0665842 max: 0.539163
DILUPBiCGStab:  Solving for Ux, Initial residual = 0.0211077, Final residual = 6.93327e-06, No Iterations 5
DILUPBiCGStab:  Solving for Uy, Initial residual = 0.0441308, Final residual = 1.76441e-05, No Iterations 5
DILUPBiCGStab:  Solving for Uz, Initial residual = 0.071072, Final residual = 4.52188e-05, No Iterations 5
linear solve U 156804
DICPCG:  Solving for p, Initial residual = 0.15328, Final residual = 7.82252e-05, No Iterations 134
linear solve p 558043
time step continuity errors : sum local = 3.70474e-08, global = -1.50311e-20, cumulative = 1.47378e-20
DICPCG:  Solving for p, Initial residual = 0.126801, Final residual = 9.88502e-05, No Iterations 69
linear solve p 295959
time step continuity errors : sum local = 5.81746e-08, global = -2.54274e-21, cumulative = 1.21951e-20
ExecutionTime = 7.74 s  ClockTime = 8 s

Time = 0.006

Courant Number mean: 0.0720438 max: 0.544953
DILUPBiCGStab:  Solving for Ux, Initial residual = 0.0159246, Final residual = 7.32261e-06, No Iterations 5
DILUPBiCGStab:  Solving for Uy, Initial residual = 0.0338018, Final residual = 6.38892e-06, No Iterations 5
DILUPBiCGStab:  Solving for Uz, Initial residual = 0.0628087, Final residual = 3.00405e-05, No Iterations 5
linear solve U 155279
DICPCG:  Solving for p, Initial residual = 0.0899967, Final residual = 9.0747e-05, No Iterations 132
linear solve p 558741
time step continuity errors : sum local = 4.23392e-08, global = -1.1408e-20, cumulative = 7.87122e-22
DICPCG:  Solving for p, Initial residual = 0.0734126, Final residual = 8.69785e-05, No Iterations 63
linear solve p 271087
time step continuity errors : sum local = 4.85641e-08, global = 4.34604e-22, cumulative = 1.22173e-21
ExecutionTime = 8.81 s  ClockTime = 9 s

Time = 0.007

Courant Number mean: 0.0764963 max: 0.54895
DILUPBiCGStab:  Solving for Ux, Initial residual = 0.0127177, Final residual = 2.31507e-06, No Iterations 5
DILUPBiCGStab:  Solving for Uy, Initial residual = 0.0269199, Final residual = 6.26461e-06, No Iterations 5
DILUPBiCGStab:  Solving for Uz, Initial residual = 0.0506489, Final residual = 2.03075e-05, No Iterations 5
linear solve U 157164
DICPCG:  Solving for p, Initial residual = 0.0575705, Final residual = 7.67276e-05, No Iterations 132
linear solve p 545163
time step continuity errors : sum local = 3.51436e-08, global = -1.07646e-21, cumulative = 1.45267e-22
DICPCG:  Solving for p, Initial residual = 0.0478812, Final residual = 9.70809e-05, No Iterations 131
linear solve p 547907
time step continuity errors : sum local = 4.44768e-08, global = 1.28684e-20, cumulative = 1.30137e-20
ExecutionTime = 10.15 s  ClockTime = 10 s

Time = 0.008

Courant Number mean: 0.0802503 max: 0.551944
DILUPBiCGStab:  Solving for Ux, Initial residual = 0.0104562, Final residual = 1.96882e-06, No Iterations 5
DILUPBiCGStab:  Solving for Uy, Initial residual = 0.0222159, Final residual = 2.32556e-06, No Iterations 5
DILUPBiCGStab:  Solving for Uz, Initial residual = 0.0413956, Final residual = 1.27385e-05, No Iterations 5
linear solve U 157186
DICPCG:  Solving for p, Initial residual = 0.0381474, Final residual = 9.20321e-05, No Iterations 60
linear solve p 256772
time step continuity errors : sum local = 4.28616e-08, global = 1.48788e-21, cumulative = 1.45016e-20
DICPCG:  Solving for p, Initial residual = 0.0321281, Final residual = 9.59061e-05, No Iterations 59
linear solve p 257470
time step continuity errors : sum local = 4.48822e-08, global = 1.56663e-20, cumulative = 3.01678e-20
ExecutionTime = 10.9 s  ClockTime = 11 s

Time = 0.009

Courant Number mean: 0.0834509 max: 0.554252
DILUPBiCGStab:  Solving for Ux, Initial residual = 0.00878476, Final residual = 8.65218e-07, No Iterations 5
DILUPBiCGStab:  Solving for Uy, Initial residual = 0.0188164, Final residual = 3.06681e-06, No Iterations 5
DILUPBiCGStab:  Solving for Uz, Initial residual = 0.0354946, Final residual = 8.89674e-06, No Iterations 5
linear solve U 156917
DICPCG:  Solving for p, Initial residual = 0.0273977, Final residual = 9.69537e-05, No Iterations 58
linear solve p 243152
time step continuity errors : sum local = 4.88887e-08, global = -2.08036e-21, cumulative = 2.80875e-20
DICPCG:  Solving for p, Initial residual = 0.023746, Final residual = 9.48674e-05, No Iterations 57
linear solve p 241850
time step continuity errors : sum local = 4.39001e-08, global = -8.30679e-21, cumulative = 1.97807e-20
ExecutionTime = 11.63 s  ClockTime = 12 s

Time = 0.01

Courant Number mean: 0.0862267 max: 0.556109
DILUPBiCGStab:  Solving for Ux, Initial residual = 0.0075195, Final residual = 7.60726e-07, No Iterations 5
DILUPBiCGStab:  Solving for Uy, Initial residual = 0.016174, Final residual = 1.24353e-06, No Iterations 5
DILUPBiCGStab:  Solving for Uz, Initial residual = 0.0307084, Final residual = 7.05779e-06, No Iterations 5
linear solve U 157242
DICPCG:  Solving for p, Initial residual = 0.0201604, Final residual = 9.02992e-05, No Iterations 57
linear solve p 244082
time step continuity errors : sum local = 4.22452e-08, global = -3.1752e-20, cumulative = -1.19713e-20
DICPCG:  Solving for p, Initial residual = 0.0178257, Final residual = 8.88895e-05, No Iterations 56
linear solve p 244913
time step continuity errors : sum local = 4.1127e-08, global = -2.99399e-21, cumulative = -1.49653e-20
ExecutionTime = 12.36 s  ClockTime = 12 s

End

