/*---------------------------------------------------------------------------*\
  =========                 |
  \\      /  F ield         | OpenFOAM: The Open Source CFD Toolbox
   \\    /   O peration     | Website:  https://openfoam.org
    \\  /    A nd           | Version:  8
     \\/     M anipulation  |
\*---------------------------------------------------------------------------*/
Build  : 8-ef60d22ea792
Exec   : icoFoam
Date   : Jul 29 2021
Time   : 04:08:50
Host   : "uc2n489.localdomain"
PID    : 3424930
I/O    : uncollated
Case   : /pfs/data5/home/kit/scc/nq7776/code/OBR/lidDrivenCavity3D/Variation_mesh/10/Variation_matrix_solver/CG_NoPrecond_CUDA/base
nProcs : 1
sigFpe : Enabling floating point exception trapping (FOAM_SIGFPE).
fileModificationChecking : Monitoring run-time modified files using timeStampMaster (fileModificationSkew 10)
allowSystemOperations : Allowing user-supplied system call operations

// * * * * * * * * * * * * * * * * * * * * * * * * * * * * * * * * * * * * * //
Create time

Create mesh for time = 0

Reading transportProperties

Reading field p

Reading field U

Reading/calculating face flux field phi


Starting time loop

Time = 0.001

Courant Number mean: 0 max: 0
DILUPBiCGStab:  Solving for Ux, Initial residual = 1, Final residual = 8.04173e-19, No Iterations 5
DILUPBiCGStab:  Solving for Uy:  solution singularity
DILUPBiCGStab:  Solving for Uz:  solution singularity
linear solve U 420
[OGL LOG] init_host_sparsity_pattern : 0 ms
[OGL LOG] matrix not stored update host matrix
[OGL LOG] update_host_mtx : 0 ms
[OGL LOG] matrix is not yet sorted, compute sorting idxs
[OGL LOG] compute_sort : 5 ms
[OGL LOG] matrix is not yet sorted, sorting host matrix
[OGL LOG] sort_host_mtx_sparsity_pattern : 0 ms
[OGL LOG] sort_host_mtx : 0 ms
[OGL LOG] init_preconditioner : 0 ms
[OGL LOG] solve : 11 ms
nonecudaGKOCG:  Solving for p, Initial residual = 1, Final residual = 6.08555e-05, No Iterations 71
linear solve p 728294
time step continuity errors : sum local = 1.9926e-08, global = 4.06446e-21, cumulative = 4.06446e-21
[OGL LOG] init_host_sparsity_pattern : 0 ms
[OGL LOG] matrix not stored update host matrix
[OGL LOG] update_host_mtx : 0 ms
[OGL LOG] matrix is not yet sorted, sorting host matrix
[OGL LOG] sort_host_mtx_sparsity_pattern : 0 ms
[OGL LOG] sort_host_mtx : 0 ms
[OGL LOG] init_preconditioner : 0 ms
[OGL LOG] solve : 10 ms
nonecudaGKOCG:  Solving for p, Initial residual = 0.190401, Final residual = 5.72125e-05, No Iterations 66
linear solve p 11122
time step continuity errors : sum local = 3.47615e-08, global = -2.12337e-21, cumulative = 1.94108e-21
ExecutionTime = 0.77 s  ClockTime = 0 s

Time = 0.002

Courant Number mean: 0.00276862 max: 0.0123847
DILUPBiCGStab:  Solving for Ux, Initial residual = 0.271635, Final residual = 6.92824e-20, No Iterations 5
DILUPBiCGStab:  Solving for Uy, Initial residual = 0.305256, Final residual = 9.73395e-20, No Iterations 5
DILUPBiCGStab:  Solving for Uz, Initial residual = 0.479815, Final residual = 1.66764e-19, No Iterations 5
linear solve U 549
[OGL LOG] init_host_sparsity_pattern : 0 ms
[OGL LOG] matrix not stored update host matrix
[OGL LOG] update_host_mtx : 0 ms
[OGL LOG] matrix is not yet sorted, sorting host matrix
[OGL LOG] sort_host_mtx_sparsity_pattern : 0 ms
[OGL LOG] sort_host_mtx : 0 ms
[OGL LOG] init_preconditioner : 0 ms
[OGL LOG] solve : 9 ms
nonecudaGKOCG:  Solving for p, Initial residual = 0.124808, Final residual = 8.18505e-05, No Iterations 63
linear solve p 10590
time step continuity errors : sum local = 5.09953e-08, global = -9.5087e-21, cumulative = -7.56762e-21
[OGL LOG] init_host_sparsity_pattern : 0 ms
[OGL LOG] matrix not stored update host matrix
[OGL LOG] update_host_mtx : 0 ms
[OGL LOG] matrix is not yet sorted, sorting host matrix
[OGL LOG] sort_host_mtx_sparsity_pattern : 0 ms
[OGL LOG] sort_host_mtx : 0 ms
[OGL LOG] init_preconditioner : 0 ms
[OGL LOG] solve : 8 ms
nonecudaGKOCG:  Solving for p, Initial residual = 0.0212462, Final residual = 8.63254e-05, No Iterations 58
linear solve p 9884
time step continuity errors : sum local = 5.91385e-08, global = -6.4487e-21, cumulative = -1.40163e-20
ExecutionTime = 0.79 s  ClockTime = 0 s

Time = 0.003

Courant Number mean: 0.00491749 max: 0.022139
DILUPBiCGStab:  Solving for Ux, Initial residual = 0.137911, Final residual = 3.70173e-20, No Iterations 5
DILUPBiCGStab:  Solving for Uy, Initial residual = 0.165975, Final residual = 4.87379e-20, No Iterations 5
DILUPBiCGStab:  Solving for Uz, Initial residual = 0.287865, Final residual = 9.87219e-20, No Iterations 5
linear solve U 541
[OGL LOG] init_host_sparsity_pattern : 0 ms
[OGL LOG] matrix not stored update host matrix
[OGL LOG] update_host_mtx : 0 ms
[OGL LOG] matrix is not yet sorted, sorting host matrix
[OGL LOG] sort_host_mtx_sparsity_pattern : 0 ms
[OGL LOG] sort_host_mtx : 0 ms
[OGL LOG] init_preconditioner : 0 ms
[OGL LOG] solve : 9 ms
nonecudaGKOCG:  Solving for p, Initial residual = 0.0634486, Final residual = 7.759e-05, No Iterations 62
linear solve p 10461
time step continuity errors : sum local = 5.5685e-08, global = -1.56197e-20, cumulative = -2.9636e-20
[OGL LOG] init_host_sparsity_pattern : 0 ms
[OGL LOG] matrix not stored update host matrix
[OGL LOG] update_host_mtx : 0 ms
[OGL LOG] matrix is not yet sorted, sorting host matrix
[OGL LOG] sort_host_mtx_sparsity_pattern : 0 ms
[OGL LOG] sort_host_mtx : 0 ms
[OGL LOG] init_preconditioner : 0 ms
[OGL LOG] solve : 8 ms
nonecudaGKOCG:  Solving for p, Initial residual = 0.0132165, Final residual = 9.71657e-05, No Iterations 56
linear solve p 9586
time step continuity errors : sum local = 7.32251e-08, global = 5.36406e-21, cumulative = -2.42719e-20
ExecutionTime = 0.82 s  ClockTime = 1 s

Time = 0.004

Courant Number mean: 0.00660393 max: 0.0298428
DILUPBiCGStab:  Solving for Ux, Initial residual = 0.0843947, Final residual = 2.35687e-20, No Iterations 5
DILUPBiCGStab:  Solving for Uy, Initial residual = 0.107803, Final residual = 2.84375e-20, No Iterations 5
DILUPBiCGStab:  Solving for Uz, Initial residual = 0.19298, Final residual = 7.68159e-20, No Iterations 5
linear solve U 542
[OGL LOG] init_host_sparsity_pattern : 0 ms
[OGL LOG] matrix not stored update host matrix
[OGL LOG] update_host_mtx : 0 ms
[OGL LOG] matrix is not yet sorted, sorting host matrix
[OGL LOG] sort_host_mtx_sparsity_pattern : 0 ms
[OGL LOG] sort_host_mtx : 0 ms
[OGL LOG] init_preconditioner : 0 ms
[OGL LOG] solve : 9 ms
nonecudaGKOCG:  Solving for p, Initial residual = 0.0390187, Final residual = 9.77797e-05, No Iterations 61
linear solve p 10354
time step continuity errors : sum local = 7.57213e-08, global = -8.01559e-21, cumulative = -3.22875e-20
[OGL LOG] init_host_sparsity_pattern : 0 ms
[OGL LOG] matrix not stored update host matrix
[OGL LOG] update_host_mtx : 0 ms
[OGL LOG] matrix is not yet sorted, sorting host matrix
[OGL LOG] sort_host_mtx_sparsity_pattern : 0 ms
[OGL LOG] sort_host_mtx : 0 ms
[OGL LOG] init_preconditioner : 0 ms
[OGL LOG] solve : 8 ms
nonecudaGKOCG:  Solving for p, Initial residual = 0.00956074, Final residual = 9.96352e-05, No Iterations 55
linear solve p 9455
time step continuity errors : sum local = 7.9576e-08, global = 1.64994e-20, cumulative = -1.57881e-20
ExecutionTime = 0.84 s  ClockTime = 1 s

Time = 0.005

Courant Number mean: 0.0079444 max: 0.0359757
DILUPBiCGStab:  Solving for Ux, Initial residual = 0.0590438, Final residual = 1.62624e-20, No Iterations 5
DILUPBiCGStab:  Solving for Uy, Initial residual = 0.0764358, Final residual = 1.78286e-20, No Iterations 5
DILUPBiCGStab:  Solving for Uz, Initial residual = 0.150501, Final residual = 6.27776e-20, No Iterations 5
linear solve U 545
[OGL LOG] init_host_sparsity_pattern : 0 ms
[OGL LOG] matrix not stored update host matrix
[OGL LOG] update_host_mtx : 0 ms
[OGL LOG] matrix is not yet sorted, sorting host matrix
[OGL LOG] sort_host_mtx_sparsity_pattern : 0 ms
[OGL LOG] sort_host_mtx : 0 ms
[OGL LOG] init_preconditioner : 0 ms
[OGL LOG] solve : 9 ms
nonecudaGKOCG:  Solving for p, Initial residual = 0.0280837, Final residual = 8.04295e-05, No Iterations 61
linear solve p 10352
time step continuity errors : sum local = 6.53913e-08, global = 2.34663e-20, cumulative = 7.67815e-21
[OGL LOG] init_host_sparsity_pattern : 0 ms
[OGL LOG] matrix not stored update host matrix
[OGL LOG] update_host_mtx : 0 ms
[OGL LOG] matrix is not yet sorted, sorting host matrix
[OGL LOG] sort_host_mtx_sparsity_pattern : 0 ms
[OGL LOG] sort_host_mtx : 0 ms
[OGL LOG] init_preconditioner : 0 ms
[OGL LOG] solve : 8 ms
nonecudaGKOCG:  Solving for p, Initial residual = 0.00733699, Final residual = 9.77071e-05, No Iterations 54
linear solve p 9294
time step continuity errors : sum local = 8.10912e-08, global = -6.19393e-21, cumulative = 1.48422e-21
ExecutionTime = 0.86 s  ClockTime = 1 s

Time = 0.006

Courant Number mean: 0.0090242 max: 0.0408976
DILUPBiCGStab:  Solving for Ux, Initial residual = 0.044426, Final residual = 1.17383e-20, No Iterations 5
DILUPBiCGStab:  Solving for Uy, Initial residual = 0.0572635, Final residual = 1.1726e-20, No Iterations 5
DILUPBiCGStab:  Solving for Uz, Initial residual = 0.122505, Final residual = 5.09512e-20, No Iterations 5
linear solve U 541
[OGL LOG] init_host_sparsity_pattern : 0 ms
[OGL LOG] matrix not stored update host matrix
[OGL LOG] update_host_mtx : 0 ms
[OGL LOG] matrix is not yet sorted, sorting host matrix
[OGL LOG] sort_host_mtx_sparsity_pattern : 0 ms
[OGL LOG] sort_host_mtx : 0 ms
[OGL LOG] init_preconditioner : 0 ms
[OGL LOG] solve : 9 ms
nonecudaGKOCG:  Solving for p, Initial residual = 0.0228152, Final residual = 9.08772e-05, No Iterations 60
linear solve p 10166
time step continuity errors : sum local = 7.64467e-08, global = -2.06071e-20, cumulative = -1.91229e-20
[OGL LOG] init_host_sparsity_pattern : 0 ms
[OGL LOG] matrix not stored update host matrix
[OGL LOG] update_host_mtx : 0 ms
[OGL LOG] matrix is not yet sorted, sorting host matrix
[OGL LOG] sort_host_mtx_sparsity_pattern : 0 ms
[OGL LOG] sort_host_mtx : 0 ms
[OGL LOG] init_preconditioner : 0 ms
[OGL LOG] solve : 4 ms
nonecudaGKOCG:  Solving for p, Initial residual = 0.00581412, Final residual = 9.8204e-05, No Iterations 25
linear solve p 5107
time step continuity errors : sum local = 1.14381e-07, global = -2.78987e-20, cumulative = -4.70217e-20
ExecutionTime = 0.87 s  ClockTime = 1 s

Time = 0.007

Courant Number mean: 0.00990689 max: 0.04488
DILUPBiCGStab:  Solving for Ux, Initial residual = 0.034895, Final residual = 8.75714e-21, No Iterations 5
DILUPBiCGStab:  Solving for Uy, Initial residual = 0.044608, Final residual = 8.05666e-21, No Iterations 5
DILUPBiCGStab:  Solving for Uz, Initial residual = 0.102196, Final residual = 4.24686e-20, No Iterations 5
linear solve U 545
[OGL LOG] init_host_sparsity_pattern : 0 ms
[OGL LOG] matrix not stored update host matrix
[OGL LOG] update_host_mtx : 0 ms
[OGL LOG] matrix is not yet sorted, sorting host matrix
[OGL LOG] sort_host_mtx_sparsity_pattern : 0 ms
[OGL LOG] sort_host_mtx : 0 ms
[OGL LOG] init_preconditioner : 0 ms
[OGL LOG] solve : 5 ms
nonecudaGKOCG:  Solving for p, Initial residual = 0.0195335, Final residual = 9.46933e-05, No Iterations 35
linear solve p 6565
time step continuity errors : sum local = 1.09154e-07, global = 1.4618e-20, cumulative = -3.24037e-20
[OGL LOG] init_host_sparsity_pattern : 0 ms
[OGL LOG] matrix not stored update host matrix
[OGL LOG] update_host_mtx : 0 ms
[OGL LOG] matrix is not yet sorted, sorting host matrix
[OGL LOG] sort_host_mtx_sparsity_pattern : 0 ms
[OGL LOG] sort_host_mtx : 0 ms
[OGL LOG] init_preconditioner : 0 ms
[OGL LOG] solve : 3 ms
nonecudaGKOCG:  Solving for p, Initial residual = 0.00477225, Final residual = 8.70453e-05, No Iterations 23
linear solve p 4837
time step continuity errors : sum local = 8.58795e-08, global = 6.36185e-21, cumulative = -2.60418e-20
ExecutionTime = 0.88 s  ClockTime = 1 s

Time = 0.008

Courant Number mean: 0.0106744 max: 0.0481313
DILUPBiCGStab:  Solving for Ux, Initial residual = 0.0282143, Final residual = 6.85125e-21, No Iterations 5
DILUPBiCGStab:  Solving for Uy, Initial residual = 0.0357516, Final residual = 5.92628e-21, No Iterations 5
DILUPBiCGStab:  Solving for Uz, Initial residual = 0.0867999, Final residual = 3.49827e-20, No Iterations 5
linear solve U 559
[OGL LOG] init_host_sparsity_pattern : 0 ms
[OGL LOG] matrix not stored update host matrix
[OGL LOG] update_host_mtx : 0 ms
[OGL LOG] matrix is not yet sorted, sorting host matrix
[OGL LOG] sort_host_mtx_sparsity_pattern : 0 ms
[OGL LOG] sort_host_mtx : 0 ms
[OGL LOG] init_preconditioner : 0 ms
[OGL LOG] solve : 8 ms
nonecudaGKOCG:  Solving for p, Initial residual = 0.0168063, Final residual = 8.05155e-05, No Iterations 58
linear solve p 9887
time step continuity errors : sum local = 7.11454e-08, global = 9.58289e-22, cumulative = -2.50836e-20
[OGL LOG] init_host_sparsity_pattern : 0 ms
[OGL LOG] matrix not stored update host matrix
[OGL LOG] update_host_mtx : 0 ms
[OGL LOG] matrix is not yet sorted, sorting host matrix
[OGL LOG] sort_host_mtx_sparsity_pattern : 0 ms
[OGL LOG] sort_host_mtx : 0 ms
[OGL LOG] init_preconditioner : 0 ms
[OGL LOG] solve : 3 ms
nonecudaGKOCG:  Solving for p, Initial residual = 0.00387818, Final residual = 9.20088e-05, No Iterations 22
linear solve p 4669
time step continuity errors : sum local = 1.06495e-07, global = -1.6153e-20, cumulative = -4.12365e-20
ExecutionTime = 0.9 s  ClockTime = 1 s

Time = 0.009

Courant Number mean: 0.0113437 max: 0.0508022
DILUPBiCGStab:  Solving for Ux, Initial residual = 0.0231943, Final residual = 5.57756e-21, No Iterations 5
DILUPBiCGStab:  Solving for Uy, Initial residual = 0.029373, Final residual = 4.75167e-21, No Iterations 5
DILUPBiCGStab:  Solving for Uz, Initial residual = 0.0734667, Final residual = 2.94354e-20, No Iterations 5
linear solve U 542
[OGL LOG] init_host_sparsity_pattern : 0 ms
[OGL LOG] matrix not stored update host matrix
[OGL LOG] update_host_mtx : 0 ms
[OGL LOG] matrix is not yet sorted, sorting host matrix
[OGL LOG] sort_host_mtx_sparsity_pattern : 0 ms
[OGL LOG] sort_host_mtx : 0 ms
[OGL LOG] init_preconditioner : 0 ms
[OGL LOG] solve : 4 ms
nonecudaGKOCG:  Solving for p, Initial residual = 0.0151159, Final residual = 9.50796e-05, No Iterations 28
linear solve p 5565
time step continuity errors : sum local = 9.65299e-08, global = -9.08575e-21, cumulative = -5.03223e-20
[OGL LOG] init_host_sparsity_pattern : 0 ms
[OGL LOG] matrix not stored update host matrix
[OGL LOG] update_host_mtx : 0 ms
[OGL LOG] matrix is not yet sorted, sorting host matrix
[OGL LOG] sort_host_mtx_sparsity_pattern : 0 ms
[OGL LOG] sort_host_mtx : 0 ms
[OGL LOG] init_preconditioner : 0 ms
[OGL LOG] solve : 3 ms
nonecudaGKOCG:  Solving for p, Initial residual = 0.0033535, Final residual = 7.70535e-05, No Iterations 22
linear solve p 4653
time step continuity errors : sum local = 7.10152e-08, global = 1.55469e-21, cumulative = -4.87676e-20
ExecutionTime = 0.91 s  ClockTime = 1 s

Time = 0.01

Courant Number mean: 0.011944 max: 0.0530169
DILUPBiCGStab:  Solving for Ux, Initial residual = 0.0193042, Final residual = 4.68954e-21, No Iterations 5
DILUPBiCGStab:  Solving for Uy, Initial residual = 0.0245434, Final residual = 4.13277e-21, No Iterations 5
DILUPBiCGStab:  Solving for Uz, Initial residual = 0.0638233, Final residual = 2.57302e-20, No Iterations 5
linear solve U 544
[OGL LOG] init_host_sparsity_pattern : 0 ms
[OGL LOG] matrix not stored update host matrix
[OGL LOG] update_host_mtx : 0 ms
[OGL LOG] matrix is not yet sorted, sorting host matrix
[OGL LOG] sort_host_mtx_sparsity_pattern : 0 ms
[OGL LOG] sort_host_mtx : 0 ms
[OGL LOG] init_preconditioner : 0 ms
[OGL LOG] solve : 8 ms
nonecudaGKOCG:  Solving for p, Initial residual = 0.0134891, Final residual = 7.87075e-05, No Iterations 57
linear solve p 9755
time step continuity errors : sum local = 7.16137e-08, global = 3.34173e-20, cumulative = -1.53502e-20
[OGL LOG] init_host_sparsity_pattern : 0 ms
[OGL LOG] matrix not stored update host matrix
[OGL LOG] update_host_mtx : 0 ms
[OGL LOG] matrix is not yet sorted, sorting host matrix
[OGL LOG] sort_host_mtx_sparsity_pattern : 0 ms
[OGL LOG] sort_host_mtx : 0 ms
[OGL LOG] init_preconditioner : 0 ms
[OGL LOG] solve : 3 ms
nonecudaGKOCG:  Solving for p, Initial residual = 0.00273051, Final residual = 7.04094e-05, No Iterations 22
linear solve p 4669
time step continuity errors : sum local = 8.01897e-08, global = 3.43611e-20, cumulative = 1.90108e-20
ExecutionTime = 0.92 s  ClockTime = 1 s

End

