/*---------------------------------------------------------------------------*\
  =========                 |
  \\      /  F ield         | OpenFOAM: The Open Source CFD Toolbox
   \\    /   O peration     | Website:  https://openfoam.org
    \\  /    A nd           | Version:  8
     \\/     M anipulation  |
\*---------------------------------------------------------------------------*/
Build  : 8-ef60d22ea792
Exec   : icoFoam
Date   : Jul 29 2021
Time   : 00:42:15
Host   : "uc2n414.localdomain"
PID    : 2841227
I/O    : uncollated
Case   : /pfs/data5/home/kit/scc/nq7776/code/OBR/lidDrivenCavity3D/Variation_mesh/40/Variation_matrix_solver/IR_NoPrecond_OMP/base
nProcs : 1
sigFpe : Enabling floating point exception trapping (FOAM_SIGFPE).
fileModificationChecking : Monitoring run-time modified files using timeStampMaster (fileModificationSkew 10)
allowSystemOperations : Allowing user-supplied system call operations

// * * * * * * * * * * * * * * * * * * * * * * * * * * * * * * * * * * * * * //
Create time

Create mesh for time = 0

Reading transportProperties

Reading field p

Reading field U

Reading/calculating face flux field phi


Starting time loop

Time = 0.001

Courant Number mean: 0 max: 0
DILUPBiCGStab:  Solving for Ux, Initial residual = 1, Final residual = 1.19415e-05, No Iterations 5
DILUPBiCGStab:  Solving for Uy:  solution singularity
DILUPBiCGStab:  Solving for Uz:  solution singularity
linear solve U 28350
[OGL LOG] init_host_sparsity_pattern : 18 ms
[OGL LOG] matrix not stored update host matrix
[OGL LOG] update_host_mtx : 10 ms
[OGL LOG] matrix is not yet sorted, compute sorting idxs
[OGL LOG] compute_sort : 490 ms
[OGL LOG] matrix is not yet sorted, sorting host matrix
[OGL LOG] sort_host_mtx_sparsity_pattern : 13 ms
[OGL LOG] sort_host_mtx : 7 ms
[OGL LOG] init_preconditioner : 0 ms
[OGL LOG] solve : 665 ms
noneompGKOIR:  Solving for p, Initial residual = 1, Final residual = 8.99025e-06, No Iterations 3
linear solve p 1220186
time step continuity errors : sum local = 5.16775e-09, global = 8.55179e-21, cumulative = 8.55179e-21
[OGL LOG] init_host_sparsity_pattern : 17 ms
[OGL LOG] matrix not stored update host matrix
[OGL LOG] update_host_mtx : 9 ms
[OGL LOG] matrix is not yet sorted, sorting host matrix
[OGL LOG] sort_host_mtx_sparsity_pattern : 12 ms
[OGL LOG] sort_host_mtx : 6 ms
[OGL LOG] init_preconditioner : 0 ms
[OGL LOG] solve : 701 ms
noneompGKOIR:  Solving for p, Initial residual = 0.607463, Final residual = 3.49647e-06, No Iterations 3
linear solve p 756882
time step continuity errors : sum local = 2.92315e-09, global = 8.25798e-21, cumulative = 1.68098e-20
ExecutionTime = 2.3 s  ClockTime = 3 s

Time = 0.002

Courant Number mean: 0.0213818 max: 0.237104
DILUPBiCGStab:  Solving for Ux, Initial residual = 0.179109, Final residual = 2.29028e-06, No Iterations 5
DILUPBiCGStab:  Solving for Uy, Initial residual = 0.29084, Final residual = 3.23159e-06, No Iterations 5
DILUPBiCGStab:  Solving for Uz, Initial residual = 0.958354, Final residual = 1.2531e-05, No Iterations 5
linear solve U 47318
[OGL LOG] init_host_sparsity_pattern : 16 ms
[OGL LOG] matrix not stored update host matrix
[OGL LOG] update_host_mtx : 8 ms
[OGL LOG] matrix is not yet sorted, sorting host matrix
[OGL LOG] sort_host_mtx_sparsity_pattern : 14 ms
[OGL LOG] sort_host_mtx : 6 ms
[OGL LOG] init_preconditioner : 0 ms
[OGL LOG] solve : 707 ms
noneompGKOIR:  Solving for p, Initial residual = 0.459146, Final residual = 1.49414e-06, No Iterations 3
linear solve p 761412
time step continuity errors : sum local = 1.19165e-09, global = 2.20577e-20, cumulative = 3.88675e-20
[OGL LOG] init_host_sparsity_pattern : 17 ms
[OGL LOG] matrix not stored update host matrix
[OGL LOG] update_host_mtx : 9 ms
[OGL LOG] matrix is not yet sorted, sorting host matrix
[OGL LOG] sort_host_mtx_sparsity_pattern : 12 ms
[OGL LOG] sort_host_mtx : 6 ms
[OGL LOG] init_preconditioner : 0 ms
[OGL LOG] solve : 707 ms
noneompGKOIR:  Solving for p, Initial residual = 0.363692, Final residual = 1.21032e-06, No Iterations 3
linear solve p 760964
time step continuity errors : sum local = 1.00424e-09, global = -3.13904e-22, cumulative = 3.85536e-20
ExecutionTime = 3.91 s  ClockTime = 4 s

Time = 0.003

Courant Number mean: 0.032521 max: 0.306671
DILUPBiCGStab:  Solving for Ux, Initial residual = 0.0649075, Final residual = 7.63599e-07, No Iterations 5
DILUPBiCGStab:  Solving for Uy, Initial residual = 0.105098, Final residual = 6.05257e-07, No Iterations 5
DILUPBiCGStab:  Solving for Uz, Initial residual = 0.144732, Final residual = 1.65114e-06, No Iterations 5
linear solve U 45256
[OGL LOG] init_host_sparsity_pattern : 16 ms
[OGL LOG] matrix not stored update host matrix
[OGL LOG] update_host_mtx : 8 ms
[OGL LOG] matrix is not yet sorted, sorting host matrix
[OGL LOG] sort_host_mtx_sparsity_pattern : 13 ms
[OGL LOG] sort_host_mtx : 6 ms
[OGL LOG] init_preconditioner : 0 ms
[OGL LOG] solve : 539 ms
noneompGKOIR:  Solving for p, Initial residual = 0.164436, Final residual = 4.23953e-05, No Iterations 2
linear solve p 591155
time step continuity errors : sum local = 2.72711e-08, global = -7.84896e-21, cumulative = 3.07047e-20
[OGL LOG] init_host_sparsity_pattern : 16 ms
[OGL LOG] matrix not stored update host matrix
[OGL LOG] update_host_mtx : 8 ms
[OGL LOG] matrix is not yet sorted, sorting host matrix
[OGL LOG] sort_host_mtx_sparsity_pattern : 13 ms
[OGL LOG] sort_host_mtx : 6 ms
[OGL LOG] init_preconditioner : 0 ms
[OGL LOG] solve : 551 ms
noneompGKOIR:  Solving for p, Initial residual = 0.129697, Final residual = 3.0411e-05, No Iterations 2
linear solve p 604580
time step continuity errors : sum local = 1.9502e-08, global = -1.56428e-20, cumulative = 1.50619e-20
ExecutionTime = 5.18 s  ClockTime = 5 s

Time = 0.004

Courant Number mean: 0.0391011 max: 0.328163
DILUPBiCGStab:  Solving for Ux, Initial residual = 0.038063, Final residual = 2.89173e-07, No Iterations 5
DILUPBiCGStab:  Solving for Uy, Initial residual = 0.0656651, Final residual = 3.02498e-07, No Iterations 5
DILUPBiCGStab:  Solving for Uz, Initial residual = 0.105704, Final residual = 6.74726e-07, No Iterations 5
linear solve U 45034
[OGL LOG] init_host_sparsity_pattern : 16 ms
[OGL LOG] matrix not stored update host matrix
[OGL LOG] update_host_mtx : 8 ms
[OGL LOG] matrix is not yet sorted, sorting host matrix
[OGL LOG] sort_host_mtx_sparsity_pattern : 12 ms
[OGL LOG] sort_host_mtx : 6 ms
[OGL LOG] init_preconditioner : 0 ms
[OGL LOG] solve : 551 ms
noneompGKOIR:  Solving for p, Initial residual = 0.0833878, Final residual = 2.16254e-05, No Iterations 2
linear solve p 603720
time step continuity errors : sum local = 1.34301e-08, global = 4.23519e-21, cumulative = 1.92971e-20
[OGL LOG] init_host_sparsity_pattern : 17 ms
[OGL LOG] matrix not stored update host matrix
[OGL LOG] update_host_mtx : 9 ms
[OGL LOG] matrix is not yet sorted, sorting host matrix
[OGL LOG] sort_host_mtx_sparsity_pattern : 12 ms
[OGL LOG] sort_host_mtx : 6 ms
[OGL LOG] init_preconditioner : 0 ms
[OGL LOG] solve : 544 ms
noneompGKOIR:  Solving for p, Initial residual = 0.0649187, Final residual = 1.45435e-05, No Iterations 2
linear solve p 598041
time step continuity errors : sum local = 9.15086e-09, global = 2.57526e-21, cumulative = 2.18723e-20
ExecutionTime = 6.45 s  ClockTime = 7 s

Time = 0.005

Courant Number mean: 0.0438792 max: 0.338387
DILUPBiCGStab:  Solving for Ux, Initial residual = 0.0264331, Final residual = 7.82436e-08, No Iterations 5
DILUPBiCGStab:  Solving for Uy, Initial residual = 0.0455709, Final residual = 1.71039e-07, No Iterations 5
DILUPBiCGStab:  Solving for Uz, Initial residual = 0.0751069, Final residual = 2.92867e-07, No Iterations 5
linear solve U 45323
[OGL LOG] init_host_sparsity_pattern : 16 ms
[OGL LOG] matrix not stored update host matrix
[OGL LOG] update_host_mtx : 8 ms
[OGL LOG] matrix is not yet sorted, sorting host matrix
[OGL LOG] sort_host_mtx_sparsity_pattern : 12 ms
[OGL LOG] sort_host_mtx : 6 ms
[OGL LOG] init_preconditioner : 0 ms
[OGL LOG] solve : 550 ms
noneompGKOIR:  Solving for p, Initial residual = 0.0439546, Final residual = 9.4264e-06, No Iterations 2
linear solve p 603021
time step continuity errors : sum local = 5.85322e-09, global = 6.21887e-21, cumulative = 2.80912e-20
[OGL LOG] init_host_sparsity_pattern : 17 ms
[OGL LOG] matrix not stored update host matrix
[OGL LOG] update_host_mtx : 9 ms
[OGL LOG] matrix is not yet sorted, sorting host matrix
[OGL LOG] sort_host_mtx_sparsity_pattern : 12 ms
[OGL LOG] sort_host_mtx : 6 ms
[OGL LOG] init_preconditioner : 0 ms
[OGL LOG] solve : 551 ms
noneompGKOIR:  Solving for p, Initial residual = 0.0355762, Final residual = 6.04212e-06, No Iterations 2
linear solve p 605478
time step continuity errors : sum local = 3.76697e-09, global = 1.11408e-20, cumulative = 3.9232e-20
ExecutionTime = 7.74 s  ClockTime = 8 s

Time = 0.006

Courant Number mean: 0.0475595 max: 0.344477
DILUPBiCGStab:  Solving for Ux, Initial residual = 0.0200121, Final residual = 3.55023e-08, No Iterations 5
DILUPBiCGStab:  Solving for Uy, Initial residual = 0.0348378, Final residual = 8.01685e-08, No Iterations 5
DILUPBiCGStab:  Solving for Uz, Initial residual = 0.0588571, Final residual = 1.91438e-07, No Iterations 5
linear solve U 45166
[OGL LOG] init_host_sparsity_pattern : 16 ms
[OGL LOG] matrix not stored update host matrix
[OGL LOG] update_host_mtx : 8 ms
[OGL LOG] matrix is not yet sorted, sorting host matrix
[OGL LOG] sort_host_mtx_sparsity_pattern : 12 ms
[OGL LOG] sort_host_mtx : 6 ms
[OGL LOG] init_preconditioner : 0 ms
[OGL LOG] solve : 553 ms
noneompGKOIR:  Solving for p, Initial residual = 0.0293474, Final residual = 6.77549e-06, No Iterations 2
linear solve p 606024
time step continuity errors : sum local = 4.21902e-09, global = -3.02753e-20, cumulative = 8.95663e-21
[OGL LOG] init_host_sparsity_pattern : 17 ms
[OGL LOG] matrix not stored update host matrix
[OGL LOG] update_host_mtx : 9 ms
[OGL LOG] matrix is not yet sorted, sorting host matrix
[OGL LOG] sort_host_mtx_sparsity_pattern : 12 ms
[OGL LOG] sort_host_mtx : 6 ms
[OGL LOG] init_preconditioner : 0 ms
[OGL LOG] solve : 560 ms
noneompGKOIR:  Solving for p, Initial residual = 0.0240671, Final residual = 4.84866e-06, No Iterations 2
linear solve p 614676
time step continuity errors : sum local = 3.03212e-09, global = -2.41477e-21, cumulative = 6.54186e-21
ExecutionTime = 9.02 s  ClockTime = 9 s

Time = 0.007

Courant Number mean: 0.0505737 max: 0.348642
DILUPBiCGStab:  Solving for Ux, Initial residual = 0.0159158, Final residual = 2.12583e-08, No Iterations 5
DILUPBiCGStab:  Solving for Uy, Initial residual = 0.0278715, Final residual = 5.95249e-08, No Iterations 5
DILUPBiCGStab:  Solving for Uz, Initial residual = 0.0484699, Final residual = 1.35424e-07, No Iterations 5
linear solve U 45184
[OGL LOG] init_host_sparsity_pattern : 16 ms
[OGL LOG] matrix not stored update host matrix
[OGL LOG] update_host_mtx : 8 ms
[OGL LOG] matrix is not yet sorted, sorting host matrix
[OGL LOG] sort_host_mtx_sparsity_pattern : 12 ms
[OGL LOG] sort_host_mtx : 6 ms
[OGL LOG] init_preconditioner : 0 ms
[OGL LOG] solve : 564 ms
noneompGKOIR:  Solving for p, Initial residual = 0.022795, Final residual = 4.02074e-06, No Iterations 2
linear solve p 617030
time step continuity errors : sum local = 2.51659e-09, global = 1.5704e-20, cumulative = 2.22459e-20
[OGL LOG] init_host_sparsity_pattern : 17 ms
[OGL LOG] matrix not stored update host matrix
[OGL LOG] update_host_mtx : 9 ms
[OGL LOG] matrix is not yet sorted, sorting host matrix
[OGL LOG] sort_host_mtx_sparsity_pattern : 12 ms
[OGL LOG] sort_host_mtx : 6 ms
[OGL LOG] init_preconditioner : 0 ms
[OGL LOG] solve : 562 ms
noneompGKOIR:  Solving for p, Initial residual = 0.0190896, Final residual = 3.47644e-06, No Iterations 2
linear solve p 616031
time step continuity errors : sum local = 2.1817e-09, global = 3.89399e-20, cumulative = 6.11857e-20
ExecutionTime = 10.34 s  ClockTime = 11 s

Time = 0.008

Courant Number mean: 0.053113 max: 0.351705
DILUPBiCGStab:  Solving for Ux, Initial residual = 0.0130731, Final residual = 1.51402e-08, No Iterations 5
DILUPBiCGStab:  Solving for Uy, Initial residual = 0.0230445, Final residual = 3.8745e-08, No Iterations 5
DILUPBiCGStab:  Solving for Uz, Initial residual = 0.0411266, Final residual = 1.11801e-07, No Iterations 5
linear solve U 45275
[OGL LOG] init_host_sparsity_pattern : 16 ms
[OGL LOG] matrix not stored update host matrix
[OGL LOG] update_host_mtx : 8 ms
[OGL LOG] matrix is not yet sorted, sorting host matrix
[OGL LOG] sort_host_mtx_sparsity_pattern : 12 ms
[OGL LOG] sort_host_mtx : 6 ms
[OGL LOG] init_preconditioner : 0 ms
[OGL LOG] solve : 564 ms
noneompGKOIR:  Solving for p, Initial residual = 0.0179854, Final residual = 3.31059e-06, No Iterations 2
linear solve p 617221
time step continuity errors : sum local = 2.08012e-09, global = 1.50216e-20, cumulative = 7.62073e-20
[OGL LOG] init_host_sparsity_pattern : 17 ms
[OGL LOG] matrix not stored update host matrix
[OGL LOG] update_host_mtx : 9 ms
[OGL LOG] matrix is not yet sorted, sorting host matrix
[OGL LOG] sort_host_mtx_sparsity_pattern : 13 ms
[OGL LOG] sort_host_mtx : 6 ms
[OGL LOG] init_preconditioner : 0 ms
[OGL LOG] solve : 564 ms
noneompGKOIR:  Solving for p, Initial residual = 0.0151967, Final residual = 2.72087e-06, No Iterations 2
linear solve p 619036
time step continuity errors : sum local = 1.71346e-09, global = -1.08627e-20, cumulative = 6.53446e-20
ExecutionTime = 11.64 s  ClockTime = 12 s

Time = 0.009

Courant Number mean: 0.0552704 max: 0.354071
DILUPBiCGStab:  Solving for Ux, Initial residual = 0.0109809, Final residual = 1.1451e-08, No Iterations 5
DILUPBiCGStab:  Solving for Uy, Initial residual = 0.0194794, Final residual = 2.96242e-08, No Iterations 5
DILUPBiCGStab:  Solving for Uz, Initial residual = 0.0355216, Final residual = 9.51222e-08, No Iterations 5
linear solve U 45892
[OGL LOG] init_host_sparsity_pattern : 17 ms
[OGL LOG] matrix not stored update host matrix
[OGL LOG] update_host_mtx : 8 ms
[OGL LOG] matrix is not yet sorted, sorting host matrix
[OGL LOG] sort_host_mtx_sparsity_pattern : 12 ms
[OGL LOG] sort_host_mtx : 6 ms
[OGL LOG] init_preconditioner : 0 ms
[OGL LOG] solve : 569 ms
noneompGKOIR:  Solving for p, Initial residual = 0.0150941, Final residual = 2.78605e-06, No Iterations 2
linear solve p 622465
time step continuity errors : sum local = 1.75637e-09, global = -1.76208e-20, cumulative = 4.77238e-20
[OGL LOG] init_host_sparsity_pattern : 17 ms
[OGL LOG] matrix not stored update host matrix
[OGL LOG] update_host_mtx : 9 ms
[OGL LOG] matrix is not yet sorted, sorting host matrix
[OGL LOG] sort_host_mtx_sparsity_pattern : 12 ms
[OGL LOG] sort_host_mtx : 6 ms
[OGL LOG] init_preconditioner : 0 ms
[OGL LOG] solve : 566 ms
noneompGKOIR:  Solving for p, Initial residual = 0.0128057, Final residual = 1.96578e-06, No Iterations 2
linear solve p 620657
time step continuity errors : sum local = 1.24151e-09, global = 9.43713e-21, cumulative = 5.71609e-20
ExecutionTime = 12.96 s  ClockTime = 13 s

Time = 0.01

Courant Number mean: 0.057126 max: 0.355962
DILUPBiCGStab:  Solving for Ux, Initial residual = 0.00937634, Final residual = 9.20316e-09, No Iterations 5
DILUPBiCGStab:  Solving for Uy, Initial residual = 0.0167464, Final residual = 2.21793e-08, No Iterations 5
DILUPBiCGStab:  Solving for Uz, Initial residual = 0.0310644, Final residual = 8.25678e-08, No Iterations 5
linear solve U 45188
[OGL LOG] init_host_sparsity_pattern : 16 ms
[OGL LOG] matrix not stored update host matrix
[OGL LOG] update_host_mtx : 8 ms
[OGL LOG] matrix is not yet sorted, sorting host matrix
[OGL LOG] sort_host_mtx_sparsity_pattern : 12 ms
[OGL LOG] sort_host_mtx : 6 ms
[OGL LOG] init_preconditioner : 0 ms
[OGL LOG] solve : 562 ms
noneompGKOIR:  Solving for p, Initial residual = 0.0128028, Final residual = 2.35785e-06, No Iterations 2
linear solve p 615063
time step continuity errors : sum local = 1.49059e-09, global = -9.1807e-22, cumulative = 5.62429e-20
[OGL LOG] init_host_sparsity_pattern : 17 ms
[OGL LOG] matrix not stored update host matrix
[OGL LOG] update_host_mtx : 9 ms
[OGL LOG] matrix is not yet sorted, sorting host matrix
[OGL LOG] sort_host_mtx_sparsity_pattern : 12 ms
[OGL LOG] sort_host_mtx : 6 ms
[OGL LOG] init_preconditioner : 0 ms
[OGL LOG] solve : 565 ms
noneompGKOIR:  Solving for p, Initial residual = 0.0108895, Final residual = 1.70567e-06, No Iterations 2
linear solve p 619327
time step continuity errors : sum local = 1.07998e-09, global = -2.65488e-20, cumulative = 2.96941e-20
ExecutionTime = 14.26 s  ClockTime = 15 s

End

