/*---------------------------------------------------------------------------*\
  =========                 |
  \\      /  F ield         | OpenFOAM: The Open Source CFD Toolbox
   \\    /   O peration     | Website:  https://openfoam.org
    \\  /    A nd           | Version:  8
     \\/     M anipulation  |
\*---------------------------------------------------------------------------*/
Build  : 8-40a5a48f630f
Exec   : icoFoam
Date   : Jul 28 2021
Time   : 12:38:58
Host   : "uc2n374.localdomain"
PID    : 2728230
I/O    : uncollated
Case   : /pfs/data5/home/kit/scc/nq7776/code/OBR/lidDrivenCavity3D/Variation_mesh/25/Variation_matrix_solver/BiCGStab_NoPrecond_OMP/base
nProcs : 1
sigFpe : Enabling floating point exception trapping (FOAM_SIGFPE).
fileModificationChecking : Monitoring run-time modified files using timeStampMaster (fileModificationSkew 10)
allowSystemOperations : Allowing user-supplied system call operations

// * * * * * * * * * * * * * * * * * * * * * * * * * * * * * * * * * * * * * //
Create time

Create mesh for time = 0

Reading transportProperties

Reading field p

Reading field U

Reading/calculating face flux field phi


Starting time loop

Time = 0.001

Courant Number mean: 0 max: 0
nonePBiCGStab:  Solving for Ux, Initial residual = 1, Final residual = 0.00310183, No Iterations 5
nonePBiCGStab:  Solving for Uy, Initial residual = 0, Final residual = 0, No Iterations 0
nonePBiCGStab:  Solving for Uz, Initial residual = 0, Final residual = 0, No Iterations 0
linear solve U 2
[OGL LOG] init_host_sparsity_pattern : 4 ms
[OGL LOG] matrix not stored update host matrix
[OGL LOG] update_host_mtx : 2 ms
[OGL LOG] matrix is not yet sorted, compute sorting idxs
[OGL LOG] compute_sort : 105 ms
[OGL LOG] matrix is not yet sorted, sorting host matrix
[OGL LOG] sort_host_mtx_sparsity_pattern : 3 ms
[OGL LOG] sort_host_mtx : 1 ms
[OGL LOG] init_preconditioner : 0 ms
[OGL LOG] solve : 31974 ms
noneompGKOBiCGStab:  Solving for p, Initial residual = 1, Final residual = 7.67433e-05, No Iterations 160
linear solve p 32354
time step continuity errors : sum local = 3.81523e-07, global = -1.89375e-20, cumulative = -1.89375e-20
[OGL LOG] init_host_sparsity_pattern : 5 ms
[OGL LOG] matrix not stored update host matrix
[OGL LOG] update_host_mtx : 2 ms
[OGL LOG] matrix is not yet sorted, sorting host matrix
[OGL LOG] sort_host_mtx_sparsity_pattern : 3 ms
[OGL LOG] sort_host_mtx : 1 ms
[OGL LOG] init_preconditioner : 0 ms
[OGL LOG] solve : 30895 ms
noneompGKOBiCGStab:  Solving for p, Initial residual = 0.480865, Final residual = 8.76724e-05, No Iterations 154
linear solve p 30955
time step continuity errors : sum local = 2.93882e-07, global = 1.08538e-20, cumulative = -8.08367e-21
ExecutionTime = 1917.69 s  ClockTime = 63 s

Time = 0.002

Courant Number mean: 0.0119709 max: 0.106554
nonePBiCGStab:  Solving for Ux, Initial residual = 0.210816, Final residual = 0.00069535, No Iterations 5
nonePBiCGStab:  Solving for Uy, Initial residual = 0.28455, Final residual = 0.000649009, No Iterations 5
nonePBiCGStab:  Solving for Uz, Initial residual = 0.87827, Final residual = 0.003408, No Iterations 5
linear solve U 5
[OGL LOG] init_host_sparsity_pattern : 4 ms
[OGL LOG] matrix not stored update host matrix
[OGL LOG] update_host_mtx : 2 ms
[OGL LOG] matrix is not yet sorted, sorting host matrix
[OGL LOG] sort_host_mtx_sparsity_pattern : 3 ms
[OGL LOG] sort_host_mtx : 1 ms
[OGL LOG] init_preconditioner : 0 ms
[OGL LOG] solve : 29156 ms
noneompGKOBiCGStab:  Solving for p, Initial residual = 0.28601, Final residual = 4.4397e-05, No Iterations 146
linear solve p 29474
time step continuity errors : sum local = 2.5676e-06, global = -2.31094e-21, cumulative = -1.03946e-20
[OGL LOG] init_host_sparsity_pattern : 4 ms
[OGL LOG] matrix not stored update host matrix
[OGL LOG] update_host_mtx : 2 ms
[OGL LOG] matrix is not yet sorted, sorting host matrix
[OGL LOG] sort_host_mtx_sparsity_pattern : 3 ms
[OGL LOG] sort_host_mtx : 1 ms
[OGL LOG] init_preconditioner : 0 ms
[OGL LOG] solve : 14374 ms
noneompGKOBiCGStab:  Solving for p, Initial residual = 0.191531, Final residual = 6.1911e-05, No Iterations 144
linear solve p 14630
time step continuity errors : sum local = 2.28267e-06, global = -1.77254e-20, cumulative = -2.81201e-20
ExecutionTime = 3256.69 s  ClockTime = 108 s

Time = 0.003

Courant Number mean: 0.0188468 max: 0.153564
nonePBiCGStab:  Solving for Ux, Initial residual = 0.0899905, Final residual = 0.000292746, No Iterations 5
nonePBiCGStab:  Solving for Uy, Initial residual = 0.124913, Final residual = 0.000193107, No Iterations 5
nonePBiCGStab:  Solving for Uz, Initial residual = 0.278906, Final residual = 0.00136544, No Iterations 5
linear solve U 86
[OGL LOG] init_host_sparsity_pattern : 4 ms
[OGL LOG] matrix not stored update host matrix
[OGL LOG] update_host_mtx : 2 ms
[OGL LOG] matrix is not yet sorted, sorting host matrix
[OGL LOG] sort_host_mtx_sparsity_pattern : 3 ms
[OGL LOG] sort_host_mtx : 1 ms
[OGL LOG] init_preconditioner : 0 ms
[OGL LOG] solve : 91 ms
noneompGKOBiCGStab:  Solving for p, Initial residual = 0.106766, Final residual = 9.22182e-05, No Iterations 141
linear solve p 104
time step continuity errors : sum local = 1.48551e-06, global = 4.35552e-21, cumulative = -2.37645e-20
[OGL LOG] init_host_sparsity_pattern : 4 ms
[OGL LOG] matrix not stored update host matrix
[OGL LOG] update_host_mtx : 2 ms
[OGL LOG] matrix is not yet sorted, sorting host matrix
[OGL LOG] sort_host_mtx_sparsity_pattern : 3 ms
[OGL LOG] sort_host_mtx : 1 ms
[OGL LOG] init_preconditioner : 0 ms
[OGL LOG] solve : 81 ms
noneompGKOBiCGStab:  Solving for p, Initial residual = 0.072411, Final residual = 9.99126e-05, No Iterations 126
linear solve p 94
time step continuity errors : sum local = 3.00246e-07, global = 9.63376e-21, cumulative = -1.41308e-20
ExecutionTime = 3262.47 s  ClockTime = 109 s

Time = 0.004

Courant Number mean: 0.0233145 max: 0.175119
nonePBiCGStab:  Solving for Ux, Initial residual = 0.0520999, Final residual = 9.86079e-05, No Iterations 5
nonePBiCGStab:  Solving for Uy, Initial residual = 0.0743131, Final residual = 6.21678e-05, No Iterations 5
nonePBiCGStab:  Solving for Uz, Initial residual = 0.132264, Final residual = 0.00050165, No Iterations 5
linear solve U 5
[OGL LOG] init_host_sparsity_pattern : 4 ms
[OGL LOG] matrix not stored update host matrix
[OGL LOG] update_host_mtx : 2 ms
[OGL LOG] matrix is not yet sorted, sorting host matrix
[OGL LOG] sort_host_mtx_sparsity_pattern : 3 ms
[OGL LOG] sort_host_mtx : 1 ms
[OGL LOG] init_preconditioner : 0 ms
[OGL LOG] solve : 33 ms
noneompGKOBiCGStab:  Solving for p, Initial residual = 0.0560195, Final residual = 9.95601e-05, No Iterations 51
linear solve p 46
time step continuity errors : sum local = 1.51909e-07, global = -1.00804e-20, cumulative = -2.42112e-20
[OGL LOG] init_host_sparsity_pattern : 4 ms
[OGL LOG] matrix not stored update host matrix
[OGL LOG] update_host_mtx : 2 ms
[OGL LOG] matrix is not yet sorted, sorting host matrix
[OGL LOG] sort_host_mtx_sparsity_pattern : 3 ms
[OGL LOG] sort_host_mtx : 1 ms
[OGL LOG] init_preconditioner : 0 ms
[OGL LOG] solve : 38 ms
noneompGKOBiCGStab:  Solving for p, Initial residual = 0.0372403, Final residual = 9.72607e-05, No Iterations 58
linear solve p 51
time step continuity errors : sum local = 1.26679e-07, global = -6.90975e-21, cumulative = -3.1121e-20
ExecutionTime = 3265.15 s  ClockTime = 109 s

Time = 0.005

Courant Number mean: 0.0264937 max: 0.186504
nonePBiCGStab:  Solving for Ux, Initial residual = 0.0351241, Final residual = 3.83405e-05, No Iterations 5
nonePBiCGStab:  Solving for Uy, Initial residual = 0.0508477, Final residual = 2.82933e-05, No Iterations 5
nonePBiCGStab:  Solving for Uz, Initial residual = 0.0918477, Final residual = 0.000155602, No Iterations 5
linear solve U 6
[OGL LOG] init_host_sparsity_pattern : 4 ms
[OGL LOG] matrix not stored update host matrix
[OGL LOG] update_host_mtx : 2 ms
[OGL LOG] matrix is not yet sorted, sorting host matrix
[OGL LOG] sort_host_mtx_sparsity_pattern : 3 ms
[OGL LOG] sort_host_mtx : 1 ms
[OGL LOG] init_preconditioner : 0 ms
[OGL LOG] solve : 32 ms
noneompGKOBiCGStab:  Solving for p, Initial residual = 0.0351257, Final residual = 9.88238e-05, No Iterations 50
linear solve p 45
time step continuity errors : sum local = 8.91975e-08, global = 2.0785e-21, cumulative = -2.90425e-20
[OGL LOG] init_host_sparsity_pattern : 4 ms
[OGL LOG] matrix not stored update host matrix
[OGL LOG] update_host_mtx : 2 ms
[OGL LOG] matrix is not yet sorted, sorting host matrix
[OGL LOG] sort_host_mtx_sparsity_pattern : 2 ms
[OGL LOG] sort_host_mtx : 1 ms
[OGL LOG] init_preconditioner : 0 ms
[OGL LOG] solve : 35 ms
noneompGKOBiCGStab:  Solving for p, Initial residual = 0.0232391, Final residual = 6.68295e-05, No Iterations 54
linear solve p 48
time step continuity errors : sum local = 8.40448e-08, global = -3.55497e-20, cumulative = -6.45921e-20
ExecutionTime = 3267.68 s  ClockTime = 109 s

Time = 0.006

Courant Number mean: 0.0288953 max: 0.193336
nonePBiCGStab:  Solving for Ux, Initial residual = 0.0259501, Final residual = 1.46575e-05, No Iterations 5
nonePBiCGStab:  Solving for Uy, Initial residual = 0.0379986, Final residual = 1.60866e-05, No Iterations 5
nonePBiCGStab:  Solving for Uz, Initial residual = 0.0707947, Final residual = 6.84378e-05, No Iterations 5
linear solve U 5
[OGL LOG] init_host_sparsity_pattern : 4 ms
[OGL LOG] matrix not stored update host matrix
[OGL LOG] update_host_mtx : 2 ms
[OGL LOG] matrix is not yet sorted, sorting host matrix
[OGL LOG] sort_host_mtx_sparsity_pattern : 3 ms
[OGL LOG] sort_host_mtx : 1 ms
[OGL LOG] init_preconditioner : 0 ms
[OGL LOG] solve : 33 ms
noneompGKOBiCGStab:  Solving for p, Initial residual = 0.0244078, Final residual = 6.47961e-05, No Iterations 52
linear solve p 46
time step continuity errors : sum local = 1.17557e-07, global = -3.70817e-20, cumulative = -1.01674e-19
[OGL LOG] init_host_sparsity_pattern : 4 ms
[OGL LOG] matrix not stored update host matrix
[OGL LOG] update_host_mtx : 2 ms
[OGL LOG] matrix is not yet sorted, sorting host matrix
[OGL LOG] sort_host_mtx_sparsity_pattern : 3 ms
[OGL LOG] sort_host_mtx : 1 ms
[OGL LOG] init_preconditioner : 0 ms
[OGL LOG] solve : 33 ms
noneompGKOBiCGStab:  Solving for p, Initial residual = 0.0163759, Final residual = 9.66062e-05, No Iterations 52
linear solve p 46
time step continuity errors : sum local = 9.96236e-08, global = -1.81126e-20, cumulative = -1.19786e-19
ExecutionTime = 3270.17 s  ClockTime = 109 s

Time = 0.007

Courant Number mean: 0.0308309 max: 0.197891
nonePBiCGStab:  Solving for Ux, Initial residual = 0.0203574, Final residual = 7.11706e-06, No Iterations 5
nonePBiCGStab:  Solving for Uy, Initial residual = 0.0300419, Final residual = 9.90802e-06, No Iterations 5
nonePBiCGStab:  Solving for Uz, Initial residual = 0.0574906, Final residual = 4.51245e-05, No Iterations 5
linear solve U 5
[OGL LOG] init_host_sparsity_pattern : 4 ms
[OGL LOG] matrix not stored update host matrix
[OGL LOG] update_host_mtx : 2 ms
[OGL LOG] matrix is not yet sorted, sorting host matrix
[OGL LOG] sort_host_mtx_sparsity_pattern : 3 ms
[OGL LOG] sort_host_mtx : 1 ms
[OGL LOG] init_preconditioner : 0 ms
[OGL LOG] solve : 34 ms
noneompGKOBiCGStab:  Solving for p, Initial residual = 0.0187582, Final residual = 5.85686e-05, No Iterations 52
linear solve p 46
time step continuity errors : sum local = 1.21851e-07, global = 4.63831e-21, cumulative = -1.15148e-19
[OGL LOG] init_host_sparsity_pattern : 4 ms
[OGL LOG] matrix not stored update host matrix
[OGL LOG] update_host_mtx : 2 ms
[OGL LOG] matrix is not yet sorted, sorting host matrix
[OGL LOG] sort_host_mtx_sparsity_pattern : 3 ms
[OGL LOG] sort_host_mtx : 1 ms
[OGL LOG] init_preconditioner : 0 ms
[OGL LOG] solve : 32 ms
noneompGKOBiCGStab:  Solving for p, Initial residual = 0.0127527, Final residual = 8.78148e-05, No Iterations 49
linear solve p 45
time step continuity errors : sum local = 9.79269e-08, global = -2.94076e-21, cumulative = -1.18089e-19
ExecutionTime = 3272.66 s  ClockTime = 109 s

Time = 0.008

Courant Number mean: 0.0324765 max: 0.201172
nonePBiCGStab:  Solving for Ux, Initial residual = 0.0165265, Final residual = 4.99058e-06, No Iterations 5
nonePBiCGStab:  Solving for Uy, Initial residual = 0.0246269, Final residual = 6.45446e-06, No Iterations 5
nonePBiCGStab:  Solving for Uz, Initial residual = 0.0481843, Final residual = 3.23868e-05, No Iterations 5
linear solve U 5
[OGL LOG] init_host_sparsity_pattern : 4 ms
[OGL LOG] matrix not stored update host matrix
[OGL LOG] update_host_mtx : 2 ms
[OGL LOG] matrix is not yet sorted, sorting host matrix
[OGL LOG] sort_host_mtx_sparsity_pattern : 3 ms
[OGL LOG] sort_host_mtx : 1 ms
[OGL LOG] init_preconditioner : 0 ms
[OGL LOG] solve : 33 ms
noneompGKOBiCGStab:  Solving for p, Initial residual = 0.015112, Final residual = 7.05769e-05, No Iterations 52
linear solve p 46
time step continuity errors : sum local = 6.17521e-08, global = -1.52822e-22, cumulative = -1.18242e-19
[OGL LOG] init_host_sparsity_pattern : 4 ms
[OGL LOG] matrix not stored update host matrix
[OGL LOG] update_host_mtx : 2 ms
[OGL LOG] matrix is not yet sorted, sorting host matrix
[OGL LOG] sort_host_mtx_sparsity_pattern : 3 ms
[OGL LOG] sort_host_mtx : 1 ms
[OGL LOG] init_preconditioner : 0 ms
[OGL LOG] solve : 30 ms
noneompGKOBiCGStab:  Solving for p, Initial residual = 0.0102997, Final residual = 9.78148e-05, No Iterations 47
linear solve p 43
time step continuity errors : sum local = 8.87729e-08, global = -1.87333e-21, cumulative = -1.20115e-19
ExecutionTime = 3275.04 s  ClockTime = 109 s

Time = 0.009

Courant Number mean: 0.0338806 max: 0.203668
nonePBiCGStab:  Solving for Ux, Initial residual = 0.0137843, Final residual = 3.20314e-06, No Iterations 5
nonePBiCGStab:  Solving for Uy, Initial residual = 0.0207001, Final residual = 4.28199e-06, No Iterations 5
nonePBiCGStab:  Solving for Uz, Initial residual = 0.040888, Final residual = 2.11169e-05, No Iterations 5
linear solve U 5
[OGL LOG] init_host_sparsity_pattern : 4 ms
[OGL LOG] matrix not stored update host matrix
[OGL LOG] update_host_mtx : 2 ms
[OGL LOG] matrix is not yet sorted, sorting host matrix
[OGL LOG] sort_host_mtx_sparsity_pattern : 3 ms
[OGL LOG] sort_host_mtx : 1 ms
[OGL LOG] init_preconditioner : 0 ms
[OGL LOG] solve : 34 ms
noneompGKOBiCGStab:  Solving for p, Initial residual = 0.0123946, Final residual = 6.20752e-05, No Iterations 52
linear solve p 47
time step continuity errors : sum local = 5.72305e-08, global = -1.98955e-20, cumulative = -1.4001e-19
[OGL LOG] init_host_sparsity_pattern : 4 ms
[OGL LOG] matrix not stored update host matrix
[OGL LOG] update_host_mtx : 2 ms
[OGL LOG] matrix is not yet sorted, sorting host matrix
[OGL LOG] sort_host_mtx_sparsity_pattern : 3 ms
[OGL LOG] sort_host_mtx : 1 ms
[OGL LOG] init_preconditioner : 0 ms
[OGL LOG] solve : 31 ms
noneompGKOBiCGStab:  Solving for p, Initial residual = 0.00848694, Final residual = 9.26412e-05, No Iterations 48
linear solve p 44
time step continuity errors : sum local = 9.80413e-08, global = -6.63882e-21, cumulative = -1.46649e-19
ExecutionTime = 3277.51 s  ClockTime = 110 s

Time = 0.01

Courant Number mean: 0.0350919 max: 0.205643
nonePBiCGStab:  Solving for Ux, Initial residual = 0.0117254, Final residual = 2.16933e-06, No Iterations 5
nonePBiCGStab:  Solving for Uy, Initial residual = 0.017716, Final residual = 3.05764e-06, No Iterations 5
nonePBiCGStab:  Solving for Uz, Initial residual = 0.0354747, Final residual = 1.56071e-05, No Iterations 5
linear solve U 6
[OGL LOG] init_host_sparsity_pattern : 4 ms
[OGL LOG] matrix not stored update host matrix
[OGL LOG] update_host_mtx : 2 ms
[OGL LOG] matrix is not yet sorted, sorting host matrix
[OGL LOG] sort_host_mtx_sparsity_pattern : 3 ms
[OGL LOG] sort_host_mtx : 1 ms
[OGL LOG] init_preconditioner : 0 ms
[OGL LOG] solve : 33 ms
noneompGKOBiCGStab:  Solving for p, Initial residual = 0.0105488, Final residual = 9.36972e-05, No Iterations 51
linear solve p 46
time step continuity errors : sum local = 1.08749e-07, global = -1.44039e-20, cumulative = -1.61053e-19
[OGL LOG] init_host_sparsity_pattern : 4 ms
[OGL LOG] matrix not stored update host matrix
[OGL LOG] update_host_mtx : 2 ms
[OGL LOG] matrix is not yet sorted, sorting host matrix
[OGL LOG] sort_host_mtx_sparsity_pattern : 3 ms
[OGL LOG] sort_host_mtx : 1 ms
[OGL LOG] init_preconditioner : 0 ms
[OGL LOG] solve : 30 ms
noneompGKOBiCGStab:  Solving for p, Initial residual = 0.0073151, Final residual = 9.13382e-05, No Iterations 47
linear solve p 44
time step continuity errors : sum local = 8.15356e-08, global = -7.1744e-21, cumulative = -1.68228e-19
ExecutionTime = 3279.92 s  ClockTime = 110 s

End

