/*---------------------------------------------------------------------------*\
  =========                 |
  \\      /  F ield         | OpenFOAM: The Open Source CFD Toolbox
   \\    /   O peration     | Website:  https://openfoam.org
    \\  /    A nd           | Version:  8
     \\/     M anipulation  |
\*---------------------------------------------------------------------------*/
Build  : 8-14d69e1ee166
Exec   : icoFoam
Date   : Jul 28 2021
Time   : 18:19:09
Host   : "guyot.icl.utk.edu"
PID    : 252004
I/O    : uncollated
Case   : /home/greole/code/OBR/lidDrivenCavity3D/Variation_mesh/10/Variation_matrix_solver/BiCGStab_DIC_Serial/base
nProcs : 1
sigFpe : Enabling floating point exception trapping (FOAM_SIGFPE).
fileModificationChecking : Monitoring run-time modified files using timeStampMaster (fileModificationSkew 10)
allowSystemOperations : Allowing user-supplied system call operations

// * * * * * * * * * * * * * * * * * * * * * * * * * * * * * * * * * * * * * //
Create time

Create mesh for time = 0

Reading transportProperties

Reading field p

Reading field U

Reading/calculating face flux field phi


Starting time loop

Time = 0.001

Courant Number mean: 0 max: 0
DILUPBiCGStab:  Solving for Ux, Initial residual = 1, Final residual = 8.04173e-19, No Iterations 5
DILUPBiCGStab:  Solving for Uy:  solution singularity
DILUPBiCGStab:  Solving for Uz:  solution singularity
linear solve U 495
DICPBiCGStab:  Solving for p, Initial residual = 1, Final residual = 4.24195e-05, No Iterations 17
linear solve p 595
time step continuity errors : sum local = 1.84928e-08, global = -4.571e-21, cumulative = -4.571e-21
DICPBiCGStab:  Solving for p, Initial residual = 0.190391, Final residual = 8.88429e-05, No Iterations 15
linear solve p 508
time step continuity errors : sum local = 8.8158e-08, global = 1.81441e-21, cumulative = -2.75659e-21
ExecutionTime = 0.08 s  ClockTime = 0 s

Time = 0.002

Courant Number mean: 0.00276864 max: 0.0123848
DILUPBiCGStab:  Solving for Ux, Initial residual = 0.271614, Final residual = 6.92638e-20, No Iterations 5
DILUPBiCGStab:  Solving for Uy, Initial residual = 0.305268, Final residual = 9.73246e-20, No Iterations 5
DILUPBiCGStab:  Solving for Uz, Initial residual = 0.472071, Final residual = 1.64575e-19, No Iterations 5
linear solve U 631
DICPBiCGStab:  Solving for p, Initial residual = 0.124931, Final residual = 3.68717e-05, No Iterations 14
linear solve p 471
time step continuity errors : sum local = 3.11822e-08, global = 7.43801e-21, cumulative = 4.68142e-21
DICPBiCGStab:  Solving for p, Initial residual = 0.0212661, Final residual = 8.84543e-05, No Iterations 6
linear solve p 221
time step continuity errors : sum local = 1.18916e-07, global = 1.23457e-21, cumulative = 5.91599e-21
ExecutionTime = 0.09 s  ClockTime = 0 s

Time = 0.003

Courant Number mean: 0.00491747 max: 0.0221391
DILUPBiCGStab:  Solving for Ux, Initial residual = 0.137887, Final residual = 3.70047e-20, No Iterations 5
DILUPBiCGStab:  Solving for Uy, Initial residual = 0.165993, Final residual = 4.87385e-20, No Iterations 5
DILUPBiCGStab:  Solving for Uz, Initial residual = 0.289675, Final residual = 1.09262e-19, No Iterations 5
linear solve U 626
DICPBiCGStab:  Solving for p, Initial residual = 0.0635343, Final residual = 9.97451e-05, No Iterations 11
linear solve p 374
time step continuity errors : sum local = 1.39378e-07, global = 3.88775e-22, cumulative = 6.30476e-21
DICPBiCGStab:  Solving for p, Initial residual = 0.0132669, Final residual = 4.48426e-05, No Iterations 6
linear solve p 215
time step continuity errors : sum local = 6.21172e-08, global = -2.09194e-21, cumulative = 4.21282e-21
ExecutionTime = 0.09 s  ClockTime = 0 s

Time = 0.004

Courant Number mean: 0.006604 max: 0.0298429
DILUPBiCGStab:  Solving for Ux, Initial residual = 0.0844144, Final residual = 2.3578e-20, No Iterations 5
DILUPBiCGStab:  Solving for Uy, Initial residual = 0.107777, Final residual = 2.84368e-20, No Iterations 5
DILUPBiCGStab:  Solving for Uz, Initial residual = 0.19573, Final residual = 7.33203e-20, No Iterations 5
linear solve U 624
DICPBiCGStab:  Solving for p, Initial residual = 0.0390518, Final residual = 9.16389e-05, No Iterations 12
linear solve p 422
time step continuity errors : sum local = 1.4029e-07, global = -8.94513e-21, cumulative = -4.73231e-21
DICPBiCGStab:  Solving for p, Initial residual = 0.00957554, Final residual = 3.54867e-05, No Iterations 6
linear solve p 215
time step continuity errors : sum local = 5.06099e-08, global = -5.26128e-21, cumulative = -9.99359e-21
ExecutionTime = 0.09 s  ClockTime = 0 s

Time = 0.005

Courant Number mean: 0.00794445 max: 0.0359757
DILUPBiCGStab:  Solving for Ux, Initial residual = 0.0590354, Final residual = 1.62594e-20, No Iterations 5
DILUPBiCGStab:  Solving for Uy, Initial residual = 0.0764486, Final residual = 1.78304e-20, No Iterations 5
DILUPBiCGStab:  Solving for Uz, Initial residual = 0.150336, Final residual = 6.40001e-20, No Iterations 5
linear solve U 624
DICPBiCGStab:  Solving for p, Initial residual = 0.0280953, Final residual = 7.48637e-05, No Iterations 12
linear solve p 428
time step continuity errors : sum local = 1.10267e-07, global = -2.8685e-20, cumulative = -3.86786e-20
DICPBiCGStab:  Solving for p, Initial residual = 0.00735129, Final residual = 9.27558e-05, No Iterations 5
linear solve p 199
time step continuity errors : sum local = 9.5394e-08, global = 3.27667e-20, cumulative = -5.91187e-21
ExecutionTime = 0.09 s  ClockTime = 0 s

Time = 0.006

Courant Number mean: 0.00902417 max: 0.0408976
DILUPBiCGStab:  Solving for Ux, Initial residual = 0.0444092, Final residual = 1.17353e-20, No Iterations 5
DILUPBiCGStab:  Solving for Uy, Initial residual = 0.0572805, Final residual = 1.17262e-20, No Iterations 5
DILUPBiCGStab:  Solving for Uz, Initial residual = 0.122381, Final residual = 5.16005e-20, No Iterations 5
linear solve U 690
DICPBiCGStab:  Solving for p, Initial residual = 0.022836, Final residual = 9.08043e-05, No Iterations 11
linear solve p 378
time step continuity errors : sum local = 1.43369e-07, global = -2.94642e-21, cumulative = -8.85828e-21
DICPBiCGStab:  Solving for p, Initial residual = 0.00582416, Final residual = 8.91806e-05, No Iterations 5
linear solve p 199
time step continuity errors : sum local = 1.20653e-07, global = -2.72854e-20, cumulative = -3.61437e-20
ExecutionTime = 0.09 s  ClockTime = 0 s

Time = 0.007

Courant Number mean: 0.00990702 max: 0.0448801
DILUPBiCGStab:  Solving for Ux, Initial residual = 0.0349038, Final residual = 8.75914e-21, No Iterations 5
DILUPBiCGStab:  Solving for Uy, Initial residual = 0.0445967, Final residual = 8.05694e-21, No Iterations 5
DILUPBiCGStab:  Solving for Uz, Initial residual = 0.102317, Final residual = 4.20341e-20, No Iterations 5
linear solve U 630
DICPBiCGStab:  Solving for p, Initial residual = 0.0194783, Final residual = 9.51434e-05, No Iterations 11
linear solve p 386
time step continuity errors : sum local = 1.53981e-07, global = 1.14316e-21, cumulative = -3.50005e-20
DICPBiCGStab:  Solving for p, Initial residual = 0.00474149, Final residual = 9.58891e-05, No Iterations 5
linear solve p 184
time step continuity errors : sum local = 1.33541e-07, global = -1.05035e-20, cumulative = -4.5504e-20
ExecutionTime = 0.09 s  ClockTime = 0 s

Time = 0.008

Courant Number mean: 0.0106745 max: 0.0481313
DILUPBiCGStab:  Solving for Ux, Initial residual = 0.0282046, Final residual = 6.85003e-21, No Iterations 5
DILUPBiCGStab:  Solving for Uy, Initial residual = 0.0357646, Final residual = 5.92531e-21, No Iterations 5
DILUPBiCGStab:  Solving for Uz, Initial residual = 0.0863669, Final residual = 3.56919e-20, No Iterations 5
linear solve U 636
DICPBiCGStab:  Solving for p, Initial residual = 0.0167734, Final residual = 8.74678e-05, No Iterations 11
linear solve p 371
time step continuity errors : sum local = 1.3829e-07, global = 5.10404e-20, cumulative = 5.53631e-21
DICPBiCGStab:  Solving for p, Initial residual = 0.00387143, Final residual = 8.0314e-05, No Iterations 5
linear solve p 189
time step continuity errors : sum local = 1.15195e-07, global = 8.75157e-22, cumulative = 6.41147e-21
ExecutionTime = 0.1 s  ClockTime = 0 s

Time = 0.009

Courant Number mean: 0.0113439 max: 0.0508022
DILUPBiCGStab:  Solving for Ux, Initial residual = 0.0231969, Final residual = 5.5778e-21, No Iterations 5
DILUPBiCGStab:  Solving for Uy, Initial residual = 0.0293702, Final residual = 4.75218e-21, No Iterations 5
DILUPBiCGStab:  Solving for Uz, Initial residual = 0.0733869, Final residual = 2.93354e-20, No Iterations 5
linear solve U 624
DICPBiCGStab:  Solving for p, Initial residual = 0.0150647, Final residual = 9.68075e-05, No Iterations 6
linear solve p 231
time step continuity errors : sum local = 1.72649e-07, global = 1.23945e-20, cumulative = 1.88059e-20
DICPBiCGStab:  Solving for p, Initial residual = 0.00334978, Final residual = 9.31477e-05, No Iterations 5
linear solve p 186
time step continuity errors : sum local = 1.57855e-07, global = 3.74382e-21, cumulative = 2.25498e-20
ExecutionTime = 0.1 s  ClockTime = 0 s

Time = 0.01

Courant Number mean: 0.0119442 max: 0.053017
DILUPBiCGStab:  Solving for Ux, Initial residual = 0.0193012, Final residual = 4.68998e-21, No Iterations 5
DILUPBiCGStab:  Solving for Uy, Initial residual = 0.0245467, Final residual = 4.13236e-21, No Iterations 5
DILUPBiCGStab:  Solving for Uz, Initial residual = 0.063829, Final residual = 2.57413e-20, No Iterations 5
linear solve U 625
DICPBiCGStab:  Solving for p, Initial residual = 0.0134655, Final residual = 9.14793e-05, No Iterations 11
linear solve p 378
time step continuity errors : sum local = 1.39388e-07, global = -2.74955e-21, cumulative = 1.98002e-20
DICPBiCGStab:  Solving for p, Initial residual = 0.00272976, Final residual = 6.08684e-05, No Iterations 5
linear solve p 184
time step continuity errors : sum local = 9.55223e-08, global = -5.69663e-20, cumulative = -3.71661e-20
ExecutionTime = 0.1 s  ClockTime = 0 s

End

