/*---------------------------------------------------------------------------*\
  =========                 |
  \\      /  F ield         | OpenFOAM: The Open Source CFD Toolbox
   \\    /   O peration     | Website:  https://openfoam.org
    \\  /    A nd           | Version:  8
     \\/     M anipulation  |
\*---------------------------------------------------------------------------*/
Build  : 8-40a5a48f630f
Exec   : icoFoam
Date   : Jul 28 2021
Time   : 12:43:47
Host   : "uc2n446.localdomain"
PID    : 413917
I/O    : uncollated
Case   : /pfs/data5/home/kit/scc/nq7776/code/OBR/lidDrivenCavity3D/Variation_mesh/95/Variation_matrix_solver/BiCGStab_NoPrecond_OMP/base
nProcs : 1
sigFpe : Enabling floating point exception trapping (FOAM_SIGFPE).
fileModificationChecking : Monitoring run-time modified files using timeStampMaster (fileModificationSkew 10)
allowSystemOperations : Allowing user-supplied system call operations

// * * * * * * * * * * * * * * * * * * * * * * * * * * * * * * * * * * * * * //
Create time

Create mesh for time = 0

Reading transportProperties

Reading field p

Reading field U

Reading/calculating face flux field phi


Starting time loop

Time = 0.001

Courant Number mean: 0 max: 0
nonePBiCGStab:  Solving for Ux, Initial residual = 1, Final residual = 0.078913, No Iterations 5
nonePBiCGStab:  Solving for Uy, Initial residual = 0, Final residual = 0, No Iterations 0
nonePBiCGStab:  Solving for Uz, Initial residual = 0, Final residual = 0, No Iterations 0
linear solve U 225
[OGL LOG] init_host_sparsity_pattern : 244 ms
[OGL LOG] matrix not stored update host matrix
[OGL LOG] update_host_mtx : 126 ms
[OGL LOG] matrix is not yet sorted, compute sorting idxs
[OGL LOG] compute_sort : 7675 ms
[OGL LOG] matrix is not yet sorted, sorting host matrix
[OGL LOG] sort_host_mtx_sparsity_pattern : 176 ms
[OGL LOG] sort_host_mtx : 104 ms
[OGL LOG] init_preconditioner : 0 ms
[OGL LOG] solve : 10477 ms
noneompGKOBiCGStab:  Solving for p, Initial residual = 1, Final residual = 9.49718e-05, No Iterations 605
linear solve p 19012
time step continuity errors : sum local = 3.00421e-07, global = 6.37456e-21, cumulative = 6.37456e-21
[OGL LOG] init_host_sparsity_pattern : 238 ms
[OGL LOG] matrix not stored update host matrix
[OGL LOG] update_host_mtx : 126 ms
[OGL LOG] matrix is not yet sorted, sorting host matrix
[OGL LOG] sort_host_mtx_sparsity_pattern : 193 ms
[OGL LOG] sort_host_mtx : 105 ms
[OGL LOG] init_preconditioner : 0 ms
[OGL LOG] solve : 10632 ms
noneompGKOBiCGStab:  Solving for p, Initial residual = 0.705017, Final residual = 9.5581e-05, No Iterations 602
linear solve p 11462
time step continuity errors : sum local = 6.01792e-07, global = 2.28927e-21, cumulative = 8.66384e-21
ExecutionTime = 433.93 s  ClockTime = 34 s

Time = 0.002

Courant Number mean: 0.0412075 max: 0.745796
nonePBiCGStab:  Solving for Ux, Initial residual = 0.139491, Final residual = 0.0379667, No Iterations 5
nonePBiCGStab:  Solving for Uy, Initial residual = 0.440017, Final residual = 0.118257, No Iterations 5
nonePBiCGStab:  Solving for Uz, Initial residual = 0.97795, Final residual = 0.311465, No Iterations 5
linear solve U 445
[OGL LOG] init_host_sparsity_pattern : 230 ms
[OGL LOG] matrix not stored update host matrix
[OGL LOG] update_host_mtx : 126 ms
[OGL LOG] matrix is not yet sorted, sorting host matrix
[OGL LOG] sort_host_mtx_sparsity_pattern : 182 ms
[OGL LOG] sort_host_mtx : 104 ms
[OGL LOG] init_preconditioner : 0 ms
[OGL LOG] solve : 10892 ms
noneompGKOBiCGStab:  Solving for p, Initial residual = 0.777105, Final residual = 8.10156e-05, No Iterations 599
linear solve p 11676
time step continuity errors : sum local = 8.16421e-06, global = 1.37482e-20, cumulative = 2.24121e-20
[OGL LOG] init_host_sparsity_pattern : 231 ms
[OGL LOG] matrix not stored update host matrix
[OGL LOG] update_host_mtx : 126 ms
[OGL LOG] matrix is not yet sorted, sorting host matrix
[OGL LOG] sort_host_mtx_sparsity_pattern : 182 ms
[OGL LOG] sort_host_mtx : 104 ms
[OGL LOG] init_preconditioner : 0 ms
[OGL LOG] solve : 3917 ms
noneompGKOBiCGStab:  Solving for p, Initial residual = 0.701296, Final residual = 9.19781e-05, No Iterations 238
linear solve p 4700
time step continuity errors : sum local = 1.25805e-07, global = 1.58858e-21, cumulative = 2.40006e-20
ExecutionTime = 732.01 s  ClockTime = 52 s

Time = 0.003

Courant Number mean: 0.0654386 max: 0.849921
nonePBiCGStab:  Solving for Ux, Initial residual = 0.0601177, Final residual = 0.0139637, No Iterations 5
nonePBiCGStab:  Solving for Uy, Initial residual = 0.199528, Final residual = 0.0554217, No Iterations 5
nonePBiCGStab:  Solving for Uz, Initial residual = 0.712167, Final residual = 0.244564, No Iterations 5
linear solve U 447
[OGL LOG] init_host_sparsity_pattern : 228 ms
[OGL LOG] matrix not stored update host matrix
[OGL LOG] update_host_mtx : 126 ms
[OGL LOG] matrix is not yet sorted, sorting host matrix
[OGL LOG] sort_host_mtx_sparsity_pattern : 177 ms
[OGL LOG] sort_host_mtx : 105 ms
[OGL LOG] init_preconditioner : 0 ms
[OGL LOG] solve : 10298 ms
noneompGKOBiCGStab:  Solving for p, Initial residual = 0.777382, Final residual = 9.26073e-05, No Iterations 565
linear solve p 11062
time step continuity errors : sum local = 1.68966e-07, global = 2.84737e-21, cumulative = 2.6848e-20
[OGL LOG] init_host_sparsity_pattern : 226 ms
[OGL LOG] matrix not stored update host matrix
[OGL LOG] update_host_mtx : 126 ms
[OGL LOG] matrix is not yet sorted, sorting host matrix
[OGL LOG] sort_host_mtx_sparsity_pattern : 182 ms
[OGL LOG] sort_host_mtx : 105 ms
[OGL LOG] init_preconditioner : 0 ms
[OGL LOG] solve : 9514 ms
noneompGKOBiCGStab:  Solving for p, Initial residual = 0.704655, Final residual = 7.93368e-05, No Iterations 583
linear solve p 10294
time step continuity errors : sum local = 4.50667e-06, global = 3.9556e-22, cumulative = 2.72436e-20
ExecutionTime = 1129.73 s  ClockTime = 74 s

Time = 0.004

Courant Number mean: 0.0788572 max: 0.864848
nonePBiCGStab:  Solving for Ux, Initial residual = 0.0380499, Final residual = 0.0100581, No Iterations 5
nonePBiCGStab:  Solving for Uy, Initial residual = 0.1389, Final residual = 0.0424455, No Iterations 5
nonePBiCGStab:  Solving for Uz, Initial residual = 0.534556, Final residual = 0.17655, No Iterations 5
linear solve U 445
[OGL LOG] init_host_sparsity_pattern : 229 ms
[OGL LOG] matrix not stored update host matrix
[OGL LOG] update_host_mtx : 126 ms
[OGL LOG] matrix is not yet sorted, sorting host matrix
[OGL LOG] sort_host_mtx_sparsity_pattern : 177 ms
[OGL LOG] sort_host_mtx : 105 ms
[OGL LOG] init_preconditioner : 0 ms
[OGL LOG] solve : 9239 ms
noneompGKOBiCGStab:  Solving for p, Initial residual = 0.691795, Final residual = 9.42293e-05, No Iterations 529
linear solve p 10008
time step continuity errors : sum local = 1.08901e-07, global = 9.50626e-21, cumulative = 3.67498e-20
[OGL LOG] init_host_sparsity_pattern : 236 ms
[OGL LOG] matrix not stored update host matrix
[OGL LOG] update_host_mtx : 126 ms
[OGL LOG] matrix is not yet sorted, sorting host matrix
[OGL LOG] sort_host_mtx_sparsity_pattern : 182 ms
[OGL LOG] sort_host_mtx : 104 ms
[OGL LOG] init_preconditioner : 0 ms
[OGL LOG] solve : 9572 ms
noneompGKOBiCGStab:  Solving for p, Initial residual = 0.595666, Final residual = 9.86041e-05, No Iterations 515
linear solve p 10357
time step continuity errors : sum local = 1.1492e-07, global = 1.85372e-21, cumulative = 3.86036e-20
ExecutionTime = 1507.47 s  ClockTime = 95 s

Time = 0.005

Courant Number mean: 0.0894681 max: 0.877477
nonePBiCGStab:  Solving for Ux, Initial residual = 0.0291307, Final residual = 0.00768293, No Iterations 5
nonePBiCGStab:  Solving for Uy, Initial residual = 0.0923475, Final residual = 0.0308113, No Iterations 5
nonePBiCGStab:  Solving for Uz, Initial residual = 0.393942, Final residual = 0.134967, No Iterations 5
linear solve U 458
[OGL LOG] init_host_sparsity_pattern : 232 ms
[OGL LOG] matrix not stored update host matrix
[OGL LOG] update_host_mtx : 127 ms
[OGL LOG] matrix is not yet sorted, sorting host matrix
[OGL LOG] sort_host_mtx_sparsity_pattern : 178 ms
[OGL LOG] sort_host_mtx : 105 ms
[OGL LOG] init_preconditioner : 0 ms
[OGL LOG] solve : 9379 ms
noneompGKOBiCGStab:  Solving for p, Initial residual = 0.723997, Final residual = 7.29782e-05, No Iterations 518
linear solve p 10146
time step continuity errors : sum local = 3.71887e-06, global = -3.66911e-21, cumulative = 3.49344e-20
[OGL LOG] init_host_sparsity_pattern : 236 ms
[OGL LOG] matrix not stored update host matrix
[OGL LOG] update_host_mtx : 126 ms
[OGL LOG] matrix is not yet sorted, sorting host matrix
[OGL LOG] sort_host_mtx_sparsity_pattern : 177 ms
[OGL LOG] sort_host_mtx : 105 ms
[OGL LOG] init_preconditioner : 0 ms
[OGL LOG] solve : 9589 ms
noneompGKOBiCGStab:  Solving for p, Initial residual = 0.640359, Final residual = 4.17284e-05, No Iterations 545
linear solve p 10365
time step continuity errors : sum local = 5.13215e-08, global = 4.69947e-22, cumulative = 3.54044e-20
ExecutionTime = 1888.33 s  ClockTime = 117 s

Time = 0.006

Courant Number mean: 0.0977428 max: 0.884302
nonePBiCGStab:  Solving for Ux, Initial residual = 0.0229563, Final residual = 0.00722791, No Iterations 5
nonePBiCGStab:  Solving for Uy, Initial residual = 0.0725368, Final residual = 0.026292, No Iterations 5
nonePBiCGStab:  Solving for Uz, Initial residual = 0.283146, Final residual = 0.0827255, No Iterations 5
linear solve U 456
[OGL LOG] init_host_sparsity_pattern : 231 ms
[OGL LOG] matrix not stored update host matrix
[OGL LOG] update_host_mtx : 127 ms
[OGL LOG] matrix is not yet sorted, sorting host matrix
[OGL LOG] sort_host_mtx_sparsity_pattern : 183 ms
[OGL LOG] sort_host_mtx : 105 ms
[OGL LOG] init_preconditioner : 0 ms
[OGL LOG] solve : 9660 ms
noneompGKOBiCGStab:  Solving for p, Initial residual = 0.664842, Final residual = 6.63039e-05, No Iterations 534
linear solve p 10442
time step continuity errors : sum local = 5.67122e-08, global = 1.2772e-20, cumulative = 4.81764e-20
[OGL LOG] init_host_sparsity_pattern : 235 ms
[OGL LOG] matrix not stored update host matrix
[OGL LOG] update_host_mtx : 126 ms
[OGL LOG] matrix is not yet sorted, sorting host matrix
[OGL LOG] sort_host_mtx_sparsity_pattern : 177 ms
[OGL LOG] sort_host_mtx : 105 ms
[OGL LOG] init_preconditioner : 0 ms
[OGL LOG] solve : 10338 ms
noneompGKOBiCGStab:  Solving for p, Initial residual = 0.56876, Final residual = 9.57116e-05, No Iterations 559
linear solve p 11106
time step continuity errors : sum local = 1.02199e-07, global = 1.2906e-20, cumulative = 6.10824e-20
ExecutionTime = 2289.73 s  ClockTime = 139 s

Time = 0.007

Courant Number mean: 0.10446 max: 0.889449
nonePBiCGStab:  Solving for Ux, Initial residual = 0.0196361, Final residual = 0.00525794, No Iterations 5
nonePBiCGStab:  Solving for Uy, Initial residual = 0.0576656, Final residual = 0.0201523, No Iterations 5
nonePBiCGStab:  Solving for Uz, Initial residual = 0.220612, Final residual = 0.0700937, No Iterations 5
linear solve U 457
[OGL LOG] init_host_sparsity_pattern : 231 ms
[OGL LOG] matrix not stored update host matrix
[OGL LOG] update_host_mtx : 126 ms
[OGL LOG] matrix is not yet sorted, sorting host matrix
[OGL LOG] sort_host_mtx_sparsity_pattern : 177 ms
[OGL LOG] sort_host_mtx : 105 ms
[OGL LOG] init_preconditioner : 0 ms
[OGL LOG] solve : 7696 ms
noneompGKOBiCGStab:  Solving for p, Initial residual = 0.699047, Final residual = 8.59803e-05, No Iterations 441
linear solve p 8466
time step continuity errors : sum local = 1.11571e-07, global = -1.89837e-20, cumulative = 4.20988e-20
[OGL LOG] init_host_sparsity_pattern : 235 ms
[OGL LOG] matrix not stored update host matrix
[OGL LOG] update_host_mtx : 127 ms
[OGL LOG] matrix is not yet sorted, sorting host matrix
[OGL LOG] sort_host_mtx_sparsity_pattern : 183 ms
[OGL LOG] sort_host_mtx : 104 ms
[OGL LOG] init_preconditioner : 0 ms
[OGL LOG] solve : 8149 ms
noneompGKOBiCGStab:  Solving for p, Initial residual = 0.604115, Final residual = 9.91008e-05, No Iterations 441
linear solve p 8934
time step continuity errors : sum local = 2.48646e-07, global = -7.72433e-21, cumulative = 3.43744e-20
ExecutionTime = 2608.32 s  ClockTime = 158 s

Time = 0.008

Courant Number mean: 0.110418 max: 0.893246
nonePBiCGStab:  Solving for Ux, Initial residual = 0.0169402, Final residual = 0.00479843, No Iterations 5
nonePBiCGStab:  Solving for Uy, Initial residual = 0.0491622, Final residual = 0.0166502, No Iterations 5
nonePBiCGStab:  Solving for Uz, Initial residual = 0.227422, Final residual = 0.0802906, No Iterations 5
linear solve U 455
[OGL LOG] init_host_sparsity_pattern : 231 ms
[OGL LOG] matrix not stored update host matrix
[OGL LOG] update_host_mtx : 127 ms
[OGL LOG] matrix is not yet sorted, sorting host matrix
[OGL LOG] sort_host_mtx_sparsity_pattern : 177 ms
[OGL LOG] sort_host_mtx : 105 ms
[OGL LOG] init_preconditioner : 0 ms
[OGL LOG] solve : 9046 ms
noneompGKOBiCGStab:  Solving for p, Initial residual = 0.647026, Final residual = 9.43371e-05, No Iterations 501
linear solve p 9812
time step continuity errors : sum local = 1.18083e-07, global = -1.01901e-20, cumulative = 2.41844e-20
[OGL LOG] init_host_sparsity_pattern : 235 ms
[OGL LOG] matrix not stored update host matrix
[OGL LOG] update_host_mtx : 126 ms
[OGL LOG] matrix is not yet sorted, sorting host matrix
[OGL LOG] sort_host_mtx_sparsity_pattern : 177 ms
[OGL LOG] sort_host_mtx : 105 ms
[OGL LOG] init_preconditioner : 0 ms
[OGL LOG] solve : 10654 ms
noneompGKOBiCGStab:  Solving for p, Initial residual = 0.550019, Final residual = 9.15797e-05, No Iterations 577
linear solve p 11425
time step continuity errors : sum local = 6.80083e-08, global = -1.16794e-20, cumulative = 1.2505e-20
ExecutionTime = 3003.76 s  ClockTime = 180 s

Time = 0.009

Courant Number mean: 0.115609 max: 0.896322
nonePBiCGStab:  Solving for Ux, Initial residual = 0.0150196, Final residual = 0.00402213, No Iterations 5
nonePBiCGStab:  Solving for Uy, Initial residual = 0.0436838, Final residual = 0.0137907, No Iterations 5
nonePBiCGStab:  Solving for Uz, Initial residual = 0.204795, Final residual = 0.0641442, No Iterations 5
linear solve U 458
[OGL LOG] init_host_sparsity_pattern : 231 ms
[OGL LOG] matrix not stored update host matrix
[OGL LOG] update_host_mtx : 127 ms
[OGL LOG] matrix is not yet sorted, sorting host matrix
[OGL LOG] sort_host_mtx_sparsity_pattern : 183 ms
[OGL LOG] sort_host_mtx : 105 ms
[OGL LOG] init_preconditioner : 0 ms
[OGL LOG] solve : 8745 ms
noneompGKOBiCGStab:  Solving for p, Initial residual = 0.683502, Final residual = 9.97814e-05, No Iterations 545
linear solve p 9531
time step continuity errors : sum local = 7.10856e-08, global = 5.6278e-21, cumulative = 1.81328e-20
[OGL LOG] init_host_sparsity_pattern : 235 ms
[OGL LOG] matrix not stored update host matrix
[OGL LOG] update_host_mtx : 127 ms
[OGL LOG] matrix is not yet sorted, sorting host matrix
[OGL LOG] sort_host_mtx_sparsity_pattern : 177 ms
[OGL LOG] sort_host_mtx : 105 ms
[OGL LOG] init_preconditioner : 0 ms
[OGL LOG] solve : 9453 ms
noneompGKOBiCGStab:  Solving for p, Initial residual = 0.583848, Final residual = 9.41303e-05, No Iterations 512
linear solve p 10222
time step continuity errors : sum local = 6.62715e-08, global = 1.78785e-21, cumulative = 1.99207e-20
ExecutionTime = 3369.32 s  ClockTime = 201 s

Time = 0.01

Courant Number mean: 0.120242 max: 0.898922
nonePBiCGStab:  Solving for Ux, Initial residual = 0.0133754, Final residual = 0.00362958, No Iterations 5
nonePBiCGStab:  Solving for Uy, Initial residual = 0.0376343, Final residual = 0.0107371, No Iterations 5
nonePBiCGStab:  Solving for Uz, Initial residual = 0.148446, Final residual = 0.0434236, No Iterations 5
linear solve U 455
[OGL LOG] init_host_sparsity_pattern : 231 ms
[OGL LOG] matrix not stored update host matrix
[OGL LOG] update_host_mtx : 126 ms
[OGL LOG] matrix is not yet sorted, sorting host matrix
[OGL LOG] sort_host_mtx_sparsity_pattern : 177 ms
[OGL LOG] sort_host_mtx : 105 ms
[OGL LOG] init_preconditioner : 0 ms
[OGL LOG] solve : 8903 ms
noneompGKOBiCGStab:  Solving for p, Initial residual = 0.637727, Final residual = 8.34479e-05, No Iterations 492
linear solve p 9670
time step continuity errors : sum local = 7.27052e-08, global = 5.23358e-21, cumulative = 2.51542e-20
[OGL LOG] init_host_sparsity_pattern : 235 ms
[OGL LOG] matrix not stored update host matrix
[OGL LOG] update_host_mtx : 126 ms
[OGL LOG] matrix is not yet sorted, sorting host matrix
[OGL LOG] sort_host_mtx_sparsity_pattern : 183 ms
[OGL LOG] sort_host_mtx : 105 ms
[OGL LOG] init_preconditioner : 0 ms
[OGL LOG] solve : 7203 ms
noneompGKOBiCGStab:  Solving for p, Initial residual = 0.542099, Final residual = 9.89785e-05, No Iterations 446
linear solve p 7993
time step continuity errors : sum local = 1.5642e-05, global = 6.39644e-21, cumulative = 3.15507e-20
ExecutionTime = 3693.25 s  ClockTime = 219 s

End

