/*---------------------------------------------------------------------------*\
  =========                 |
  \\      /  F ield         | OpenFOAM: The Open Source CFD Toolbox
   \\    /   O peration     | Website:  https://openfoam.org
    \\  /    A nd           | Version:  8
     \\/     M anipulation  |
\*---------------------------------------------------------------------------*/
Build  : 8-14d69e1ee166
Exec   : icoFoam
Date   : Jul 29 2021
Time   : 03:40:50
Host   : "guyot.icl.utk.edu"
PID    : 68114
I/O    : uncollated
Case   : /home/greole/code/OBR/lidDrivenCavity3D/Variation_mesh/45/Variation_matrix_solver/BiCGStab_DIC_Serial/base
nProcs : 1
sigFpe : Enabling floating point exception trapping (FOAM_SIGFPE).
fileModificationChecking : Monitoring run-time modified files using timeStampMaster (fileModificationSkew 10)
allowSystemOperations : Allowing user-supplied system call operations

// * * * * * * * * * * * * * * * * * * * * * * * * * * * * * * * * * * * * * //
Create time

Create mesh for time = 0

Reading transportProperties

Reading field p

Reading field U

Reading/calculating face flux field phi


Starting time loop

Time = 0.001

Courant Number mean: 0 max: 0
DILUPBiCGStab:  Solving for Ux, Initial residual = 1, Final residual = 4.36896e-05, No Iterations 5
DILUPBiCGStab:  Solving for Uy:  solution singularity
DILUPBiCGStab:  Solving for Uz:  solution singularity
linear solve U 33903
DICPBiCGStab:  Solving for p, Initial residual = 1, Final residual = 7.16759e-05, No Iterations 87
linear solve p 288601
time step continuity errors : sum local = 5.45571e-08, global = -1.19983e-21, cumulative = -1.19983e-21
DICPBiCGStab:  Solving for p, Initial residual = 0.634844, Final residual = 4.2145e-05, No Iterations 79
linear solve p 268907
time step continuity errors : sum local = 5.16847e-08, global = 1.2735e-21, cumulative = 7.36741e-23
ExecutionTime = 1.05 s  ClockTime = 1 s

Time = 0.002

Courant Number mean: 0.0244621 max: 0.283008
DILUPBiCGStab:  Solving for Ux, Initial residual = 0.172537, Final residual = 9.21387e-06, No Iterations 5
DILUPBiCGStab:  Solving for Uy, Initial residual = 0.303037, Final residual = 1.34741e-05, No Iterations 5
DILUPBiCGStab:  Solving for Uz, Initial residual = 0.964459, Final residual = 5.32631e-05, No Iterations 5
linear solve U 64800
DICPBiCGStab:  Solving for p, Initial residual = 0.502667, Final residual = 7.63223e-05, No Iterations 84
linear solve p 285036
time step continuity errors : sum local = 1.0982e-07, global = -8.40679e-21, cumulative = -8.33312e-21
DICPBiCGStab:  Solving for p, Initial residual = 0.411866, Final residual = 6.50446e-05, No Iterations 78
linear solve p 262576
time step continuity errors : sum local = 1.05731e-07, global = 1.0771e-20, cumulative = 2.43789e-21
ExecutionTime = 1.7 s  ClockTime = 1 s

Time = 0.003

Courant Number mean: 0.0369612 max: 0.358123
DILUPBiCGStab:  Solving for Ux, Initial residual = 0.0598272, Final residual = 3.42621e-06, No Iterations 5
DILUPBiCGStab:  Solving for Uy, Initial residual = 0.1015, Final residual = 2.39217e-06, No Iterations 5
DILUPBiCGStab:  Solving for Uz, Initial residual = 0.15346, Final residual = 8.21343e-06, No Iterations 5
linear solve U 64397
DICPBiCGStab:  Solving for p, Initial residual = 0.231203, Final residual = 9.80534e-05, No Iterations 76
linear solve p 258421
time step continuity errors : sum local = 1.18041e-07, global = 1.20737e-20, cumulative = 1.45116e-20
DICPBiCGStab:  Solving for p, Initial residual = 0.186666, Final residual = 9.85577e-05, No Iterations 64
linear solve p 216437
time step continuity errors : sum local = 1.16854e-07, global = 1.39073e-20, cumulative = 2.84189e-20
ExecutionTime = 2.27 s  ClockTime = 2 s

Time = 0.004

Courant Number mean: 0.0442738 max: 0.378748
DILUPBiCGStab:  Solving for Ux, Initial residual = 0.0351218, Final residual = 8.34671e-07, No Iterations 5
DILUPBiCGStab:  Solving for Uy, Initial residual = 0.0652003, Final residual = 1.42798e-06, No Iterations 5
DILUPBiCGStab:  Solving for Uz, Initial residual = 0.134759, Final residual = 6.78507e-06, No Iterations 5
linear solve U 62008
DICPBiCGStab:  Solving for p, Initial residual = 0.113492, Final residual = 9.5694e-05, No Iterations 79
linear solve p 265753
time step continuity errors : sum local = 8.39297e-08, global = -1.15255e-20, cumulative = 1.68934e-20
DICPBiCGStab:  Solving for p, Initial residual = 0.0896581, Final residual = 9.93222e-05, No Iterations 69
linear solve p 233044
time step continuity errors : sum local = 1.1724e-07, global = 1.83557e-22, cumulative = 1.7077e-20
ExecutionTime = 2.88 s  ClockTime = 2 s

Time = 0.005

Courant Number mean: 0.0495683 max: 0.388681
DILUPBiCGStab:  Solving for Ux, Initial residual = 0.0248096, Final residual = 2.77195e-07, No Iterations 5
DILUPBiCGStab:  Solving for Uy, Initial residual = 0.0447334, Final residual = 8.13126e-07, No Iterations 5
DILUPBiCGStab:  Solving for Uz, Initial residual = 0.0896318, Final residual = 3.29978e-06, No Iterations 5
linear solve U 62011
DICPBiCGStab:  Solving for p, Initial residual = 0.0563633, Final residual = 9.09382e-05, No Iterations 77
linear solve p 263178
time step continuity errors : sum local = 6.56055e-08, global = 1.14211e-20, cumulative = 2.84981e-20
DICPBiCGStab:  Solving for p, Initial residual = 0.0465499, Final residual = 9.94923e-05, No Iterations 68
linear solve p 232581
time step continuity errors : sum local = 8.62876e-08, global = 8.27875e-21, cumulative = 3.67769e-20
ExecutionTime = 3.47 s  ClockTime = 3 s

Time = 0.006

Courant Number mean: 0.0537219 max: 0.394652
DILUPBiCGStab:  Solving for Ux, Initial residual = 0.0186882, Final residual = 1.54999e-07, No Iterations 5
DILUPBiCGStab:  Solving for Uy, Initial residual = 0.0345344, Final residual = 3.57553e-07, No Iterations 5
DILUPBiCGStab:  Solving for Uz, Initial residual = 0.0695349, Final residual = 2.17159e-06, No Iterations 5
linear solve U 65202
DICPBiCGStab:  Solving for p, Initial residual = 0.0367428, Final residual = 8.34983e-05, No Iterations 77
linear solve p 258813
time step continuity errors : sum local = 9.52911e-08, global = -1.16266e-20, cumulative = 2.51503e-20
DICPBiCGStab:  Solving for p, Initial residual = 0.0304577, Final residual = 7.76182e-05, No Iterations 30
linear solve p 102185
time step continuity errors : sum local = 4.79751e-08, global = -1.34104e-20, cumulative = 1.17398e-20
ExecutionTime = 3.93 s  ClockTime = 3 s

Time = 0.007

Courant Number mean: 0.0570784 max: 0.398766
DILUPBiCGStab:  Solving for Ux, Initial residual = 0.0149633, Final residual = 1.0286e-07, No Iterations 5
DILUPBiCGStab:  Solving for Uy, Initial residual = 0.0274722, Final residual = 2.32596e-07, No Iterations 5
DILUPBiCGStab:  Solving for Uz, Initial residual = 0.0546169, Final residual = 1.27132e-06, No Iterations 5
linear solve U 65292
DICPBiCGStab:  Solving for p, Initial residual = 0.026685, Final residual = 5.55167e-05, No Iterations 65
linear solve p 222325
time step continuity errors : sum local = 6.05567e-08, global = 1.05684e-20, cumulative = 2.23082e-20
DICPBiCGStab:  Solving for p, Initial residual = 0.0227088, Final residual = 9.55811e-05, No Iterations 29
linear solve p 99581
time step continuity errors : sum local = 7.22705e-08, global = 1.58105e-20, cumulative = 3.81187e-20
ExecutionTime = 4.35 s  ClockTime = 4 s

Time = 0.008

Courant Number mean: 0.0599097 max: 0.40179
DILUPBiCGStab:  Solving for Ux, Initial residual = 0.0122281, Final residual = 9.27854e-08, No Iterations 5
DILUPBiCGStab:  Solving for Uy, Initial residual = 0.0229316, Final residual = 1.57005e-07, No Iterations 5
DILUPBiCGStab:  Solving for Uz, Initial residual = 0.0450388, Final residual = 1.05944e-06, No Iterations 5
linear solve U 65232
DICPBiCGStab:  Solving for p, Initial residual = 0.0205914, Final residual = 9.38585e-05, No Iterations 67
linear solve p 225226
time step continuity errors : sum local = 1.07756e-07, global = 4.49445e-21, cumulative = 4.26131e-20
DICPBiCGStab:  Solving for p, Initial residual = 0.0176954, Final residual = 9.68836e-05, No Iterations 29
linear solve p 100001
time step continuity errors : sum local = 8.06765e-08, global = -5.65894e-21, cumulative = 3.69542e-20
ExecutionTime = 4.77 s  ClockTime = 4 s

Time = 0.009

Courant Number mean: 0.0623365 max: 0.404137
DILUPBiCGStab:  Solving for Ux, Initial residual = 0.0103329, Final residual = 7.19121e-08, No Iterations 5
DILUPBiCGStab:  Solving for Uy, Initial residual = 0.0192658, Final residual = 9.80259e-08, No Iterations 5
DILUPBiCGStab:  Solving for Uz, Initial residual = 0.0381322, Final residual = 6.44552e-07, No Iterations 5
linear solve U 65411
DICPBiCGStab:  Solving for p, Initial residual = 0.0170212, Final residual = 9.94587e-05, No Iterations 31
linear solve p 108335
time step continuity errors : sum local = 7.59177e-08, global = -4.16945e-21, cumulative = 3.27847e-20
DICPBiCGStab:  Solving for p, Initial residual = 0.014868, Final residual = 9.6316e-05, No Iterations 28
linear solve p 94700
time step continuity errors : sum local = 5.92354e-08, global = -4.07257e-20, cumulative = -7.94101e-21
ExecutionTime = 5.07 s  ClockTime = 5 s

Time = 0.01

Courant Number mean: 0.0644325 max: 0.406012
DILUPBiCGStab:  Solving for Ux, Initial residual = 0.00878208, Final residual = 6.63696e-08, No Iterations 5
DILUPBiCGStab:  Solving for Uy, Initial residual = 0.016688, Final residual = 7.05907e-08, No Iterations 5
DILUPBiCGStab:  Solving for Uz, Initial residual = 0.0318984, Final residual = 4.33664e-07, No Iterations 5
linear solve U 64065
DICPBiCGStab:  Solving for p, Initial residual = 0.0148809, Final residual = 9.56878e-05, No Iterations 30
linear solve p 103933
time step continuity errors : sum local = 8.14413e-08, global = -9.10502e-21, cumulative = -1.7046e-20
DICPBiCGStab:  Solving for p, Initial residual = 0.0130224, Final residual = 8.9848e-05, No Iterations 27
linear solve p 92823
time step continuity errors : sum local = 6.70065e-08, global = 1.6042e-20, cumulative = -1.00408e-21
ExecutionTime = 5.37 s  ClockTime = 5 s

End

