/*---------------------------------------------------------------------------*\
  =========                 |
  \\      /  F ield         | OpenFOAM: The Open Source CFD Toolbox
   \\    /   O peration     | Website:  https://openfoam.org
    \\  /    A nd           | Version:  8
     \\/     M anipulation  |
\*---------------------------------------------------------------------------*/
Build  : 8-ef60d22ea792
Exec   : icoFoam
Date   : Jul 29 2021
Time   : 08:35:51
Host   : "nla-gpu2.ianm.kit.edu"
PID    : 1986622
I/O    : uncollated
Case   : /home/greole/code/OBR/lidDrivenCavity3D/Variation_mesh/25/Variation_matrix_solver/BiCGStab_NoPrecond_HIP/base
nProcs : 1
sigFpe : Enabling floating point exception trapping (FOAM_SIGFPE).
fileModificationChecking : Monitoring run-time modified files using timeStampMaster (fileModificationSkew 10)
allowSystemOperations : Allowing user-supplied system call operations

// * * * * * * * * * * * * * * * * * * * * * * * * * * * * * * * * * * * * * //
Create time

Create mesh for time = 0

Reading transportProperties

Reading field p

Reading field U

Reading/calculating face flux field phi


Starting time loop

Time = 0.001

Courant Number mean: 0 max: 0
DILUPBiCGStab:  Solving for Ux, Initial residual = 1, Final residual = 1.01737e-08, No Iterations 5
DILUPBiCGStab:  Solving for Uy:  solution singularity
DILUPBiCGStab:  Solving for Uz:  solution singularity
linear solve U 5949
[OGL LOG] init_host_sparsity_pattern : 7 ms
[OGL LOG] matrix not stored update host matrix
[OGL LOG] update_host_mtx : 3 ms
[OGL LOG] matrix is not yet sorted, compute sorting idxs
[OGL LOG] compute_sort : 117 ms
[OGL LOG] matrix is not yet sorted, sorting host matrix
[OGL LOG] sort_host_mtx_sparsity_pattern : 3 ms
[OGL LOG] sort_host_mtx : 1 ms
[OGL LOG] init_preconditioner : 0 ms
[OGL LOG] solve : 80 ms
nonehipGKOBiCGStab:  Solving for p, Initial residual = 1, Final residual = 8.39653e-05, No Iterations 159
linear solve p 630304
time step continuity errors : sum local = 8.55906e-08, global = 3.67268e-21, cumulative = 3.67268e-21
[OGL LOG] init_host_sparsity_pattern : 7 ms
[OGL LOG] matrix not stored update host matrix
[OGL LOG] update_host_mtx : 3 ms
[OGL LOG] matrix is not yet sorted, sorting host matrix
[OGL LOG] sort_host_mtx_sparsity_pattern : 2 ms
[OGL LOG] sort_host_mtx : 1 ms
[OGL LOG] init_preconditioner : 0 ms
[OGL LOG] solve : 48 ms
nonehipGKOBiCGStab:  Solving for p, Initial residual = 0.481547, Final residual = 7.67896e-05, No Iterations 152
linear solve p 65149
time step continuity errors : sum local = 1.27329e-07, global = 1.59116e-21, cumulative = 5.26384e-21
ExecutionTime = 0.9 s  ClockTime = 1 s

Time = 0.002

Courant Number mean: 0.0119815 max: 0.106546
DILUPBiCGStab:  Solving for Ux, Initial residual = 0.210869, Final residual = 1.44907e-09, No Iterations 5
DILUPBiCGStab:  Solving for Uy, Initial residual = 0.284143, Final residual = 1.36693e-09, No Iterations 5
DILUPBiCGStab:  Solving for Uz, Initial residual = 0.882467, Final residual = 5.2413e-09, No Iterations 5
linear solve U 10218
[OGL LOG] init_host_sparsity_pattern : 7 ms
[OGL LOG] matrix not stored update host matrix
[OGL LOG] update_host_mtx : 4 ms
[OGL LOG] matrix is not yet sorted, sorting host matrix
[OGL LOG] sort_host_mtx_sparsity_pattern : 2 ms
[OGL LOG] sort_host_mtx : 1 ms
[OGL LOG] init_preconditioner : 0 ms
[OGL LOG] solve : 47 ms
nonehipGKOBiCGStab:  Solving for p, Initial residual = 0.286376, Final residual = 7.22654e-05, No Iterations 149
linear solve p 64248
time step continuity errors : sum local = 0.00061658, global = 5.18808e-21, cumulative = 1.04519e-20
[OGL LOG] init_host_sparsity_pattern : 6 ms
[OGL LOG] matrix not stored update host matrix
[OGL LOG] update_host_mtx : 4 ms
[OGL LOG] matrix is not yet sorted, sorting host matrix
[OGL LOG] sort_host_mtx_sparsity_pattern : 2 ms
[OGL LOG] sort_host_mtx : 1 ms
[OGL LOG] init_preconditioner : 0 ms
[OGL LOG] solve : 43 ms
nonehipGKOBiCGStab:  Solving for p, Initial residual = 0.540267, Final residual = 5.95022e-05, No Iterations 137
linear solve p 60370
time step continuity errors : sum local = 1.70708e-07, global = -1.31538e-20, cumulative = -2.70191e-21
ExecutionTime = 1.12 s  ClockTime = 1 s

Time = 0.003

Courant Number mean: 0.0188595 max: 0.153605
DILUPBiCGStab:  Solving for Ux, Initial residual = 0.0900368, Final residual = 5.47872e-10, No Iterations 5
DILUPBiCGStab:  Solving for Uy, Initial residual = 0.124941, Final residual = 4.9964e-10, No Iterations 5
DILUPBiCGStab:  Solving for Uz, Initial residual = 0.675709, Final residual = 1.90704e-09, No Iterations 5
linear solve U 10168
[OGL LOG] init_host_sparsity_pattern : 6 ms
[OGL LOG] matrix not stored update host matrix
[OGL LOG] update_host_mtx : 4 ms
[OGL LOG] matrix is not yet sorted, sorting host matrix
[OGL LOG] sort_host_mtx_sparsity_pattern : 2 ms
[OGL LOG] sort_host_mtx : 1 ms
[OGL LOG] init_preconditioner : 0 ms
[OGL LOG] solve : 22 ms
nonehipGKOBiCGStab:  Solving for p, Initial residual = 0.237832, Final residual = 9.86499e-05, No Iterations 69
linear solve p 38763
time step continuity errors : sum local = 1.47308e-07, global = 1.91803e-21, cumulative = -7.83883e-22
[OGL LOG] init_host_sparsity_pattern : 6 ms
[OGL LOG] matrix not stored update host matrix
[OGL LOG] update_host_mtx : 4 ms
[OGL LOG] matrix is not yet sorted, sorting host matrix
[OGL LOG] sort_host_mtx_sparsity_pattern : 2 ms
[OGL LOG] sort_host_mtx : 1 ms
[OGL LOG] init_preconditioner : 0 ms
[OGL LOG] solve : 40 ms
nonehipGKOBiCGStab:  Solving for p, Initial residual = 0.136922, Final residual = 9.95374e-05, No Iterations 128
linear solve p 57015
time step continuity errors : sum local = 1.73579e-07, global = 1.3615e-20, cumulative = 1.28311e-20
ExecutionTime = 1.28 s  ClockTime = 1 s

Time = 0.004

Courant Number mean: 0.0233284 max: 0.175153
DILUPBiCGStab:  Solving for Ux, Initial residual = 0.0520677, Final residual = 2.37904e-10, No Iterations 5
DILUPBiCGStab:  Solving for Uy, Initial residual = 0.074273, Final residual = 1.98416e-10, No Iterations 5
DILUPBiCGStab:  Solving for Uz, Initial residual = 0.192505, Final residual = 8.23821e-10, No Iterations 5
linear solve U 10355
[OGL LOG] init_host_sparsity_pattern : 6 ms
[OGL LOG] matrix not stored update host matrix
[OGL LOG] update_host_mtx : 3 ms
[OGL LOG] matrix is not yet sorted, sorting host matrix
[OGL LOG] sort_host_mtx_sparsity_pattern : 3 ms
[OGL LOG] sort_host_mtx : 1 ms
[OGL LOG] init_preconditioner : 0 ms
[OGL LOG] solve : 18 ms
nonehipGKOBiCGStab:  Solving for p, Initial residual = 0.0733283, Final residual = 9.78771e-05, No Iterations 56
linear solve p 34586
time step continuity errors : sum local = 1.01813e-07, global = -1.97841e-21, cumulative = 1.08527e-20
[OGL LOG] init_host_sparsity_pattern : 7 ms
[OGL LOG] matrix not stored update host matrix
[OGL LOG] update_host_mtx : 3 ms
[OGL LOG] matrix is not yet sorted, sorting host matrix
[OGL LOG] sort_host_mtx_sparsity_pattern : 2 ms
[OGL LOG] sort_host_mtx : 1 ms
[OGL LOG] init_preconditioner : 0 ms
[OGL LOG] solve : 17 ms
nonehipGKOBiCGStab:  Solving for p, Initial residual = 0.0462084, Final residual = 9.22522e-05, No Iterations 53
linear solve p 33632
time step continuity errors : sum local = 1.36608e-07, global = -6.8077e-22, cumulative = 1.01719e-20
ExecutionTime = 1.39 s  ClockTime = 1 s

Time = 0.005

Courant Number mean: 0.0265074 max: 0.186529
DILUPBiCGStab:  Solving for Ux, Initial residual = 0.0351395, Final residual = 1.72415e-10, No Iterations 5
DILUPBiCGStab:  Solving for Uy, Initial residual = 0.0507547, Final residual = 1.02706e-10, No Iterations 5
DILUPBiCGStab:  Solving for Uz, Initial residual = 0.0945444, Final residual = 3.4599e-10, No Iterations 5
linear solve U 10111
[OGL LOG] init_host_sparsity_pattern : 6 ms
[OGL LOG] matrix not stored update host matrix
[OGL LOG] update_host_mtx : 4 ms
[OGL LOG] matrix is not yet sorted, sorting host matrix
[OGL LOG] sort_host_mtx_sparsity_pattern : 2 ms
[OGL LOG] sort_host_mtx : 1 ms
[OGL LOG] init_preconditioner : 0 ms
[OGL LOG] solve : 17 ms
nonehipGKOBiCGStab:  Solving for p, Initial residual = 0.0369097, Final residual = 9.6015e-05, No Iterations 54
linear solve p 33947
time step continuity errors : sum local = 4.73274e-07, global = 7.06722e-21, cumulative = 1.72391e-20
[OGL LOG] init_host_sparsity_pattern : 6 ms
[OGL LOG] matrix not stored update host matrix
[OGL LOG] update_host_mtx : 4 ms
[OGL LOG] matrix is not yet sorted, sorting host matrix
[OGL LOG] sort_host_mtx_sparsity_pattern : 2 ms
[OGL LOG] sort_host_mtx : 1 ms
[OGL LOG] init_preconditioner : 0 ms
[OGL LOG] solve : 17 ms
nonehipGKOBiCGStab:  Solving for p, Initial residual = 0.0242041, Final residual = 7.52798e-05, No Iterations 53
linear solve p 33542
time step continuity errors : sum local = 1.0924e-07, global = 1.16551e-20, cumulative = 2.88942e-20
ExecutionTime = 1.5 s  ClockTime = 2 s

Time = 0.006

Courant Number mean: 0.0289084 max: 0.193357
DILUPBiCGStab:  Solving for Ux, Initial residual = 0.0259382, Final residual = 7.71399e-11, No Iterations 5
DILUPBiCGStab:  Solving for Uy, Initial residual = 0.0379528, Final residual = 6.95635e-11, No Iterations 5
DILUPBiCGStab:  Solving for Uz, Initial residual = 0.0704667, Final residual = 1.92892e-10, No Iterations 5
linear solve U 10193
[OGL LOG] init_host_sparsity_pattern : 6 ms
[OGL LOG] matrix not stored update host matrix
[OGL LOG] update_host_mtx : 4 ms
[OGL LOG] matrix is not yet sorted, sorting host matrix
[OGL LOG] sort_host_mtx_sparsity_pattern : 2 ms
[OGL LOG] sort_host_mtx : 1 ms
[OGL LOG] init_preconditioner : 0 ms
[OGL LOG] solve : 16 ms
nonehipGKOBiCGStab:  Solving for p, Initial residual = 0.0246664, Final residual = 9.38888e-05, No Iterations 53
linear solve p 33542
time step continuity errors : sum local = 9.9913e-08, global = 5.23316e-21, cumulative = 3.41274e-20
[OGL LOG] init_host_sparsity_pattern : 6 ms
[OGL LOG] matrix not stored update host matrix
[OGL LOG] update_host_mtx : 4 ms
[OGL LOG] matrix is not yet sorted, sorting host matrix
[OGL LOG] sort_host_mtx_sparsity_pattern : 2 ms
[OGL LOG] sort_host_mtx : 1 ms
[OGL LOG] init_preconditioner : 0 ms
[OGL LOG] solve : 15 ms
nonehipGKOBiCGStab:  Solving for p, Initial residual = 0.0165343, Final residual = 8.33072e-05, No Iterations 49
linear solve p 32121
time step continuity errors : sum local = 1.06349e-07, global = 1.28688e-20, cumulative = 4.69961e-20
ExecutionTime = 1.61 s  ClockTime = 2 s

Time = 0.007

Courant Number mean: 0.0308443 max: 0.197909
DILUPBiCGStab:  Solving for Ux, Initial residual = 0.0203517, Final residual = 3.52119e-11, No Iterations 5
DILUPBiCGStab:  Solving for Uy, Initial residual = 0.0299926, Final residual = 5.18675e-11, No Iterations 5
DILUPBiCGStab:  Solving for Uz, Initial residual = 0.057076, Final residual = 1.30035e-10, No Iterations 5
linear solve U 10694
[OGL LOG] init_host_sparsity_pattern : 6 ms
[OGL LOG] matrix not stored update host matrix
[OGL LOG] update_host_mtx : 4 ms
[OGL LOG] matrix is not yet sorted, sorting host matrix
[OGL LOG] sort_host_mtx_sparsity_pattern : 2 ms
[OGL LOG] sort_host_mtx : 1 ms
[OGL LOG] init_preconditioner : 0 ms
[OGL LOG] solve : 17 ms
nonehipGKOBiCGStab:  Solving for p, Initial residual = 0.0187386, Final residual = 8.67703e-05, No Iterations 54
linear solve p 33958
time step continuity errors : sum local = 9.15709e-08, global = 2.3896e-20, cumulative = 7.08921e-20
[OGL LOG] init_host_sparsity_pattern : 6 ms
[OGL LOG] matrix not stored update host matrix
[OGL LOG] update_host_mtx : 4 ms
[OGL LOG] matrix is not yet sorted, sorting host matrix
[OGL LOG] sort_host_mtx_sparsity_pattern : 2 ms
[OGL LOG] sort_host_mtx : 1 ms
[OGL LOG] init_preconditioner : 0 ms
[OGL LOG] solve : 15 ms
nonehipGKOBiCGStab:  Solving for p, Initial residual = 0.0126957, Final residual = 8.2092e-05, No Iterations 47
linear solve p 31870
time step continuity errors : sum local = 9.82952e-08, global = -9.69559e-22, cumulative = 6.99226e-20
ExecutionTime = 1.73 s  ClockTime = 2 s

Time = 0.008

Courant Number mean: 0.0324893 max: 0.201188
DILUPBiCGStab:  Solving for Ux, Initial residual = 0.0165177, Final residual = 1.96442e-11, No Iterations 5
DILUPBiCGStab:  Solving for Uy, Initial residual = 0.0245813, Final residual = 3.95148e-11, No Iterations 5
DILUPBiCGStab:  Solving for Uz, Initial residual = 0.0476835, Final residual = 9.59534e-11, No Iterations 5
linear solve U 10501
[OGL LOG] init_host_sparsity_pattern : 6 ms
[OGL LOG] matrix not stored update host matrix
[OGL LOG] update_host_mtx : 4 ms
[OGL LOG] matrix is not yet sorted, sorting host matrix
[OGL LOG] sort_host_mtx_sparsity_pattern : 2 ms
[OGL LOG] sort_host_mtx : 1 ms
[OGL LOG] init_preconditioner : 0 ms
[OGL LOG] solve : 16 ms
nonehipGKOBiCGStab:  Solving for p, Initial residual = 0.0149774, Final residual = 9.8832e-05, No Iterations 51
linear solve p 33378
time step continuity errors : sum local = 9.90309e-08, global = -1.77843e-20, cumulative = 5.21383e-20
[OGL LOG] init_host_sparsity_pattern : 6 ms
[OGL LOG] matrix not stored update host matrix
[OGL LOG] update_host_mtx : 4 ms
[OGL LOG] matrix is not yet sorted, sorting host matrix
[OGL LOG] sort_host_mtx_sparsity_pattern : 2 ms
[OGL LOG] sort_host_mtx : 1 ms
[OGL LOG] init_preconditioner : 0 ms
[OGL LOG] solve : 15 ms
nonehipGKOBiCGStab:  Solving for p, Initial residual = 0.0102319, Final residual = 9.9186e-05, No Iterations 49
linear solve p 32115
time step continuity errors : sum local = 1.07547e-07, global = 2.70237e-20, cumulative = 7.9162e-20
ExecutionTime = 1.84 s  ClockTime = 2 s

Time = 0.009

Courant Number mean: 0.0338928 max: 0.203683
DILUPBiCGStab:  Solving for Ux, Initial residual = 0.0137849, Final residual = 1.28147e-11, No Iterations 5
DILUPBiCGStab:  Solving for Uy, Initial residual = 0.0206555, Final residual = 3.02473e-11, No Iterations 5
DILUPBiCGStab:  Solving for Uz, Initial residual = 0.0407463, Final residual = 7.37278e-11, No Iterations 5
linear solve U 10673
[OGL LOG] init_host_sparsity_pattern : 6 ms
[OGL LOG] matrix not stored update host matrix
[OGL LOG] update_host_mtx : 4 ms
[OGL LOG] matrix is not yet sorted, sorting host matrix
[OGL LOG] sort_host_mtx_sparsity_pattern : 2 ms
[OGL LOG] sort_host_mtx : 1 ms
[OGL LOG] init_preconditioner : 0 ms
[OGL LOG] solve : 16 ms
nonehipGKOBiCGStab:  Solving for p, Initial residual = 0.0125369, Final residual = 9.89192e-05, No Iterations 52
linear solve p 33278
time step continuity errors : sum local = 9.57975e-08, global = 1.21333e-20, cumulative = 9.12953e-20
[OGL LOG] init_host_sparsity_pattern : 6 ms
[OGL LOG] matrix not stored update host matrix
[OGL LOG] update_host_mtx : 4 ms
[OGL LOG] matrix is not yet sorted, sorting host matrix
[OGL LOG] sort_host_mtx_sparsity_pattern : 2 ms
[OGL LOG] sort_host_mtx : 1 ms
[OGL LOG] init_preconditioner : 0 ms
[OGL LOG] solve : 15 ms
nonehipGKOBiCGStab:  Solving for p, Initial residual = 0.00863425, Final residual = 6.72907e-05, No Iterations 48
linear solve p 32140
time step continuity errors : sum local = 7.5379e-08, global = 8.09458e-21, cumulative = 9.93899e-20
ExecutionTime = 1.94 s  ClockTime = 2 s

Time = 0.01

Courant Number mean: 0.0351032 max: 0.205656
DILUPBiCGStab:  Solving for Ux, Initial residual = 0.0117119, Final residual = 9.2981e-12, No Iterations 5
DILUPBiCGStab:  Solving for Uy, Initial residual = 0.017692, Final residual = 2.33927e-11, No Iterations 5
DILUPBiCGStab:  Solving for Uz, Initial residual = 0.0352419, Final residual = 5.76252e-11, No Iterations 5
linear solve U 10170
[OGL LOG] init_host_sparsity_pattern : 6 ms
[OGL LOG] matrix not stored update host matrix
[OGL LOG] update_host_mtx : 4 ms
[OGL LOG] matrix is not yet sorted, sorting host matrix
[OGL LOG] sort_host_mtx_sparsity_pattern : 2 ms
[OGL LOG] sort_host_mtx : 1 ms
[OGL LOG] init_preconditioner : 0 ms
[OGL LOG] solve : 16 ms
nonehipGKOBiCGStab:  Solving for p, Initial residual = 0.0105029, Final residual = 9.21342e-05, No Iterations 50
linear solve p 32736
time step continuity errors : sum local = 8.83227e-08, global = 1.22094e-20, cumulative = 1.11599e-19
[OGL LOG] init_host_sparsity_pattern : 6 ms
[OGL LOG] matrix not stored update host matrix
[OGL LOG] update_host_mtx : 4 ms
[OGL LOG] matrix is not yet sorted, sorting host matrix
[OGL LOG] sort_host_mtx_sparsity_pattern : 3 ms
[OGL LOG] sort_host_mtx : 1 ms
[OGL LOG] init_preconditioner : 0 ms
[OGL LOG] solve : 14 ms
nonehipGKOBiCGStab:  Solving for p, Initial residual = 0.00726251, Final residual = 9.78552e-05, No Iterations 46
linear solve p 31377
time step continuity errors : sum local = 9.78985e-08, global = 3.8976e-20, cumulative = 1.50575e-19
ExecutionTime = 2.05 s  ClockTime = 2 s

End

