/*---------------------------------------------------------------------------*\
  =========                 |
  \\      /  F ield         | OpenFOAM: The Open Source CFD Toolbox
   \\    /   O peration     | Website:  https://openfoam.org
    \\  /    A nd           | Version:  8
     \\/     M anipulation  |
\*---------------------------------------------------------------------------*/
Build  : 8-ef60d22ea792
Exec   : icoFoam
Date   : Jul 28 2021
Time   : 18:19:39
Host   : "nla-gpu2.ianm.kit.edu"
PID    : 1584886
I/O    : uncollated
Case   : /home/greole/code/OBR/lidDrivenCavity3D/Variation_mesh/75/Variation_matrix_solver/BiCGStab_NoPrecond_Serial/base
nProcs : 1
sigFpe : Enabling floating point exception trapping (FOAM_SIGFPE).
fileModificationChecking : Monitoring run-time modified files using timeStampMaster (fileModificationSkew 10)
allowSystemOperations : Allowing user-supplied system call operations

// * * * * * * * * * * * * * * * * * * * * * * * * * * * * * * * * * * * * * //
Create time

Create mesh for time = 0

Reading transportProperties

Reading field p

Reading field U

Reading/calculating face flux field phi


Starting time loop

Time = 0.001

Courant Number mean: 0 max: 0
DILUPBiCGStab:  Solving for Ux, Initial residual = 1, Final residual = 0.00209367, No Iterations 5
DILUPBiCGStab:  Solving for Uy:  solution singularity
DILUPBiCGStab:  Solving for Uz:  solution singularity
linear solve U 172761
nonePBiCGStab:  Solving for p, Initial residual = 1, Final residual = 1.23806e-05, No Iterations 494
linear solve p 4875529
time step continuity errors : sum local = 1.28368e-08, global = 1.03087e-22, cumulative = 1.03087e-22
nonePBiCGStab:  Solving for p, Initial residual = 0.735689, Final residual = 9.93607e-05, No Iterations 475
linear solve p 4697203
time step continuity errors : sum local = 1.53491e-07, global = 3.30879e-21, cumulative = 3.41187e-21
ExecutionTime = 11.81 s  ClockTime = 12 s

Time = 0.002

Courant Number mean: 0.0422954 max: 0.566001
DILUPBiCGStab:  Solving for Ux, Initial residual = 0.148828, Final residual = 0.000721033, No Iterations 5
DILUPBiCGStab:  Solving for Uy, Initial residual = 0.373387, Final residual = 0.00156832, No Iterations 5
DILUPBiCGStab:  Solving for Uz, Initial residual = 0.979661, Final residual = 0.00487265, No Iterations 5
linear solve U 331556
nonePBiCGStab:  Solving for p, Initial residual = 0.699849, Final residual = 8.48903e-05, No Iterations 443
linear solve p 4358656
time step continuity errors : sum local = 1.4932e-07, global = 1.51819e-20, cumulative = 1.85937e-20
nonePBiCGStab:  Solving for p, Initial residual = 0.630599, Final residual = 8.52618e-05, No Iterations 438
linear solve p 4294502
time step continuity errors : sum local = 1.53265e-07, global = -7.84883e-21, cumulative = 1.07449e-20
ExecutionTime = 20.95 s  ClockTime = 21 s

Time = 0.003

Courant Number mean: 0.0635369 max: 0.66848
DILUPBiCGStab:  Solving for Ux, Initial residual = 0.0537714, Final residual = 0.000210255, No Iterations 5
DILUPBiCGStab:  Solving for Uy, Initial residual = 0.131829, Final residual = 0.000497119, No Iterations 5
DILUPBiCGStab:  Solving for Uz, Initial residual = 0.630218, Final residual = 0.00339674, No Iterations 5
linear solve U 325841
nonePBiCGStab:  Solving for p, Initial residual = 0.660679, Final residual = 9.45403e-05, No Iterations 452
linear solve p 4441838
time step continuity errors : sum local = 7.42354e-08, global = -8.23559e-21, cumulative = 2.50932e-21
nonePBiCGStab:  Solving for p, Initial residual = 0.614615, Final residual = 5.19488e-05, No Iterations 438
linear solve p 4320373
time step continuity errors : sum local = 5.58888e-08, global = 3.9493e-21, cumulative = 6.45862e-21
ExecutionTime = 30.18 s  ClockTime = 30 s

Time = 0.004

Courant Number mean: 0.0745403 max: 0.679258
DILUPBiCGStab:  Solving for Ux, Initial residual = 0.0291395, Final residual = 0.000106592, No Iterations 5
DILUPBiCGStab:  Solving for Uy, Initial residual = 0.0889557, Final residual = 0.000297109, No Iterations 5
DILUPBiCGStab:  Solving for Uz, Initial residual = 0.364867, Final residual = 0.00154567, No Iterations 5
linear solve U 324996
nonePBiCGStab:  Solving for p, Initial residual = 0.460338, Final residual = 9.06837e-05, No Iterations 437
linear solve p 4314443
time step continuity errors : sum local = 8.79461e-08, global = -4.68618e-21, cumulative = 1.77244e-21
nonePBiCGStab:  Solving for p, Initial residual = 0.395917, Final residual = 9.3712e-05, No Iterations 451
linear solve p 4437280
time step continuity errors : sum local = 7.40363e-08, global = -1.82603e-20, cumulative = -1.64879e-20
ExecutionTime = 39.42 s  ClockTime = 40 s

Time = 0.005

Courant Number mean: 0.0834057 max: 0.68943
DILUPBiCGStab:  Solving for Ux, Initial residual = 0.0210751, Final residual = 6.35374e-05, No Iterations 5
DILUPBiCGStab:  Solving for Uy, Initial residual = 0.0491076, Final residual = 0.000109781, No Iterations 5
DILUPBiCGStab:  Solving for Uz, Initial residual = 0.181053, Final residual = 0.000952907, No Iterations 5
linear solve U 332429
nonePBiCGStab:  Solving for p, Initial residual = 0.378347, Final residual = 9.90727e-05, No Iterations 461
linear solve p 4531113
time step continuity errors : sum local = 4.75777e-08, global = 1.19892e-20, cumulative = -4.49867e-21
nonePBiCGStab:  Solving for p, Initial residual = 0.328826, Final residual = 9.89201e-05, No Iterations 415
linear solve p 4050904
time step continuity errors : sum local = 4.87208e-08, global = 4.34105e-21, cumulative = -1.5762e-22
ExecutionTime = 48.49 s  ClockTime = 49 s

Time = 0.006

Courant Number mean: 0.0901487 max: 0.695166
DILUPBiCGStab:  Solving for Ux, Initial residual = 0.0148693, Final residual = 3.95028e-05, No Iterations 5
DILUPBiCGStab:  Solving for Uy, Initial residual = 0.0382196, Final residual = 8.26938e-05, No Iterations 5
DILUPBiCGStab:  Solving for Uz, Initial residual = 0.134326, Final residual = 0.000561921, No Iterations 5
linear solve U 329157
nonePBiCGStab:  Solving for p, Initial residual = 0.244386, Final residual = 3.20745e-05, No Iterations 412
linear solve p 4095181
time step continuity errors : sum local = 2.69325e-08, global = 5.58204e-21, cumulative = 5.42442e-21
nonePBiCGStab:  Solving for p, Initial residual = 0.205603, Final residual = 7.20807e-05, No Iterations 431
linear solve p 4272688
time step continuity errors : sum local = 4.96353e-08, global = -1.53431e-20, cumulative = -9.91872e-21
ExecutionTime = 57.34 s  ClockTime = 58 s

Time = 0.007

Courant Number mean: 0.095728 max: 0.69899
DILUPBiCGStab:  Solving for Ux, Initial residual = 0.0118737, Final residual = 2.51189e-05, No Iterations 5
DILUPBiCGStab:  Solving for Uy, Initial residual = 0.0280737, Final residual = 4.68395e-05, No Iterations 5
DILUPBiCGStab:  Solving for Uz, Initial residual = 0.0711153, Final residual = 0.000202893, No Iterations 5
linear solve U 325178
nonePBiCGStab:  Solving for p, Initial residual = 0.182567, Final residual = 4.94271e-05, No Iterations 381
linear solve p 3756534
time step continuity errors : sum local = 3.7642e-08, global = 4.05199e-21, cumulative = -5.86673e-21
nonePBiCGStab:  Solving for p, Initial residual = 0.154211, Final residual = 9.58785e-05, No Iterations 173
linear solve p 1721843
time step continuity errors : sum local = 6.83792e-08, global = 9.84295e-21, cumulative = 3.97621e-21
ExecutionTime = 63.31 s  ClockTime = 64 s

Time = 0.008

Courant Number mean: 0.100396 max: 0.702036
DILUPBiCGStab:  Solving for Ux, Initial residual = 0.00958757, Final residual = 1.87553e-05, No Iterations 5
DILUPBiCGStab:  Solving for Uy, Initial residual = 0.0231529, Final residual = 3.58367e-05, No Iterations 5
DILUPBiCGStab:  Solving for Uz, Initial residual = 0.0675773, Final residual = 0.000261693, No Iterations 5
linear solve U 328370
nonePBiCGStab:  Solving for p, Initial residual = 0.124713, Final residual = 9.93402e-05, No Iterations 420
linear solve p 4149328
time step continuity errors : sum local = 4.45978e-08, global = -2.4029e-21, cumulative = 1.57331e-21
nonePBiCGStab:  Solving for p, Initial residual = 0.103937, Final residual = 8.5804e-05, No Iterations 428
linear solve p 4198687
time step continuity errors : sum local = 3.8925e-08, global = 3.2925e-21, cumulative = 4.86582e-21
ExecutionTime = 72.14 s  ClockTime = 72 s

Time = 0.009

Courant Number mean: 0.1044 max: 0.70426
DILUPBiCGStab:  Solving for Ux, Initial residual = 0.00800255, Final residual = 1.14457e-05, No Iterations 5
DILUPBiCGStab:  Solving for Uy, Initial residual = 0.0193588, Final residual = 2.64809e-05, No Iterations 5
DILUPBiCGStab:  Solving for Uz, Initial residual = 0.0547053, Final residual = 0.000171712, No Iterations 5
linear solve U 325109
nonePBiCGStab:  Solving for p, Initial residual = 0.0934754, Final residual = 1.54747e-05, No Iterations 337
linear solve p 3357927
time step continuity errors : sum local = 8.02966e-09, global = -1.06619e-20, cumulative = -5.79609e-21
nonePBiCGStab:  Solving for p, Initial residual = 0.0784144, Final residual = 8.92725e-05, No Iterations 335
linear solve p 3293595
time step continuity errors : sum local = 6.93152e-08, global = 6.92042e-21, cumulative = 1.12433e-21
ExecutionTime = 79.28 s  ClockTime = 80 s

Time = 0.01

Courant Number mean: 0.10788 max: 0.706181
DILUPBiCGStab:  Solving for Ux, Initial residual = 0.00688369, Final residual = 9.50506e-06, No Iterations 5
DILUPBiCGStab:  Solving for Uy, Initial residual = 0.0163515, Final residual = 1.98667e-05, No Iterations 5
DILUPBiCGStab:  Solving for Uz, Initial residual = 0.0479311, Final residual = 0.000163144, No Iterations 5
linear solve U 333772
nonePBiCGStab:  Solving for p, Initial residual = 0.0654853, Final residual = 9.73283e-05, No Iterations 422
linear solve p 4175176
time step continuity errors : sum local = 4.02876e-08, global = -2.12867e-20, cumulative = -2.01623e-20
nonePBiCGStab:  Solving for p, Initial residual = 0.0547753, Final residual = 9.75739e-05, No Iterations 362
linear solve p 3573068
time step continuity errors : sum local = 7.20187e-08, global = -4.39015e-21, cumulative = -2.45525e-20
ExecutionTime = 87.52 s  ClockTime = 88 s

End

