/*---------------------------------------------------------------------------*\
  =========                 |
  \\      /  F ield         | OpenFOAM: The Open Source CFD Toolbox
   \\    /   O peration     | Website:  https://openfoam.org
    \\  /    A nd           | Version:  8
     \\/     M anipulation  |
\*---------------------------------------------------------------------------*/
Build  : 8-ef60d22ea792
Exec   : icoFoam
Date   : Jul 29 2021
Time   : 04:04:58
Host   : "nla-gpu2.ianm.kit.edu"
PID    : 1866010
I/O    : uncollated
Case   : /home/greole/code/OBR/lidDrivenCavity3D/Variation_mesh/85/Variation_matrix_solver/CG_NoPrecond_HIP/base
nProcs : 1
sigFpe : Enabling floating point exception trapping (FOAM_SIGFPE).
fileModificationChecking : Monitoring run-time modified files using timeStampMaster (fileModificationSkew 10)
allowSystemOperations : Allowing user-supplied system call operations

// * * * * * * * * * * * * * * * * * * * * * * * * * * * * * * * * * * * * * //
Create time

Create mesh for time = 0

Reading transportProperties

Reading field p

Reading field U

Reading/calculating face flux field phi


Starting time loop

Time = 0.001

Courant Number mean: 0 max: 0
DILUPBiCGStab:  Solving for Ux, Initial residual = 1, Final residual = 0.00382019, No Iterations 5
DILUPBiCGStab:  Solving for Uy:  solution singularity
DILUPBiCGStab:  Solving for Uz:  solution singularity
linear solve U 256915
[OGL LOG] init_host_sparsity_pattern : 287 ms
[OGL LOG] matrix not stored update host matrix
[OGL LOG] update_host_mtx : 143 ms
[OGL LOG] matrix is not yet sorted, compute sorting idxs
[OGL LOG] compute_sort : 6061 ms
[OGL LOG] matrix is not yet sorted, sorting host matrix
[OGL LOG] sort_host_mtx_sparsity_pattern : 120 ms
[OGL LOG] sort_host_mtx : 80 ms
[OGL LOG] init_preconditioner : 0 ms
[OGL LOG] solve : 298 ms
nonehipGKOCG:  Solving for p, Initial residual = 1, Final residual = 9.91502e-05, No Iterations 670
linear solve p 7455282
time step continuity errors : sum local = 5.79315e-08, global = -4.86617e-21, cumulative = -4.86617e-21
[OGL LOG] init_host_sparsity_pattern : 275 ms
[OGL LOG] matrix not stored update host matrix
[OGL LOG] update_host_mtx : 132 ms
[OGL LOG] matrix is not yet sorted, sorting host matrix
[OGL LOG] sort_host_mtx_sparsity_pattern : 108 ms
[OGL LOG] sort_host_mtx : 73 ms
[OGL LOG] init_preconditioner : 0 ms
[OGL LOG] solve : 262 ms
nonehipGKOCG:  Solving for p, Initial residual = 0.755067, Final residual = 9.57545e-05, No Iterations 662
linear solve p 876277
time step continuity errors : sum local = 7.21488e-08, global = 6.08626e-21, cumulative = 1.22008e-21
ExecutionTime = 12.04 s  ClockTime = 12 s

Time = 0.002

Courant Number mean: 0.0479746 max: 0.661591
DILUPBiCGStab:  Solving for Ux, Initial residual = 0.144106, Final residual = 0.00147913, No Iterations 5
DILUPBiCGStab:  Solving for Uy, Initial residual = 0.396913, Final residual = 0.00365136, No Iterations 5
DILUPBiCGStab:  Solving for Uz, Initial residual = 0.988281, Final residual = 0.0100644, No Iterations 5
linear solve U 493140
[OGL LOG] init_host_sparsity_pattern : 271 ms
[OGL LOG] matrix not stored update host matrix
[OGL LOG] update_host_mtx : 133 ms
[OGL LOG] matrix is not yet sorted, sorting host matrix
[OGL LOG] sort_host_mtx_sparsity_pattern : 108 ms
[OGL LOG] sort_host_mtx : 73 ms
[OGL LOG] init_preconditioner : 0 ms
[OGL LOG] solve : 266 ms
nonehipGKOCG:  Solving for p, Initial residual = 0.745874, Final residual = 9.44816e-05, No Iterations 659
linear solve p 877188
time step continuity errors : sum local = 8.78503e-08, global = -5.54321e-22, cumulative = 6.65762e-22
[OGL LOG] init_host_sparsity_pattern : 274 ms
[OGL LOG] matrix not stored update host matrix
[OGL LOG] update_host_mtx : 136 ms
[OGL LOG] matrix is not yet sorted, sorting host matrix
[OGL LOG] sort_host_mtx_sparsity_pattern : 110 ms
[OGL LOG] sort_host_mtx : 69 ms
[OGL LOG] init_preconditioner : 0 ms
[OGL LOG] solve : 263 ms
nonehipGKOCG:  Solving for p, Initial residual = 0.680842, Final residual = 9.54232e-05, No Iterations 657
linear solve p 878035
time step continuity errors : sum local = 9.05603e-08, global = 1.1418e-20, cumulative = 1.20837e-20
ExecutionTime = 14.96 s  ClockTime = 14 s

Time = 0.003

Courant Number mean: 0.0723207 max: 0.775882
DILUPBiCGStab:  Solving for Ux, Initial residual = 0.0580474, Final residual = 0.000501144, No Iterations 5
DILUPBiCGStab:  Solving for Uy, Initial residual = 0.162042, Final residual = 0.0014036, No Iterations 5
DILUPBiCGStab:  Solving for Uz, Initial residual = 0.731048, Final residual = 0.0067981, No Iterations 5
linear solve U 496230
[OGL LOG] init_host_sparsity_pattern : 270 ms
[OGL LOG] matrix not stored update host matrix
[OGL LOG] update_host_mtx : 136 ms
[OGL LOG] matrix is not yet sorted, sorting host matrix
[OGL LOG] sort_host_mtx_sparsity_pattern : 112 ms
[OGL LOG] sort_host_mtx : 72 ms
[OGL LOG] init_preconditioner : 0 ms
[OGL LOG] solve : 158 ms
nonehipGKOCG:  Solving for p, Initial residual = 0.746303, Final residual = 9.85169e-05, No Iterations 393
linear solve p 777607
time step continuity errors : sum local = 8.21056e-08, global = -5.97396e-21, cumulative = 6.10976e-21
[OGL LOG] init_host_sparsity_pattern : 277 ms
[OGL LOG] matrix not stored update host matrix
[OGL LOG] update_host_mtx : 134 ms
[OGL LOG] matrix is not yet sorted, sorting host matrix
[OGL LOG] sort_host_mtx_sparsity_pattern : 118 ms
[OGL LOG] sort_host_mtx : 72 ms
[OGL LOG] init_preconditioner : 0 ms
[OGL LOG] solve : 168 ms
nonehipGKOCG:  Solving for p, Initial residual = 0.706521, Final residual = 9.52575e-05, No Iterations 388
linear solve p 796993
time step continuity errors : sum local = 7.23667e-08, global = 5.7096e-21, cumulative = 1.18194e-20
ExecutionTime = 17.58 s  ClockTime = 17 s

Time = 0.004

Courant Number mean: 0.0841985 max: 0.778372
DILUPBiCGStab:  Solving for Ux, Initial residual = 0.0310188, Final residual = 0.00029341, No Iterations 5
DILUPBiCGStab:  Solving for Uy, Initial residual = 0.113894, Final residual = 0.000994811, No Iterations 5
DILUPBiCGStab:  Solving for Uz, Initial residual = 0.457894, Final residual = 0.00357772, No Iterations 5
linear solve U 490614
[OGL LOG] init_host_sparsity_pattern : 272 ms
[OGL LOG] matrix not stored update host matrix
[OGL LOG] update_host_mtx : 138 ms
[OGL LOG] matrix is not yet sorted, sorting host matrix
[OGL LOG] sort_host_mtx_sparsity_pattern : 112 ms
[OGL LOG] sort_host_mtx : 72 ms
[OGL LOG] init_preconditioner : 0 ms
[OGL LOG] solve : 146 ms
nonehipGKOCG:  Solving for p, Initial residual = 0.59245, Final residual = 9.9377e-05, No Iterations 362
linear solve p 766752
time step continuity errors : sum local = 6.6939e-08, global = 1.28916e-20, cumulative = 2.4711e-20
[OGL LOG] init_host_sparsity_pattern : 274 ms
[OGL LOG] matrix not stored update host matrix
[OGL LOG] update_host_mtx : 136 ms
[OGL LOG] matrix is not yet sorted, sorting host matrix
[OGL LOG] sort_host_mtx_sparsity_pattern : 108 ms
[OGL LOG] sort_host_mtx : 74 ms
[OGL LOG] init_preconditioner : 0 ms
[OGL LOG] solve : 146 ms
nonehipGKOCG:  Solving for p, Initial residual = 0.52883, Final residual = 9.8111e-05, No Iterations 357
linear solve p 766156
time step continuity errors : sum local = 6.54806e-08, global = 2.67181e-20, cumulative = 5.14291e-20
ExecutionTime = 20.14 s  ClockTime = 19 s

Time = 0.005

Courant Number mean: 0.0944146 max: 0.789472
DILUPBiCGStab:  Solving for Ux, Initial residual = 0.0232298, Final residual = 0.000192051, No Iterations 5
DILUPBiCGStab:  Solving for Uy, Initial residual = 0.0587772, Final residual = 0.000431794, No Iterations 5
DILUPBiCGStab:  Solving for Uz, Initial residual = 0.267121, Final residual = 0.00208932, No Iterations 5
linear solve U 485545
[OGL LOG] init_host_sparsity_pattern : 270 ms
[OGL LOG] matrix not stored update host matrix
[OGL LOG] update_host_mtx : 136 ms
[OGL LOG] matrix is not yet sorted, sorting host matrix
[OGL LOG] sort_host_mtx_sparsity_pattern : 116 ms
[OGL LOG] sort_host_mtx : 72 ms
[OGL LOG] init_preconditioner : 0 ms
[OGL LOG] solve : 255 ms
nonehipGKOCG:  Solving for p, Initial residual = 0.548346, Final residual = 9.88574e-05, No Iterations 629
linear solve p 876866
time step continuity errors : sum local = 5.03344e-08, global = -1.38729e-21, cumulative = 5.00418e-20
[OGL LOG] init_host_sparsity_pattern : 277 ms
[OGL LOG] matrix not stored update host matrix
[OGL LOG] update_host_mtx : 136 ms
[OGL LOG] matrix is not yet sorted, sorting host matrix
[OGL LOG] sort_host_mtx_sparsity_pattern : 114 ms
[OGL LOG] sort_host_mtx : 70 ms
[OGL LOG] init_preconditioner : 0 ms
[OGL LOG] solve : 272 ms
nonehipGKOCG:  Solving for p, Initial residual = 0.495421, Final residual = 9.60615e-05, No Iterations 644
linear solve p 901674
time step continuity errors : sum local = 4.83714e-08, global = 2.8168e-21, cumulative = 5.28586e-20
ExecutionTime = 23.12 s  ClockTime = 21 s

Time = 0.006

Courant Number mean: 0.101921 max: 0.79516
DILUPBiCGStab:  Solving for Ux, Initial residual = 0.0150869, Final residual = 0.000114136, No Iterations 5
DILUPBiCGStab:  Solving for Uy, Initial residual = 0.0475356, Final residual = 0.000338808, No Iterations 5
DILUPBiCGStab:  Solving for Uz, Initial residual = 0.192139, Final residual = 0.00152862, No Iterations 5
linear solve U 549930
[OGL LOG] init_host_sparsity_pattern : 271 ms
[OGL LOG] matrix not stored update host matrix
[OGL LOG] update_host_mtx : 132 ms
[OGL LOG] matrix is not yet sorted, sorting host matrix
[OGL LOG] sort_host_mtx_sparsity_pattern : 114 ms
[OGL LOG] sort_host_mtx : 72 ms
[OGL LOG] init_preconditioner : 0 ms
[OGL LOG] solve : 143 ms
nonehipGKOCG:  Solving for p, Initial residual = 0.404052, Final residual = 9.7912e-05, No Iterations 338
linear solve p 763447
time step continuity errors : sum local = 5.09371e-08, global = 8.94618e-21, cumulative = 6.18048e-20
[OGL LOG] init_host_sparsity_pattern : 280 ms
[OGL LOG] matrix not stored update host matrix
[OGL LOG] update_host_mtx : 136 ms
[OGL LOG] matrix is not yet sorted, sorting host matrix
[OGL LOG] sort_host_mtx_sparsity_pattern : 118 ms
[OGL LOG] sort_host_mtx : 70 ms
[OGL LOG] init_preconditioner : 0 ms
[OGL LOG] solve : 136 ms
nonehipGKOCG:  Solving for p, Initial residual = 0.35285, Final residual = 9.80672e-05, No Iterations 308
linear solve p 772871
time step continuity errors : sum local = 4.80051e-08, global = 6.26217e-21, cumulative = 6.8067e-20
ExecutionTime = 25.82 s  ClockTime = 24 s

Time = 0.007

Courant Number mean: 0.108308 max: 0.798726
DILUPBiCGStab:  Solving for Ux, Initial residual = 0.0125487, Final residual = 8.34826e-05, No Iterations 5
DILUPBiCGStab:  Solving for Uy, Initial residual = 0.0315104, Final residual = 0.000143871, No Iterations 5
DILUPBiCGStab:  Solving for Uz, Initial residual = 0.108452, Final residual = 0.00106073, No Iterations 5
linear solve U 538652
[OGL LOG] init_host_sparsity_pattern : 276 ms
[OGL LOG] matrix not stored update host matrix
[OGL LOG] update_host_mtx : 136 ms
[OGL LOG] matrix is not yet sorted, sorting host matrix
[OGL LOG] sort_host_mtx_sparsity_pattern : 111 ms
[OGL LOG] sort_host_mtx : 72 ms
[OGL LOG] init_preconditioner : 0 ms
[OGL LOG] solve : 127 ms
nonehipGKOCG:  Solving for p, Initial residual = 0.348869, Final residual = 9.9439e-05, No Iterations 302
linear solve p 750994
time step continuity errors : sum local = 4.10862e-08, global = 1.22085e-20, cumulative = 8.02755e-20
[OGL LOG] init_host_sparsity_pattern : 277 ms
[OGL LOG] matrix not stored update host matrix
[OGL LOG] update_host_mtx : 136 ms
[OGL LOG] matrix is not yet sorted, sorting host matrix
[OGL LOG] sort_host_mtx_sparsity_pattern : 113 ms
[OGL LOG] sort_host_mtx : 72 ms
[OGL LOG] init_preconditioner : 0 ms
[OGL LOG] solve : 128 ms
nonehipGKOCG:  Solving for p, Initial residual = 0.303433, Final residual = 9.09915e-05, No Iterations 302
linear solve p 754676
time step continuity errors : sum local = 3.7406e-08, global = 5.85149e-21, cumulative = 8.6127e-20
ExecutionTime = 28.39 s  ClockTime = 26 s

Time = 0.008

Courant Number mean: 0.11358 max: 0.802059
DILUPBiCGStab:  Solving for Ux, Initial residual = 0.00947147, Final residual = 5.53814e-05, No Iterations 5
DILUPBiCGStab:  Solving for Uy, Initial residual = 0.0266815, Final residual = 0.000128763, No Iterations 5
DILUPBiCGStab:  Solving for Uz, Initial residual = 0.0871249, Final residual = 0.000747354, No Iterations 5
linear solve U 501541
[OGL LOG] init_host_sparsity_pattern : 270 ms
[OGL LOG] matrix not stored update host matrix
[OGL LOG] update_host_mtx : 132 ms
[OGL LOG] matrix is not yet sorted, sorting host matrix
[OGL LOG] sort_host_mtx_sparsity_pattern : 116 ms
[OGL LOG] sort_host_mtx : 70 ms
[OGL LOG] init_preconditioner : 0 ms
[OGL LOG] solve : 128 ms
nonehipGKOCG:  Solving for p, Initial residual = 0.254626, Final residual = 9.8023e-05, No Iterations 303
linear solve p 745527
time step continuity errors : sum local = 4.44795e-08, global = -5.50838e-21, cumulative = 8.06186e-20
[OGL LOG] init_host_sparsity_pattern : 270 ms
[OGL LOG] matrix not stored update host matrix
[OGL LOG] update_host_mtx : 136 ms
[OGL LOG] matrix is not yet sorted, sorting host matrix
[OGL LOG] sort_host_mtx_sparsity_pattern : 119 ms
[OGL LOG] sort_host_mtx : 72 ms
[OGL LOG] init_preconditioner : 0 ms
[OGL LOG] solve : 128 ms
nonehipGKOCG:  Solving for p, Initial residual = 0.219043, Final residual = 9.72154e-05, No Iterations 300
linear solve p 754330
time step continuity errors : sum local = 4.05107e-08, global = -6.06305e-21, cumulative = 7.45556e-20
ExecutionTime = 30.91 s  ClockTime = 29 s

Time = 0.009

Courant Number mean: 0.118147 max: 0.804085
DILUPBiCGStab:  Solving for Ux, Initial residual = 0.00804442, Final residual = 4.21652e-05, No Iterations 5
DILUPBiCGStab:  Solving for Uy, Initial residual = 0.0203992, Final residual = 6.91565e-05, No Iterations 5
DILUPBiCGStab:  Solving for Uz, Initial residual = 0.0549982, Final residual = 0.000392218, No Iterations 5
linear solve U 499714
[OGL LOG] init_host_sparsity_pattern : 276 ms
[OGL LOG] matrix not stored update host matrix
[OGL LOG] update_host_mtx : 132 ms
[OGL LOG] matrix is not yet sorted, sorting host matrix
[OGL LOG] sort_host_mtx_sparsity_pattern : 116 ms
[OGL LOG] sort_host_mtx : 71 ms
[OGL LOG] init_preconditioner : 0 ms
[OGL LOG] solve : 122 ms
nonehipGKOCG:  Solving for p, Initial residual = 0.208466, Final residual = 9.66172e-05, No Iterations 293
linear solve p 745485
time step continuity errors : sum local = 3.93983e-08, global = -7.67021e-21, cumulative = 6.68854e-20
[OGL LOG] init_host_sparsity_pattern : 270 ms
[OGL LOG] matrix not stored update host matrix
[OGL LOG] update_host_mtx : 139 ms
[OGL LOG] matrix is not yet sorted, sorting host matrix
[OGL LOG] sort_host_mtx_sparsity_pattern : 115 ms
[OGL LOG] sort_host_mtx : 72 ms
[OGL LOG] init_preconditioner : 0 ms
[OGL LOG] solve : 122 ms
nonehipGKOCG:  Solving for p, Initial residual = 0.178067, Final residual = 9.83909e-05, No Iterations 290
linear solve p 749655
time step continuity errors : sum local = 3.75369e-08, global = -1.38985e-20, cumulative = 5.29869e-20
ExecutionTime = 33.39 s  ClockTime = 31 s

Time = 0.01

Courant Number mean: 0.122092 max: 0.806136
DILUPBiCGStab:  Solving for Ux, Initial residual = 0.00663589, Final residual = 3.18135e-05, No Iterations 5
DILUPBiCGStab:  Solving for Uy, Initial residual = 0.0177254, Final residual = 5.76117e-05, No Iterations 5
DILUPBiCGStab:  Solving for Uz, Initial residual = 0.0483991, Final residual = 0.000344273, No Iterations 5
linear solve U 498854
[OGL LOG] init_host_sparsity_pattern : 270 ms
[OGL LOG] matrix not stored update host matrix
[OGL LOG] update_host_mtx : 132 ms
[OGL LOG] matrix is not yet sorted, sorting host matrix
[OGL LOG] sort_host_mtx_sparsity_pattern : 117 ms
[OGL LOG] sort_host_mtx : 74 ms
[OGL LOG] init_preconditioner : 0 ms
[OGL LOG] solve : 255 ms
nonehipGKOCG:  Solving for p, Initial residual = 0.156315, Final residual = 9.59363e-05, No Iterations 605
linear solve p 876440
time step continuity errors : sum local = 3.48188e-08, global = 1.37344e-20, cumulative = 6.67213e-20
[OGL LOG] init_host_sparsity_pattern : 272 ms
[OGL LOG] matrix not stored update host matrix
[OGL LOG] update_host_mtx : 137 ms
[OGL LOG] matrix is not yet sorted, sorting host matrix
[OGL LOG] sort_host_mtx_sparsity_pattern : 110 ms
[OGL LOG] sort_host_mtx : 72 ms
[OGL LOG] init_preconditioner : 0 ms
[OGL LOG] solve : 252 ms
nonehipGKOCG:  Solving for p, Initial residual = 0.132584, Final residual = 9.78893e-05, No Iterations 603
linear solve p 871914
time step continuity errors : sum local = 3.54559e-08, global = -8.22716e-21, cumulative = 5.84941e-20
ExecutionTime = 36.32 s  ClockTime = 33 s

End

