/*---------------------------------------------------------------------------*\
  =========                 |
  \\      /  F ield         | OpenFOAM: The Open Source CFD Toolbox
   \\    /   O peration     | Website:  https://openfoam.org
    \\  /    A nd           | Version:  8
     \\/     M anipulation  |
\*---------------------------------------------------------------------------*/
Build  : 8-ef60d22ea792
Exec   : icoFoam
Date   : Jul 29 2021
Time   : 03:52:58
Host   : "uc2n414.localdomain"
PID    : 2865011
I/O    : uncollated
Case   : /pfs/data5/home/kit/scc/nq7776/code/OBR/lidDrivenCavity3D/Variation_mesh/70/Variation_matrix_solver/BiCGStab_NoPrecond_OMP/base
nProcs : 1
sigFpe : Enabling floating point exception trapping (FOAM_SIGFPE).
fileModificationChecking : Monitoring run-time modified files using timeStampMaster (fileModificationSkew 10)
allowSystemOperations : Allowing user-supplied system call operations

// * * * * * * * * * * * * * * * * * * * * * * * * * * * * * * * * * * * * * //
Create time

Create mesh for time = 0

Reading transportProperties

Reading field p

Reading field U

Reading/calculating face flux field phi


Starting time loop

Time = 0.001

Courant Number mean: 0 max: 0
DILUPBiCGStab:  Solving for Ux, Initial residual = 1, Final residual = 0.00143011, No Iterations 5
DILUPBiCGStab:  Solving for Uy:  solution singularity
DILUPBiCGStab:  Solving for Uz:  solution singularity
linear solve U 160056
[OGL LOG] init_host_sparsity_pattern : 98 ms
[OGL LOG] matrix not stored update host matrix
[OGL LOG] update_host_mtx : 50 ms
[OGL LOG] matrix is not yet sorted, compute sorting idxs
[OGL LOG] compute_sort : 2947 ms
[OGL LOG] matrix is not yet sorted, sorting host matrix
[OGL LOG] sort_host_mtx_sparsity_pattern : 70 ms
[OGL LOG] sort_host_mtx : 41 ms
[OGL LOG] init_preconditioner : 0 ms
[OGL LOG] solve : 8625 ms
noneompGKOBiCGStab:  Solving for p, Initial residual = 1, Final residual = 8.13453e-05, No Iterations 440
linear solve p 11903246
time step continuity errors : sum local = 1.55519e-07, global = -3.91794e-21, cumulative = -3.91794e-21
[OGL LOG] init_host_sparsity_pattern : 98 ms
[OGL LOG] matrix not stored update host matrix
[OGL LOG] update_host_mtx : 50 ms
[OGL LOG] matrix is not yet sorted, sorting host matrix
[OGL LOG] sort_host_mtx_sparsity_pattern : 70 ms
[OGL LOG] sort_host_mtx : 34 ms
[OGL LOG] init_preconditioner : 0 ms
[OGL LOG] solve : 8612 ms
noneompGKOBiCGStab:  Solving for p, Initial residual = 0.724211, Final residual = 9.66461e-05, No Iterations 441
linear solve p 8909275
time step continuity errors : sum local = 1.80204e-07, global = 1.08456e-21, cumulative = -2.83338e-21
ExecutionTime = 22.35 s  ClockTime = 23 s

Time = 0.002

Courant Number mean: 0.039404 max: 0.518351
DILUPBiCGStab:  Solving for Ux, Initial residual = 0.151576, Final residual = 0.000460338, No Iterations 5
DILUPBiCGStab:  Solving for Uy, Initial residual = 0.361746, Final residual = 0.00092893, No Iterations 5
DILUPBiCGStab:  Solving for Uz, Initial residual = 0.97749, Final residual = 0.0031179, No Iterations 5
linear solve U 320299
[OGL LOG] init_host_sparsity_pattern : 91 ms
[OGL LOG] matrix not stored update host matrix
[OGL LOG] update_host_mtx : 49 ms
[OGL LOG] matrix is not yet sorted, sorting host matrix
[OGL LOG] sort_host_mtx_sparsity_pattern : 69 ms
[OGL LOG] sort_host_mtx : 34 ms
[OGL LOG] init_preconditioner : 0 ms
[OGL LOG] solve : 8355 ms
noneompGKOBiCGStab:  Solving for p, Initial residual = 0.67482, Final residual = 6.79283e-05, No Iterations 428
linear solve p 8642782
time step continuity errors : sum local = 8.22941e-07, global = -1.03278e-20, cumulative = -1.31612e-20
[OGL LOG] init_host_sparsity_pattern : 91 ms
[OGL LOG] matrix not stored update host matrix
[OGL LOG] update_host_mtx : 47 ms
[OGL LOG] matrix is not yet sorted, sorting host matrix
[OGL LOG] sort_host_mtx_sparsity_pattern : 70 ms
[OGL LOG] sort_host_mtx : 35 ms
[OGL LOG] init_preconditioner : 0 ms
[OGL LOG] solve : 8638 ms
noneompGKOBiCGStab:  Solving for p, Initial residual = 0.602834, Final residual = 8.92257e-05, No Iterations 443
linear solve p 8925651
time step continuity errors : sum local = 2.86296e-07, global = -4.92203e-21, cumulative = -1.80832e-20
ExecutionTime = 40.36 s  ClockTime = 41 s

Time = 0.003

Courant Number mean: 0.0591528 max: 0.616328
DILUPBiCGStab:  Solving for Ux, Initial residual = 0.05186, Final residual = 0.000105247, No Iterations 5
DILUPBiCGStab:  Solving for Uy, Initial residual = 0.122043, Final residual = 0.000234096, No Iterations 5
DILUPBiCGStab:  Solving for Uz, Initial residual = 0.584065, Final residual = 0.00224777, No Iterations 5
linear solve U 321249
[OGL LOG] init_host_sparsity_pattern : 95 ms
[OGL LOG] matrix not stored update host matrix
[OGL LOG] update_host_mtx : 50 ms
[OGL LOG] matrix is not yet sorted, sorting host matrix
[OGL LOG] sort_host_mtx_sparsity_pattern : 70 ms
[OGL LOG] sort_host_mtx : 34 ms
[OGL LOG] init_preconditioner : 0 ms
[OGL LOG] solve : 7946 ms
noneompGKOBiCGStab:  Solving for p, Initial residual = 0.614094, Final residual = 9.95871e-05, No Iterations 407
linear solve p 8239344
time step continuity errors : sum local = 9.20419e-08, global = -9.41749e-21, cumulative = -2.75007e-20
[OGL LOG] init_host_sparsity_pattern : 98 ms
[OGL LOG] matrix not stored update host matrix
[OGL LOG] update_host_mtx : 50 ms
[OGL LOG] matrix is not yet sorted, sorting host matrix
[OGL LOG] sort_host_mtx_sparsity_pattern : 69 ms
[OGL LOG] sort_host_mtx : 35 ms
[OGL LOG] init_preconditioner : 0 ms
[OGL LOG] solve : 7460 ms
noneompGKOBiCGStab:  Solving for p, Initial residual = 0.560071, Final residual = 8.2437e-05, No Iterations 382
linear solve p 7757472
time step continuity errors : sum local = 1.16261e-07, global = -4.26817e-21, cumulative = -3.17689e-20
ExecutionTime = 56.82 s  ClockTime = 57 s

Time = 0.004

Courant Number mean: 0.069638 max: 0.629542
DILUPBiCGStab:  Solving for Ux, Initial residual = 0.0292514, Final residual = 5.90328e-05, No Iterations 5
DILUPBiCGStab:  Solving for Uy, Initial residual = 0.0801131, Final residual = 0.000135408, No Iterations 5
DILUPBiCGStab:  Solving for Uz, Initial residual = 0.342991, Final residual = 0.00102378, No Iterations 5
linear solve U 313728
[OGL LOG] init_host_sparsity_pattern : 93 ms
[OGL LOG] matrix not stored update host matrix
[OGL LOG] update_host_mtx : 50 ms
[OGL LOG] matrix is not yet sorted, sorting host matrix
[OGL LOG] sort_host_mtx_sparsity_pattern : 69 ms
[OGL LOG] sort_host_mtx : 34 ms
[OGL LOG] init_preconditioner : 0 ms
[OGL LOG] solve : 8154 ms
noneompGKOBiCGStab:  Solving for p, Initial residual = 0.392826, Final residual = 8.69113e-05, No Iterations 417
linear solve p 8445076
time step continuity errors : sum local = 7.89135e-08, global = 6.75282e-21, cumulative = -2.50161e-20
[OGL LOG] init_host_sparsity_pattern : 91 ms
[OGL LOG] matrix not stored update host matrix
[OGL LOG] update_host_mtx : 44 ms
[OGL LOG] matrix is not yet sorted, sorting host matrix
[OGL LOG] sort_host_mtx_sparsity_pattern : 69 ms
[OGL LOG] sort_host_mtx : 34 ms
[OGL LOG] init_preconditioner : 0 ms
[OGL LOG] solve : 7909 ms
noneompGKOBiCGStab:  Solving for p, Initial residual = 0.33143, Final residual = 9.04446e-05, No Iterations 404
linear solve p 8193357
time step continuity errors : sum local = 2.08263e-07, global = 1.04057e-20, cumulative = -1.46103e-20
ExecutionTime = 73.9 s  ClockTime = 74 s

Time = 0.005

Courant Number mean: 0.0778455 max: 0.639371
DILUPBiCGStab:  Solving for Ux, Initial residual = 0.0207161, Final residual = 3.1755e-05, No Iterations 5
DILUPBiCGStab:  Solving for Uy, Initial residual = 0.0472561, Final residual = 6.38089e-05, No Iterations 5
DILUPBiCGStab:  Solving for Uz, Initial residual = 0.165196, Final residual = 0.000525273, No Iterations 5
linear solve U 320224
[OGL LOG] init_host_sparsity_pattern : 96 ms
[OGL LOG] matrix not stored update host matrix
[OGL LOG] update_host_mtx : 50 ms
[OGL LOG] matrix is not yet sorted, sorting host matrix
[OGL LOG] sort_host_mtx_sparsity_pattern : 70 ms
[OGL LOG] sort_host_mtx : 35 ms
[OGL LOG] init_preconditioner : 0 ms
[OGL LOG] solve : 6788 ms
noneompGKOBiCGStab:  Solving for p, Initial residual = 0.29801, Final residual = 9.87266e-05, No Iterations 347
linear solve p 7083166
time step continuity errors : sum local = 1.23136e-07, global = -1.39553e-21, cumulative = -1.60058e-20
[OGL LOG] init_host_sparsity_pattern : 98 ms
[OGL LOG] matrix not stored update host matrix
[OGL LOG] update_host_mtx : 50 ms
[OGL LOG] matrix is not yet sorted, sorting host matrix
[OGL LOG] sort_host_mtx_sparsity_pattern : 69 ms
[OGL LOG] sort_host_mtx : 34 ms
[OGL LOG] init_preconditioner : 0 ms
[OGL LOG] solve : 6800 ms
noneompGKOBiCGStab:  Solving for p, Initial residual = 0.254795, Final residual = 9.80264e-05, No Iterations 348
linear solve p 7097396
time step continuity errors : sum local = 8.86224e-08, global = 8.44441e-21, cumulative = -7.56143e-21
ExecutionTime = 88.54 s  ClockTime = 89 s

Time = 0.006

Courant Number mean: 0.0841518 max: 0.645109
DILUPBiCGStab:  Solving for Ux, Initial residual = 0.0153321, Final residual = 2.21063e-05, No Iterations 5
DILUPBiCGStab:  Solving for Uy, Initial residual = 0.0359668, Final residual = 4.19391e-05, No Iterations 5
DILUPBiCGStab:  Solving for Uz, Initial residual = 0.13248, Final residual = 0.000386818, No Iterations 5
linear solve U 320723
[OGL LOG] init_host_sparsity_pattern : 98 ms
[OGL LOG] matrix not stored update host matrix
[OGL LOG] update_host_mtx : 50 ms
[OGL LOG] matrix is not yet sorted, sorting host matrix
[OGL LOG] sort_host_mtx_sparsity_pattern : 70 ms
[OGL LOG] sort_host_mtx : 36 ms
[OGL LOG] init_preconditioner : 0 ms
[OGL LOG] solve : 7811 ms
noneompGKOBiCGStab:  Solving for p, Initial residual = 0.185568, Final residual = 9.05755e-05, No Iterations 400
linear solve p 8109655
time step continuity errors : sum local = 6.92022e-08, global = -1.69869e-20, cumulative = -2.45483e-20
[OGL LOG] init_host_sparsity_pattern : 98 ms
[OGL LOG] matrix not stored update host matrix
[OGL LOG] update_host_mtx : 50 ms
[OGL LOG] matrix is not yet sorted, sorting host matrix
[OGL LOG] sort_host_mtx_sparsity_pattern : 69 ms
[OGL LOG] sort_host_mtx : 34 ms
[OGL LOG] init_preconditioner : 0 ms
[OGL LOG] solve : 7777 ms
noneompGKOBiCGStab:  Solving for p, Initial residual = 0.153968, Final residual = 8.36824e-05, No Iterations 397
linear solve p 8073729
time step continuity errors : sum local = 1.01893e-07, global = 2.05467e-20, cumulative = -4.00161e-21
ExecutionTime = 105.17 s  ClockTime = 106 s

Time = 0.007

Courant Number mean: 0.0893666 max: 0.649035
DILUPBiCGStab:  Solving for Ux, Initial residual = 0.0120407, Final residual = 1.2614e-05, No Iterations 5
DILUPBiCGStab:  Solving for Uy, Initial residual = 0.0279807, Final residual = 2.94622e-05, No Iterations 5
DILUPBiCGStab:  Solving for Uz, Initial residual = 0.0889914, Final residual = 0.000214993, No Iterations 5
linear solve U 316561
[OGL LOG] init_host_sparsity_pattern : 94 ms
[OGL LOG] matrix not stored update host matrix
[OGL LOG] update_host_mtx : 50 ms
[OGL LOG] matrix is not yet sorted, sorting host matrix
[OGL LOG] sort_host_mtx_sparsity_pattern : 70 ms
[OGL LOG] sort_host_mtx : 34 ms
[OGL LOG] init_preconditioner : 0 ms
[OGL LOG] solve : 6978 ms
noneompGKOBiCGStab:  Solving for p, Initial residual = 0.131468, Final residual = 9.83825e-05, No Iterations 358
linear solve p 7271350
time step continuity errors : sum local = 5.89344e-08, global = -9.5117e-21, cumulative = -1.35133e-20
[OGL LOG] init_host_sparsity_pattern : 98 ms
[OGL LOG] matrix not stored update host matrix
[OGL LOG] update_host_mtx : 50 ms
[OGL LOG] matrix is not yet sorted, sorting host matrix
[OGL LOG] sort_host_mtx_sparsity_pattern : 70 ms
[OGL LOG] sort_host_mtx : 35 ms
[OGL LOG] init_preconditioner : 0 ms
[OGL LOG] solve : 7192 ms
noneompGKOBiCGStab:  Solving for p, Initial residual = 0.110136, Final residual = 9.70931e-05, No Iterations 367
linear solve p 7489674
time step continuity errors : sum local = 3.37452e-07, global = 6.14357e-21, cumulative = -7.36975e-21
ExecutionTime = 120.39 s  ClockTime = 121 s

Time = 0.008

Courant Number mean: 0.0937133 max: 0.652053
DILUPBiCGStab:  Solving for Ux, Initial residual = 0.0101056, Final residual = 1.04623e-05, No Iterations 5
DILUPBiCGStab:  Solving for Uy, Initial residual = 0.0226307, Final residual = 2.31185e-05, No Iterations 5
DILUPBiCGStab:  Solving for Uz, Initial residual = 0.0867124, Final residual = 0.000265591, No Iterations 5
linear solve U 318823
[OGL LOG] init_host_sparsity_pattern : 94 ms
[OGL LOG] matrix not stored update host matrix
[OGL LOG] update_host_mtx : 51 ms
[OGL LOG] matrix is not yet sorted, sorting host matrix
[OGL LOG] sort_host_mtx_sparsity_pattern : 70 ms
[OGL LOG] sort_host_mtx : 35 ms
[OGL LOG] init_preconditioner : 0 ms
[OGL LOG] solve : 6858 ms
noneompGKOBiCGStab:  Solving for p, Initial residual = 0.0903325, Final residual = 9.98476e-05, No Iterations 351
linear solve p 7151812
time step continuity errors : sum local = 6.09972e-08, global = -1.15522e-20, cumulative = -1.8922e-20
[OGL LOG] init_host_sparsity_pattern : 95 ms
[OGL LOG] matrix not stored update host matrix
[OGL LOG] update_host_mtx : 50 ms
[OGL LOG] matrix is not yet sorted, sorting host matrix
[OGL LOG] sort_host_mtx_sparsity_pattern : 70 ms
[OGL LOG] sort_host_mtx : 35 ms
[OGL LOG] init_preconditioner : 0 ms
[OGL LOG] solve : 7591 ms
noneompGKOBiCGStab:  Solving for p, Initial residual = 0.0754611, Final residual = 9.97623e-05, No Iterations 389
linear solve p 7883989
time step continuity errors : sum local = 4.89494e-08, global = -9.64434e-21, cumulative = -2.85663e-20
ExecutionTime = 135.88 s  ClockTime = 137 s

Time = 0.009

Courant Number mean: 0.0974615 max: 0.654327
DILUPBiCGStab:  Solving for Ux, Initial residual = 0.00826941, Final residual = 6.61463e-06, No Iterations 5
DILUPBiCGStab:  Solving for Uy, Initial residual = 0.0196238, Final residual = 1.736e-05, No Iterations 5
DILUPBiCGStab:  Solving for Uz, Initial residual = 0.0672615, Final residual = 0.00018144, No Iterations 5
linear solve U 314675
[OGL LOG] init_host_sparsity_pattern : 91 ms
[OGL LOG] matrix not stored update host matrix
[OGL LOG] update_host_mtx : 44 ms
[OGL LOG] matrix is not yet sorted, sorting host matrix
[OGL LOG] sort_host_mtx_sparsity_pattern : 68 ms
[OGL LOG] sort_host_mtx : 35 ms
[OGL LOG] init_preconditioner : 0 ms
[OGL LOG] solve : 6657 ms
noneompGKOBiCGStab:  Solving for p, Initial residual = 0.0659035, Final residual = 9.85192e-05, No Iterations 341
linear solve p 6938139
time step continuity errors : sum local = 7.73506e-08, global = 7.46204e-21, cumulative = -2.11043e-20
[OGL LOG] init_host_sparsity_pattern : 91 ms
[OGL LOG] matrix not stored update host matrix
[OGL LOG] update_host_mtx : 46 ms
[OGL LOG] matrix is not yet sorted, sorting host matrix
[OGL LOG] sort_host_mtx_sparsity_pattern : 69 ms
[OGL LOG] sort_host_mtx : 34 ms
[OGL LOG] init_preconditioner : 0 ms
[OGL LOG] solve : 6472 ms
noneompGKOBiCGStab:  Solving for p, Initial residual = 0.055395, Final residual = 9.7497e-05, No Iterations 332
linear solve p 6756472
time step continuity errors : sum local = 6.5257e-08, global = -2.91201e-21, cumulative = -2.40163e-20
ExecutionTime = 150.03 s  ClockTime = 151 s

Time = 0.01

Courant Number mean: 0.100697 max: 0.656179
DILUPBiCGStab:  Solving for Ux, Initial residual = 0.00721367, Final residual = 5.72893e-06, No Iterations 5
DILUPBiCGStab:  Solving for Uy, Initial residual = 0.0163277, Final residual = 1.38382e-05, No Iterations 5
DILUPBiCGStab:  Solving for Uz, Initial residual = 0.0563842, Final residual = 0.000144282, No Iterations 5
linear solve U 312303
[OGL LOG] init_host_sparsity_pattern : 92 ms
[OGL LOG] matrix not stored update host matrix
[OGL LOG] update_host_mtx : 44 ms
[OGL LOG] matrix is not yet sorted, sorting host matrix
[OGL LOG] sort_host_mtx_sparsity_pattern : 70 ms
[OGL LOG] sort_host_mtx : 35 ms
[OGL LOG] init_preconditioner : 0 ms
[OGL LOG] solve : 7867 ms
noneompGKOBiCGStab:  Solving for p, Initial residual = 0.0470515, Final residual = 9.51568e-05, No Iterations 403
linear solve p 8152482
time step continuity errors : sum local = 4.83422e-08, global = -5.77237e-21, cumulative = -2.97887e-20
[OGL LOG] init_host_sparsity_pattern : 95 ms
[OGL LOG] matrix not stored update host matrix
[OGL LOG] update_host_mtx : 50 ms
[OGL LOG] matrix is not yet sorted, sorting host matrix
[OGL LOG] sort_host_mtx_sparsity_pattern : 69 ms
[OGL LOG] sort_host_mtx : 34 ms
[OGL LOG] init_preconditioner : 0 ms
[OGL LOG] solve : 7263 ms
noneompGKOBiCGStab:  Solving for p, Initial residual = 0.0400772, Final residual = 9.81439e-05, No Iterations 372
linear solve p 7554913
time step continuity errors : sum local = 4.4645e-08, global = -5.63449e-21, cumulative = -3.54232e-20
ExecutionTime = 166.18 s  ClockTime = 167 s

End

