/*---------------------------------------------------------------------------*\
  =========                 |
  \\      /  F ield         | OpenFOAM: The Open Source CFD Toolbox
   \\    /   O peration     | Website:  https://openfoam.org
    \\  /    A nd           | Version:  8
     \\/     M anipulation  |
\*---------------------------------------------------------------------------*/
Build  : 8-ef60d22ea792
Exec   : icoFoam
Date   : Jul 29 2021
Time   : 07:04:01
Host   : "uc2n414.localdomain"
PID    : 2880372
I/O    : uncollated
Case   : /pfs/data5/home/kit/scc/nq7776/code/OBR/lidDrivenCavity3D/Variation_mesh/80/Variation_matrix_solver/CG_NoPrecond_OMP/base
nProcs : 1
sigFpe : Enabling floating point exception trapping (FOAM_SIGFPE).
fileModificationChecking : Monitoring run-time modified files using timeStampMaster (fileModificationSkew 10)
allowSystemOperations : Allowing user-supplied system call operations

// * * * * * * * * * * * * * * * * * * * * * * * * * * * * * * * * * * * * * //
Create time

Create mesh for time = 0

Reading transportProperties

Reading field p

Reading field U

Reading/calculating face flux field phi


Starting time loop

Time = 0.001

Courant Number mean: 0 max: 0
DILUPBiCGStab:  Solving for Ux, Initial residual = 1, Final residual = 0.00289442, No Iterations 5
DILUPBiCGStab:  Solving for Uy:  solution singularity
DILUPBiCGStab:  Solving for Uz:  solution singularity
linear solve U 243539
[OGL LOG] init_host_sparsity_pattern : 145 ms
[OGL LOG] matrix not stored update host matrix
[OGL LOG] update_host_mtx : 75 ms
[OGL LOG] matrix is not yet sorted, compute sorting idxs
[OGL LOG] compute_sort : 4743 ms
[OGL LOG] matrix is not yet sorted, sorting host matrix
[OGL LOG] sort_host_mtx_sparsity_pattern : 105 ms
[OGL LOG] sort_host_mtx : 62 ms
[OGL LOG] init_preconditioner : 0 ms
[OGL LOG] solve : 9314 ms
noneompGKOCG:  Solving for p, Initial residual = 1, Final residual = 9.98961e-05, No Iterations 630
linear solve p 14549447
time step continuity errors : sum local = 5.85894e-08, global = 1.68967e-20, cumulative = 1.68967e-20
[OGL LOG] init_host_sparsity_pattern : 145 ms
[OGL LOG] matrix not stored update host matrix
[OGL LOG] update_host_mtx : 75 ms
[OGL LOG] matrix is not yet sorted, sorting host matrix
[OGL LOG] sort_host_mtx_sparsity_pattern : 105 ms
[OGL LOG] sort_host_mtx : 52 ms
[OGL LOG] init_preconditioner : 0 ms
[OGL LOG] solve : 9217 ms
noneompGKOCG:  Solving for p, Initial residual = 0.745901, Final residual = 9.94138e-05, No Iterations 622
linear solve p 9658802
time step continuity errors : sum local = 7.5866e-08, global = -1.12107e-21, cumulative = 1.57756e-20
ExecutionTime = 26.44 s  ClockTime = 27 s

Time = 0.002

Courant Number mean: 0.0451638 max: 0.613749
DILUPBiCGStab:  Solving for Ux, Initial residual = 0.146312, Final residual = 0.00105952, No Iterations 5
DILUPBiCGStab:  Solving for Uy, Initial residual = 0.385219, Final residual = 0.00246579, No Iterations 5
DILUPBiCGStab:  Solving for Uz, Initial residual = 0.987339, Final residual = 0.00712871, No Iterations 5
linear solve U 461027
[OGL LOG] init_host_sparsity_pattern : 135 ms
[OGL LOG] matrix not stored update host matrix
[OGL LOG] update_host_mtx : 66 ms
[OGL LOG] matrix is not yet sorted, sorting host matrix
[OGL LOG] sort_host_mtx_sparsity_pattern : 109 ms
[OGL LOG] sort_host_mtx : 52 ms
[OGL LOG] init_preconditioner : 0 ms
[OGL LOG] solve : 9152 ms
noneompGKOCG:  Solving for p, Initial residual = 0.724052, Final residual = 9.8417e-05, No Iterations 619
linear solve p 9583005
time step continuity errors : sum local = 8.88231e-08, global = -1.46353e-21, cumulative = 1.43121e-20
[OGL LOG] init_host_sparsity_pattern : 146 ms
[OGL LOG] matrix not stored update host matrix
[OGL LOG] update_host_mtx : 75 ms
[OGL LOG] matrix is not yet sorted, sorting host matrix
[OGL LOG] sort_host_mtx_sparsity_pattern : 105 ms
[OGL LOG] sort_host_mtx : 52 ms
[OGL LOG] init_preconditioner : 0 ms
[OGL LOG] solve : 9145 ms
noneompGKOCG:  Solving for p, Initial residual = 0.656901, Final residual = 9.77881e-05, No Iterations 617
linear solve p 9590278
time step continuity errors : sum local = 9.01113e-08, global = -1.0863e-20, cumulative = 3.44909e-21
ExecutionTime = 46.3 s  ClockTime = 46 s

Time = 0.003

Courant Number mean: 0.0679251 max: 0.721702
DILUPBiCGStab:  Solving for Ux, Initial residual = 0.0559034, Final residual = 0.000353232, No Iterations 5
DILUPBiCGStab:  Solving for Uy, Initial residual = 0.144779, Final residual = 0.000951858, No Iterations 5
DILUPBiCGStab:  Solving for Uz, Initial residual = 0.686645, Final residual = 0.00456139, No Iterations 5
linear solve U 465408
[OGL LOG] init_host_sparsity_pattern : 146 ms
[OGL LOG] matrix not stored update host matrix
[OGL LOG] update_host_mtx : 75 ms
[OGL LOG] matrix is not yet sorted, sorting host matrix
[OGL LOG] sort_host_mtx_sparsity_pattern : 105 ms
[OGL LOG] sort_host_mtx : 52 ms
[OGL LOG] init_preconditioner : 0 ms
[OGL LOG] solve : 5531 ms
noneompGKOCG:  Solving for p, Initial residual = 0.705438, Final residual = 9.83287e-05, No Iterations 372
linear solve p 5976089
time step continuity errors : sum local = 7.95821e-08, global = 1.60128e-20, cumulative = 1.94619e-20
[OGL LOG] init_host_sparsity_pattern : 146 ms
[OGL LOG] matrix not stored update host matrix
[OGL LOG] update_host_mtx : 75 ms
[OGL LOG] matrix is not yet sorted, sorting host matrix
[OGL LOG] sort_host_mtx_sparsity_pattern : 104 ms
[OGL LOG] sort_host_mtx : 52 ms
[OGL LOG] init_preconditioner : 0 ms
[OGL LOG] solve : 4993 ms
noneompGKOCG:  Solving for p, Initial residual = 0.663718, Final residual = 9.98531e-05, No Iterations 337
linear solve p 5437678
time step continuity errors : sum local = 7.13233e-08, global = -6.92049e-21, cumulative = 1.25415e-20
ExecutionTime = 58.43 s  ClockTime = 59 s

Time = 0.004

Courant Number mean: 0.0793946 max: 0.728868
DILUPBiCGStab:  Solving for Ux, Initial residual = 0.029595, Final residual = 0.000182211, No Iterations 5
DILUPBiCGStab:  Solving for Uy, Initial residual = 0.100119, Final residual = 0.000584242, No Iterations 5
DILUPBiCGStab:  Solving for Uz, Initial residual = 0.391392, Final residual = 0.00215904, No Iterations 5
linear solve U 469103
[OGL LOG] init_host_sparsity_pattern : 141 ms
[OGL LOG] matrix not stored update host matrix
[OGL LOG] update_host_mtx : 75 ms
[OGL LOG] matrix is not yet sorted, sorting host matrix
[OGL LOG] sort_host_mtx_sparsity_pattern : 105 ms
[OGL LOG] sort_host_mtx : 52 ms
[OGL LOG] init_preconditioner : 0 ms
[OGL LOG] solve : 5012 ms
noneompGKOCG:  Solving for p, Initial residual = 0.527083, Final residual = 9.92332e-05, No Iterations 338
linear solve p 5453167
time step continuity errors : sum local = 6.13253e-08, global = 1.03417e-20, cumulative = 2.28832e-20
[OGL LOG] init_host_sparsity_pattern : 146 ms
[OGL LOG] matrix not stored update host matrix
[OGL LOG] update_host_mtx : 75 ms
[OGL LOG] matrix is not yet sorted, sorting host matrix
[OGL LOG] sort_host_mtx_sparsity_pattern : 105 ms
[OGL LOG] sort_host_mtx : 52 ms
[OGL LOG] init_preconditioner : 0 ms
[OGL LOG] solve : 4946 ms
noneompGKOCG:  Solving for p, Initial residual = 0.463335, Final residual = 9.89692e-05, No Iterations 333
linear solve p 5390688
time step continuity errors : sum local = 6.078e-08, global = -7.05189e-22, cumulative = 2.2178e-20
ExecutionTime = 70 s  ClockTime = 70 s

Time = 0.005

Courant Number mean: 0.0889341 max: 0.739432
DILUPBiCGStab:  Solving for Ux, Initial residual = 0.0218897, Final residual = 0.000116414, No Iterations 5
DILUPBiCGStab:  Solving for Uy, Initial residual = 0.0522695, Final residual = 0.000204388, No Iterations 5
DILUPBiCGStab:  Solving for Uz, Initial residual = 0.183203, Final residual = 0.00114961, No Iterations 5
linear solve U 469268
[OGL LOG] init_host_sparsity_pattern : 142 ms
[OGL LOG] matrix not stored update host matrix
[OGL LOG] update_host_mtx : 76 ms
[OGL LOG] matrix is not yet sorted, sorting host matrix
[OGL LOG] sort_host_mtx_sparsity_pattern : 105 ms
[OGL LOG] sort_host_mtx : 52 ms
[OGL LOG] init_preconditioner : 0 ms
[OGL LOG] solve : 8926 ms
noneompGKOCG:  Solving for p, Initial residual = 0.462182, Final residual = 9.95478e-05, No Iterations 603
linear solve p 9367334
time step continuity errors : sum local = 4.68245e-08, global = -1.12731e-20, cumulative = 1.09048e-20
[OGL LOG] init_host_sparsity_pattern : 145 ms
[OGL LOG] matrix not stored update host matrix
[OGL LOG] update_host_mtx : 75 ms
[OGL LOG] matrix is not yet sorted, sorting host matrix
[OGL LOG] sort_host_mtx_sparsity_pattern : 104 ms
[OGL LOG] sort_host_mtx : 52 ms
[OGL LOG] init_preconditioner : 0 ms
[OGL LOG] solve : 8937 ms
noneompGKOCG:  Solving for p, Initial residual = 0.40961, Final residual = 9.64533e-05, No Iterations 603
linear solve p 9381364
time step continuity errors : sum local = 4.49085e-08, global = 3.06262e-21, cumulative = 1.39675e-20
ExecutionTime = 89.44 s  ClockTime = 90 s

Time = 0.006

Courant Number mean: 0.0960652 max: 0.745158
DILUPBiCGStab:  Solving for Ux, Initial residual = 0.0146607, Final residual = 6.87988e-05, No Iterations 5
DILUPBiCGStab:  Solving for Uy, Initial residual = 0.0417246, Final residual = 0.000169411, No Iterations 5
DILUPBiCGStab:  Solving for Uz, Initial residual = 0.139255, Final residual = 0.000809584, No Iterations 5
linear solve U 468439
[OGL LOG] init_host_sparsity_pattern : 141 ms
[OGL LOG] matrix not stored update host matrix
[OGL LOG] update_host_mtx : 75 ms
[OGL LOG] matrix is not yet sorted, sorting host matrix
[OGL LOG] sort_host_mtx_sparsity_pattern : 105 ms
[OGL LOG] sort_host_mtx : 52 ms
[OGL LOG] init_preconditioner : 0 ms
[OGL LOG] solve : 4287 ms
noneompGKOCG:  Solving for p, Initial residual = 0.316762, Final residual = 9.66848e-05, No Iterations 289
linear solve p 4727770
time step continuity errors : sum local = 4.76916e-08, global = 1.92722e-20, cumulative = 3.32397e-20
[OGL LOG] init_host_sparsity_pattern : 146 ms
[OGL LOG] matrix not stored update host matrix
[OGL LOG] update_host_mtx : 75 ms
[OGL LOG] matrix is not yet sorted, sorting host matrix
[OGL LOG] sort_host_mtx_sparsity_pattern : 104 ms
[OGL LOG] sort_host_mtx : 52 ms
[OGL LOG] init_preconditioner : 0 ms
[OGL LOG] solve : 4264 ms
noneompGKOCG:  Solving for p, Initial residual = 0.272166, Final residual = 9.36974e-05, No Iterations 287
linear solve p 4708594
time step continuity errors : sum local = 4.31772e-08, global = 6.58423e-21, cumulative = 3.98239e-20
ExecutionTime = 99.6 s  ClockTime = 100 s

Time = 0.007

Courant Number mean: 0.102039 max: 0.748859
DILUPBiCGStab:  Solving for Ux, Initial residual = 0.0119916, Final residual = 4.82759e-05, No Iterations 5
DILUPBiCGStab:  Solving for Uy, Initial residual = 0.0290035, Final residual = 7.92785e-05, No Iterations 5
DILUPBiCGStab:  Solving for Uz, Initial residual = 0.0730755, Final residual = 0.000389809, No Iterations 5
linear solve U 464080
[OGL LOG] init_host_sparsity_pattern : 146 ms
[OGL LOG] matrix not stored update host matrix
[OGL LOG] update_host_mtx : 75 ms
[OGL LOG] matrix is not yet sorted, sorting host matrix
[OGL LOG] sort_host_mtx_sparsity_pattern : 105 ms
[OGL LOG] sort_host_mtx : 52 ms
[OGL LOG] init_preconditioner : 0 ms
[OGL LOG] solve : 4119 ms
noneompGKOCG:  Solving for p, Initial residual = 0.254573, Final residual = 9.8591e-05, No Iterations 278
linear solve p 4564722
time step continuity errors : sum local = 4.07461e-08, global = 9.75684e-22, cumulative = 4.07996e-20
[OGL LOG] init_host_sparsity_pattern : 150 ms
[OGL LOG] matrix not stored update host matrix
[OGL LOG] update_host_mtx : 75 ms
[OGL LOG] matrix is not yet sorted, sorting host matrix
[OGL LOG] sort_host_mtx_sparsity_pattern : 105 ms
[OGL LOG] sort_host_mtx : 52 ms
[OGL LOG] init_preconditioner : 0 ms
[OGL LOG] solve : 4094 ms
noneompGKOCG:  Solving for p, Initial residual = 0.218112, Final residual = 9.63893e-05, No Iterations 276
linear solve p 4543311
time step continuity errors : sum local = 3.89293e-08, global = -2.40135e-20, cumulative = 1.67861e-20
ExecutionTime = 109.43 s  ClockTime = 110 s

Time = 0.008

Courant Number mean: 0.10702 max: 0.752042
DILUPBiCGStab:  Solving for Ux, Initial residual = 0.00935299, Final residual = 3.41181e-05, No Iterations 5
DILUPBiCGStab:  Solving for Uy, Initial residual = 0.024277, Final residual = 6.39824e-05, No Iterations 5
DILUPBiCGStab:  Solving for Uz, Initial residual = 0.0621739, Final residual = 0.000328012, No Iterations 5
linear solve U 468329
[OGL LOG] init_host_sparsity_pattern : 141 ms
[OGL LOG] matrix not stored update host matrix
[OGL LOG] update_host_mtx : 75 ms
[OGL LOG] matrix is not yet sorted, sorting host matrix
[OGL LOG] sort_host_mtx_sparsity_pattern : 105 ms
[OGL LOG] sort_host_mtx : 52 ms
[OGL LOG] init_preconditioner : 0 ms
[OGL LOG] solve : 4098 ms
noneompGKOCG:  Solving for p, Initial residual = 0.177825, Final residual = 9.71546e-05, No Iterations 275
linear solve p 4538705
time step continuity errors : sum local = 4.21282e-08, global = 2.16901e-20, cumulative = 3.84762e-20
[OGL LOG] init_host_sparsity_pattern : 146 ms
[OGL LOG] matrix not stored update host matrix
[OGL LOG] update_host_mtx : 75 ms
[OGL LOG] matrix is not yet sorted, sorting host matrix
[OGL LOG] sort_host_mtx_sparsity_pattern : 104 ms
[OGL LOG] sort_host_mtx : 52 ms
[OGL LOG] init_preconditioner : 0 ms
[OGL LOG] solve : 4040 ms
noneompGKOCG:  Solving for p, Initial residual = 0.149848, Final residual = 9.72897e-05, No Iterations 272
linear solve p 4485110
time step continuity errors : sum local = 3.929e-08, global = -6.21345e-21, cumulative = 3.22627e-20
ExecutionTime = 119.18 s  ClockTime = 119 s

Time = 0.009

Courant Number mean: 0.111296 max: 0.754179
DILUPBiCGStab:  Solving for Ux, Initial residual = 0.00786575, Final residual = 2.30947e-05, No Iterations 5
DILUPBiCGStab:  Solving for Uy, Initial residual = 0.0194114, Final residual = 4.04792e-05, No Iterations 5
DILUPBiCGStab:  Solving for Uz, Initial residual = 0.0413536, Final residual = 0.000135651, No Iterations 5
linear solve U 465406
[OGL LOG] init_host_sparsity_pattern : 141 ms
[OGL LOG] matrix not stored update host matrix
[OGL LOG] update_host_mtx : 80 ms
[OGL LOG] matrix is not yet sorted, sorting host matrix
[OGL LOG] sort_host_mtx_sparsity_pattern : 105 ms
[OGL LOG] sort_host_mtx : 52 ms
[OGL LOG] init_preconditioner : 0 ms
[OGL LOG] solve : 3971 ms
noneompGKOCG:  Solving for p, Initial residual = 0.137495, Final residual = 9.81303e-05, No Iterations 268
linear solve p 4415696
time step continuity errors : sum local = 3.75028e-08, global = -4.53095e-21, cumulative = 2.77318e-20
[OGL LOG] init_host_sparsity_pattern : 146 ms
[OGL LOG] matrix not stored update host matrix
[OGL LOG] update_host_mtx : 75 ms
[OGL LOG] matrix is not yet sorted, sorting host matrix
[OGL LOG] sort_host_mtx_sparsity_pattern : 109 ms
[OGL LOG] sort_host_mtx : 51 ms
[OGL LOG] init_preconditioner : 0 ms
[OGL LOG] solve : 3945 ms
noneompGKOCG:  Solving for p, Initial residual = 0.116033, Final residual = 9.65405e-05, No Iterations 266
linear solve p 4395026
time step continuity errors : sum local = 3.64715e-08, global = -2.5393e-20, cumulative = 2.33876e-21
ExecutionTime = 128.71 s  ClockTime = 129 s

Time = 0.01

Courant Number mean: 0.115011 max: 0.756139
DILUPBiCGStab:  Solving for Ux, Initial residual = 0.00662964, Final residual = 1.77895e-05, No Iterations 5
DILUPBiCGStab:  Solving for Uy, Initial residual = 0.0166916, Final residual = 3.22044e-05, No Iterations 5
DILUPBiCGStab:  Solving for Uz, Initial residual = 0.0373626, Final residual = 0.000141786, No Iterations 5
linear solve U 468803
[OGL LOG] init_host_sparsity_pattern : 142 ms
[OGL LOG] matrix not stored update host matrix
[OGL LOG] update_host_mtx : 75 ms
[OGL LOG] matrix is not yet sorted, sorting host matrix
[OGL LOG] sort_host_mtx_sparsity_pattern : 105 ms
[OGL LOG] sort_host_mtx : 52 ms
[OGL LOG] init_preconditioner : 0 ms
[OGL LOG] solve : 3942 ms
noneompGKOCG:  Solving for p, Initial residual = 0.0985334, Final residual = 9.67061e-05, No Iterations 266
linear solve p 4383568
time step continuity errors : sum local = 4.18755e-08, global = 1.43244e-20, cumulative = 1.66631e-20
[OGL LOG] init_host_sparsity_pattern : 151 ms
[OGL LOG] matrix not stored update host matrix
[OGL LOG] update_host_mtx : 75 ms
[OGL LOG] matrix is not yet sorted, sorting host matrix
[OGL LOG] sort_host_mtx_sparsity_pattern : 104 ms
[OGL LOG] sort_host_mtx : 52 ms
[OGL LOG] init_preconditioner : 0 ms
[OGL LOG] solve : 3844 ms
noneompGKOCG:  Solving for p, Initial residual = 0.0823494, Final residual = 9.93341e-05, No Iterations 259
linear solve p 4294181
time step continuity errors : sum local = 3.8781e-08, global = 1.06377e-20, cumulative = 2.73008e-20
ExecutionTime = 138.11 s  ClockTime = 138 s

End

