/*---------------------------------------------------------------------------*\
  =========                 |
  \\      /  F ield         | OpenFOAM: The Open Source CFD Toolbox
   \\    /   O peration     | Website:  https://openfoam.org
    \\  /    A nd           | Version:  8
     \\/     M anipulation  |
\*---------------------------------------------------------------------------*/
Build  : 8-ef60d22ea792
Exec   : icoFoam
Date   : Jul 28 2021
Time   : 22:39:56
Host   : "uc2n420.localdomain"
PID    : 971398
I/O    : uncollated
Case   : /pfs/data5/home/kit/scc/nq7776/code/OBR/lidDrivenCavity3D/Variation_mesh/5/Variation_matrix_solver/CG_NoPrecond_Serial/base
nProcs : 1
sigFpe : Enabling floating point exception trapping (FOAM_SIGFPE).
fileModificationChecking : Monitoring run-time modified files using timeStampMaster (fileModificationSkew 10)
allowSystemOperations : Allowing user-supplied system call operations

// * * * * * * * * * * * * * * * * * * * * * * * * * * * * * * * * * * * * * //
Create time

Create mesh for time = 0

Reading transportProperties

Reading field p

Reading field U

Reading/calculating face flux field phi


Starting time loop

Time = 0.001

Courant Number mean: 0 max: 0
DILUPBiCGStab:  Solving for Ux, Initial residual = 1, Final residual = 8.38041e-30, No Iterations 5
DILUPBiCGStab:  Solving for Uy:  solution singularity
DILUPBiCGStab:  Solving for Uz:  solution singularity
linear solve U 151
nonePCG:  Solving for p, Initial residual = 1, Final residual = 4.84498e-05, No Iterations 31
linear solve p 90
time step continuity errors : sum local = 9.09472e-09, global = -6.39514e-22, cumulative = -6.39514e-22
nonePCG:  Solving for p, Initial residual = 0.054493, Final residual = 9.23434e-05, No Iterations 26
linear solve p 66
time step continuity errors : sum local = 3.41031e-08, global = 6.35109e-21, cumulative = 5.71158e-21
ExecutionTime = 0.04 s  ClockTime = 0 s

Time = 0.002

Courant Number mean: 0.000593121 max: 0.00137349
DILUPBiCGStab:  Solving for Ux, Initial residual = 0.290545, Final residual = 1.32905e-30, No Iterations 5
DILUPBiCGStab:  Solving for Uy, Initial residual = 0.317546, Final residual = 1.13415e-30, No Iterations 5
DILUPBiCGStab:  Solving for Uz, Initial residual = 0.317208, Final residual = 2.84825e-30, No Iterations 5
linear solve U 102
nonePCG:  Solving for p, Initial residual = 0.1104, Final residual = 9.32052e-05, No Iterations 15
linear solve p 35
time step continuity errors : sum local = 5.30678e-08, global = -8.14215e-21, cumulative = -2.43057e-21
nonePCG:  Solving for p, Initial residual = 0.00289511, Final residual = 6.30732e-05, No Iterations 10
linear solve p 28
time step continuity errors : sum local = 3.92713e-08, global = -2.09e-21, cumulative = -4.52057e-21
ExecutionTime = 0.04 s  ClockTime = 0 s

Time = 0.003

Courant Number mean: 0.00113041 max: 0.00263299
DILUPBiCGStab:  Solving for Ux, Initial residual = 0.161947, Final residual = 7.38224e-31, No Iterations 5
DILUPBiCGStab:  Solving for Uy, Initial residual = 0.186574, Final residual = 6.79899e-31, No Iterations 5
DILUPBiCGStab:  Solving for Uz, Initial residual = 0.229807, Final residual = 1.62825e-30, No Iterations 5
linear solve U 101
nonePCG:  Solving for p, Initial residual = 0.0561612, Final residual = 9.20398e-05, No Iterations 23
linear solve p 43
time step continuity errors : sum local = 4.33131e-08, global = -3.8344e-21, cumulative = -8.35496e-21
nonePCG:  Solving for p, Initial residual = 0.00153164, Final residual = 6.01959e-05, No Iterations 6
linear solve p 24
time step continuity errors : sum local = 3.39461e-08, global = -1.72757e-21, cumulative = -1.00825e-20
ExecutionTime = 0.04 s  ClockTime = 0 s

Time = 0.004

Courant Number mean: 0.0016182 max: 0.00379122
DILUPBiCGStab:  Solving for Ux, Initial residual = 0.108854, Final residual = 5.0147e-31, No Iterations 5
DILUPBiCGStab:  Solving for Uy, Initial residual = 0.129126, Final residual = 4.60966e-31, No Iterations 5
DILUPBiCGStab:  Solving for Uz, Initial residual = 0.175221, Final residual = 1.05011e-30, No Iterations 5
linear solve U 100
nonePCG:  Solving for p, Initial residual = 0.0347343, Final residual = 9.72683e-05, No Iterations 12
linear solve p 30
time step continuity errors : sum local = 6.57366e-08, global = 4.80912e-21, cumulative = -5.27341e-21
nonePCG:  Solving for p, Initial residual = 0.00102688, Final residual = 6.55629e-05, No Iterations 7
linear solve p 24
time step continuity errors : sum local = 5.07217e-08, global = -7.5381e-21, cumulative = -1.28115e-20
ExecutionTime = 0.04 s  ClockTime = 0 s

Time = 0.005

Courant Number mean: 0.00206191 max: 0.00485796
DILUPBiCGStab:  Solving for Ux, Initial residual = 0.0800669, Final residual = 3.73332e-31, No Iterations 5
DILUPBiCGStab:  Solving for Uy, Initial residual = 0.0966906, Final residual = 3.34074e-31, No Iterations 5
DILUPBiCGStab:  Solving for Uz, Initial residual = 0.142945, Final residual = 7.06755e-31, No Iterations 5
linear solve U 99
nonePCG:  Solving for p, Initial residual = 0.0235499, Final residual = 8.7461e-05, No Iterations 23
linear solve p 42
time step continuity errors : sum local = 4.71668e-08, global = -2.40643e-20, cumulative = -3.68758e-20
nonePCG:  Solving for p, Initial residual = 0.000765996, Final residual = 7.82535e-05, No Iterations 6
linear solve p 24
time step continuity errors : sum local = 4.92475e-08, global = 2.8065e-20, cumulative = -8.81084e-21
ExecutionTime = 0.04 s  ClockTime = 0 s

Time = 0.006

Courant Number mean: 0.00246619 max: 0.00584194
DILUPBiCGStab:  Solving for Ux, Initial residual = 0.0620368, Final residual = 2.91999e-31, No Iterations 5
DILUPBiCGStab:  Solving for Uy, Initial residual = 0.0759909, Final residual = 2.54714e-31, No Iterations 5
DILUPBiCGStab:  Solving for Uz, Initial residual = 0.118556, Final residual = 6.23756e-31, No Iterations 5
linear solve U 101
nonePCG:  Solving for p, Initial residual = 0.0172962, Final residual = 8.59925e-05, No Iterations 12
linear solve p 30
time step continuity errors : sum local = 6.98059e-08, global = -5.07972e-21, cumulative = -1.38906e-20
nonePCG:  Solving for p, Initial residual = 0.000632016, Final residual = 7.56719e-05, No Iterations 6
linear solve p 23
time step continuity errors : sum local = 6.3277e-08, global = -6.24604e-21, cumulative = -2.01366e-20
ExecutionTime = 0.04 s  ClockTime = 0 s

Time = 0.007

Courant Number mean: 0.00283514 max: 0.00675067
DILUPBiCGStab:  Solving for Ux, Initial residual = 0.0497806, Final residual = 2.35987e-31, No Iterations 5
DILUPBiCGStab:  Solving for Uy, Initial residual = 0.061636, Final residual = 2.02427e-31, No Iterations 5
DILUPBiCGStab:  Solving for Uz, Initial residual = 0.101567, Final residual = 6.15619e-31, No Iterations 5
linear solve U 102
nonePCG:  Solving for p, Initial residual = 0.0132894, Final residual = 6.93904e-05, No Iterations 23
linear solve p 43
time step continuity errors : sum local = 3.96611e-08, global = -2.44941e-20, cumulative = -4.46307e-20
nonePCG:  Solving for p, Initial residual = 0.000522891, Final residual = 6.38747e-05, No Iterations 6
linear solve p 23
time step continuity errors : sum local = 4.40806e-08, global = -1.38563e-20, cumulative = -5.8487e-20
ExecutionTime = 0.04 s  ClockTime = 0 s

Time = 0.008

Courant Number mean: 0.00317231 max: 0.00759082
DILUPBiCGStab:  Solving for Ux, Initial residual = 0.0409003, Final residual = 1.95653e-31, No Iterations 5
DILUPBiCGStab:  Solving for Uy, Initial residual = 0.0512142, Final residual = 1.67148e-31, No Iterations 5
DILUPBiCGStab:  Solving for Uz, Initial residual = 0.0874898, Final residual = 6.14289e-31, No Iterations 5
linear solve U 98
nonePCG:  Solving for p, Initial residual = 0.0106288, Final residual = 7.60746e-05, No Iterations 12
linear solve p 30
time step continuity errors : sum local = 6.66053e-08, global = 6.34758e-21, cumulative = -5.21394e-20
nonePCG:  Solving for p, Initial residual = 0.000468705, Final residual = 6.61507e-05, No Iterations 6
linear solve p 23
time step continuity errors : sum local = 5.90496e-08, global = 1.5551e-22, cumulative = -5.19839e-20
ExecutionTime = 0.04 s  ClockTime = 0 s

Time = 0.009

Courant Number mean: 0.00348091 max: 0.00836826
DILUPBiCGStab:  Solving for Ux, Initial residual = 0.0342429, Final residual = 1.65817e-31, No Iterations 5
DILUPBiCGStab:  Solving for Uy, Initial residual = 0.0432833, Final residual = 1.40213e-31, No Iterations 5
DILUPBiCGStab:  Solving for Uz, Initial residual = 0.0773212, Final residual = 5.98324e-31, No Iterations 5
linear solve U 107
nonePCG:  Solving for p, Initial residual = 0.00873331, Final residual = 6.71879e-05, No Iterations 23
linear solve p 43
time step continuity errors : sum local = 4.0571e-08, global = 9.92617e-21, cumulative = -4.20577e-20
nonePCG:  Solving for p, Initial residual = 0.000427432, Final residual = 9.25453e-05, No Iterations 5
linear solve p 22
time step continuity errors : sum local = 6.1341e-08, global = -2.50065e-20, cumulative = -6.70642e-20
ExecutionTime = 0.04 s  ClockTime = 0 s

Time = 0.01

Courant Number mean: 0.0037637 max: 0.00908823
DILUPBiCGStab:  Solving for Ux, Initial residual = 0.0290452, Final residual = 1.43104e-31, No Iterations 5
DILUPBiCGStab:  Solving for Uy, Initial residual = 0.0371272, Final residual = 1.19519e-31, No Iterations 5
DILUPBiCGStab:  Solving for Uz, Initial residual = 0.0683991, Final residual = 4.96443e-31, No Iterations 5
linear solve U 100
nonePCG:  Solving for p, Initial residual = 0.00735346, Final residual = 6.69308e-05, No Iterations 12
linear solve p 30
time step continuity errors : sum local = 6.18481e-08, global = -1.47339e-20, cumulative = -8.17981e-20
nonePCG:  Solving for p, Initial residual = 0.000384769, Final residual = 8.28759e-05, No Iterations 5
linear solve p 22
time step continuity errors : sum local = 7.01591e-08, global = -5.12438e-21, cumulative = -8.69225e-20
ExecutionTime = 0.04 s  ClockTime = 0 s

End

