/*---------------------------------------------------------------------------*\
  =========                 |
  \\      /  F ield         | OpenFOAM: The Open Source CFD Toolbox
   \\    /   O peration     | Website:  https://openfoam.org
    \\  /    A nd           | Version:  8
     \\/     M anipulation  |
\*---------------------------------------------------------------------------*/
Build  : 8-ef60d22ea792
Exec   : icoFoam
Date   : Jul 29 2021
Time   : 05:09:15
Host   : "nla-gpu2.ianm.kit.edu"
PID    : 1893810
I/O    : uncollated
Case   : /home/greole/code/OBR/lidDrivenCavity3D/Variation_mesh/100/Variation_matrix_solver/CG_NoPrecond_Serial/base
nProcs : 1
sigFpe : Enabling floating point exception trapping (FOAM_SIGFPE).
fileModificationChecking : Monitoring run-time modified files using timeStampMaster (fileModificationSkew 10)
allowSystemOperations : Allowing user-supplied system call operations

// * * * * * * * * * * * * * * * * * * * * * * * * * * * * * * * * * * * * * //
Create time

Create mesh for time = 0

Reading transportProperties

Reading field p

Reading field U

Reading/calculating face flux field phi


Starting time loop

Time = 0.001

Courant Number mean: 0 max: 0
DILUPBiCGStab:  Solving for Ux, Initial residual = 1, Final residual = 0.00717233, No Iterations 5
DILUPBiCGStab:  Solving for Uy:  solution singularity
DILUPBiCGStab:  Solving for Uz:  solution singularity
linear solve U 413799
nonePCG:  Solving for p, Initial residual = 1, Final residual = 9.86814e-05, No Iterations 792
linear solve p 9868607
time step continuity errors : sum local = 5.65272e-08, global = 1.27122e-20, cumulative = 1.27122e-20
nonePCG:  Solving for p, Initial residual = 0.777277, Final residual = 9.93355e-05, No Iterations 783
linear solve p 9743312
time step continuity errors : sum local = 7.17968e-08, global = -1.28163e-20, cumulative = -1.04047e-22
ExecutionTime = 24.52 s  ClockTime = 25 s

Time = 0.002

Courant Number mean: 0.0560717 max: 0.805494
DILUPBiCGStab:  Solving for Ux, Initial residual = 0.138283, Final residual = 0.00319035, No Iterations 5
DILUPBiCGStab:  Solving for Uy, Initial residual = 0.430536, Final residual = 0.00909563, No Iterations 5
DILUPBiCGStab:  Solving for Uz, Initial residual = 0.990289, Final residual = 0.0225809, No Iterations 5
linear solve U 811909
nonePCG:  Solving for p, Initial residual = 0.7998, Final residual = 9.59717e-05, No Iterations 779
linear solve p 9723076
time step continuity errors : sum local = 9.82031e-08, global = -1.32333e-20, cumulative = -1.33374e-20
nonePCG:  Solving for p, Initial residual = 0.740752, Final residual = 9.5232e-05, No Iterations 777
linear solve p 9627993
time step continuity errors : sum local = 9.94621e-08, global = 1.01807e-21, cumulative = -1.23193e-20
ExecutionTime = 45.08 s  ClockTime = 45 s

Time = 0.003

Courant Number mean: 0.0852775 max: 0.943639
DILUPBiCGStab:  Solving for Ux, Initial residual = 0.0649266, Final residual = 0.00112815, No Iterations 5
DILUPBiCGStab:  Solving for Uy, Initial residual = 0.225984, Final residual = 0.00296622, No Iterations 5
DILUPBiCGStab:  Solving for Uz, Initial residual = 0.792339, Final residual = 0.0162125, No Iterations 5
linear solve U 809231
nonePCG:  Solving for p, Initial residual = 0.83298, Final residual = 9.91788e-05, No Iterations 464
linear solve p 5761419
time step continuity errors : sum local = 9.62267e-08, global = -7.09035e-21, cumulative = -1.94096e-20
nonePCG:  Solving for p, Initial residual = 0.802274, Final residual = 9.72378e-05, No Iterations 463
linear solve p 5775263
time step continuity errors : sum local = 9.16767e-08, global = 7.36098e-21, cumulative = -1.20487e-20
ExecutionTime = 57.85 s  ClockTime = 58 s

Time = 0.004

Courant Number mean: 0.098204 max: 0.926367
DILUPBiCGStab:  Solving for Ux, Initial residual = 0.0388057, Final residual = 0.000835244, No Iterations 5
DILUPBiCGStab:  Solving for Uy, Initial residual = 0.168213, Final residual = 0.00318242, No Iterations 5
DILUPBiCGStab:  Solving for Uz, Initial residual = 0.629426, Final residual = 0.0109808, No Iterations 5
linear solve U 816684
nonePCG:  Solving for p, Initial residual = 0.749448, Final residual = 9.52073e-05, No Iterations 463
linear solve p 5803619
time step continuity errors : sum local = 8.91547e-08, global = -5.96587e-21, cumulative = -1.80145e-20
nonePCG:  Solving for p, Initial residual = 0.685121, Final residual = 9.98652e-05, No Iterations 425
linear solve p 5256074
time step continuity errors : sum local = 9.17411e-08, global = 1.177e-21, cumulative = -1.68375e-20
ExecutionTime = 70.15 s  ClockTime = 70 s

Time = 0.005

Courant Number mean: 0.110594 max: 0.944582
DILUPBiCGStab:  Solving for Ux, Initial residual = 0.0304961, Final residual = 0.000612166, No Iterations 5
DILUPBiCGStab:  Solving for Uy, Initial residual = 0.0983616, Final residual = 0.00202356, No Iterations 5
DILUPBiCGStab:  Solving for Uz, Initial residual = 0.588973, Final residual = 0.00952845, No Iterations 5
linear solve U 816206
nonePCG:  Solving for p, Initial residual = 0.757795, Final residual = 9.77332e-05, No Iterations 417
linear solve p 5226967
time step continuity errors : sum local = 7.55276e-08, global = -1.35466e-21, cumulative = -1.81922e-20
nonePCG:  Solving for p, Initial residual = 0.709853, Final residual = 9.95044e-05, No Iterations 415
linear solve p 5180512
time step continuity errors : sum local = 7.39821e-08, global = 1.02367e-21, cumulative = -1.71685e-20
ExecutionTime = 81.79 s  ClockTime = 82 s

Time = 0.006

Courant Number mean: 0.118979 max: 0.944965
DILUPBiCGStab:  Solving for Ux, Initial residual = 0.0203435, Final residual = 0.000433559, No Iterations 5
DILUPBiCGStab:  Solving for Uy, Initial residual = 0.0819496, Final residual = 0.00163634, No Iterations 5
DILUPBiCGStab:  Solving for Uz, Initial residual = 0.435508, Final residual = 0.00700301, No Iterations 5
linear solve U 812102
nonePCG:  Solving for p, Initial residual = 0.661676, Final residual = 9.97159e-05, No Iterations 414
linear solve p 5182191
time step continuity errors : sum local = 7.24385e-08, global = 1.50346e-20, cumulative = -2.1339e-21
nonePCG:  Solving for p, Initial residual = 0.600805, Final residual = 9.87611e-05, No Iterations 411
linear solve p 5080395
time step continuity errors : sum local = 7.03969e-08, global = -1.97331e-20, cumulative = -2.1867e-20
ExecutionTime = 93.31 s  ClockTime = 94 s

Time = 0.007

Courant Number mean: 0.12661 max: 0.947975
DILUPBiCGStab:  Solving for Ux, Initial residual = 0.0176481, Final residual = 0.000355204, No Iterations 5
DILUPBiCGStab:  Solving for Uy, Initial residual = 0.055722, Final residual = 0.00126654, No Iterations 5
DILUPBiCGStab:  Solving for Uz, Initial residual = 0.380335, Final residual = 0.00587198, No Iterations 5
linear solve U 811378
nonePCG:  Solving for p, Initial residual = 0.659781, Final residual = 9.90704e-05, No Iterations 375
linear solve p 4703142
time step continuity errors : sum local = 5.83215e-08, global = 3.35969e-21, cumulative = -1.85073e-20
nonePCG:  Solving for p, Initial residual = 0.602216, Final residual = 9.79677e-05, No Iterations 374
linear solve p 4627109
time step continuity errors : sum local = 5.74014e-08, global = -6.02878e-21, cumulative = -2.45361e-20
ExecutionTime = 103.88 s  ClockTime = 104 s

Time = 0.008

Courant Number mean: 0.132627 max: 0.951942
DILUPBiCGStab:  Solving for Ux, Initial residual = 0.0129784, Final residual = 0.000262089, No Iterations 5
DILUPBiCGStab:  Solving for Uy, Initial residual = 0.0477263, Final residual = 0.00100305, No Iterations 5
DILUPBiCGStab:  Solving for Uz, Initial residual = 0.287304, Final residual = 0.00449056, No Iterations 5
linear solve U 811434
nonePCG:  Solving for p, Initial residual = 0.567225, Final residual = 9.9988e-05, No Iterations 401
linear solve p 5025411
time step continuity errors : sum local = 6.16346e-08, global = 3.68671e-22, cumulative = -2.41674e-20
nonePCG:  Solving for p, Initial residual = 0.50949, Final residual = 9.93362e-05, No Iterations 382
linear solve p 4718149
time step continuity errors : sum local = 5.79784e-08, global = -5.0448e-21, cumulative = -2.92122e-20
ExecutionTime = 114.86 s  ClockTime = 115 s

Time = 0.009

Courant Number mean: 0.138049 max: 0.953444
DILUPBiCGStab:  Solving for Ux, Initial residual = 0.0114572, Final residual = 0.000213913, No Iterations 5
DILUPBiCGStab:  Solving for Uy, Initial residual = 0.0357581, Final residual = 0.000794872, No Iterations 5
DILUPBiCGStab:  Solving for Uz, Initial residual = 0.245539, Final residual = 0.00385253, No Iterations 5
linear solve U 810877
nonePCG:  Solving for p, Initial residual = 0.555994, Final residual = 9.82375e-05, No Iterations 381
linear solve p 4776417
time step continuity errors : sum local = 5.28032e-08, global = 1.8873e-21, cumulative = -2.73249e-20
nonePCG:  Solving for p, Initial residual = 0.496563, Final residual = 9.86189e-05, No Iterations 375
linear solve p 4636656
time step continuity errors : sum local = 4.87086e-08, global = 2.04826e-20, cumulative = -6.84234e-21
ExecutionTime = 125.52 s  ClockTime = 126 s

Time = 0.01

Courant Number mean: 0.142642 max: 0.955916
DILUPBiCGStab:  Solving for Ux, Initial residual = 0.00901441, Final residual = 0.000162866, No Iterations 5
DILUPBiCGStab:  Solving for Uy, Initial residual = 0.0309002, Final residual = 0.00063639, No Iterations 5
DILUPBiCGStab:  Solving for Uz, Initial residual = 0.19121, Final residual = 0.00313469, No Iterations 5
linear solve U 814134
nonePCG:  Solving for p, Initial residual = 0.477449, Final residual = 9.7439e-05, No Iterations 759
linear solve p 9470547
time step continuity errors : sum local = 4.63909e-08, global = 6.00372e-21, cumulative = -8.38617e-22
nonePCG:  Solving for p, Initial residual = 0.424625, Final residual = 9.8732e-05, No Iterations 758
linear solve p 9350931
time step continuity errors : sum local = 4.68484e-08, global = 1.38184e-20, cumulative = 1.29798e-20
ExecutionTime = 145.53 s  ClockTime = 146 s

End

