/*---------------------------------------------------------------------------*\
  =========                 |
  \\      /  F ield         | OpenFOAM: The Open Source CFD Toolbox
   \\    /   O peration     | Website:  https://openfoam.org
    \\  /    A nd           | Version:  8
     \\/     M anipulation  |
\*---------------------------------------------------------------------------*/
Build  : 8-ef60d22ea792
Exec   : icoFoam
Date   : Jul 29 2021
Time   : 02:41:48
Host   : "uc2n489.localdomain"
PID    : 3409672
I/O    : uncollated
Case   : /pfs/data5/home/kit/scc/nq7776/code/OBR/lidDrivenCavity3D/Variation_mesh/75/Variation_matrix_solver/BiCGStab_NoPrecond_CUDA/base
nProcs : 1
sigFpe : Enabling floating point exception trapping (FOAM_SIGFPE).
fileModificationChecking : Monitoring run-time modified files using timeStampMaster (fileModificationSkew 10)
allowSystemOperations : Allowing user-supplied system call operations

// * * * * * * * * * * * * * * * * * * * * * * * * * * * * * * * * * * * * * //
Create time

Create mesh for time = 0

Reading transportProperties

Reading field p

Reading field U

Reading/calculating face flux field phi


Starting time loop

Time = 0.001

Courant Number mean: 0 max: 0
DILUPBiCGStab:  Solving for Ux, Initial residual = 1, Final residual = 0.00209367, No Iterations 5
DILUPBiCGStab:  Solving for Uy:  solution singularity
DILUPBiCGStab:  Solving for Uz:  solution singularity
linear solve U 204365
[OGL LOG] init_host_sparsity_pattern : 119 ms
[OGL LOG] matrix not stored update host matrix
[OGL LOG] update_host_mtx : 62 ms
[OGL LOG] matrix is not yet sorted, compute sorting idxs
[OGL LOG] compute_sort : 3635 ms
[OGL LOG] matrix is not yet sorted, sorting host matrix
[OGL LOG] sort_host_mtx_sparsity_pattern : 84 ms
[OGL LOG] sort_host_mtx : 48 ms
[OGL LOG] init_preconditioner : 0 ms
[OGL LOG] solve : 577 ms
nonecudaGKOBiCGStab:  Solving for p, Initial residual = 1, Final residual = 4.79064e-05, No Iterations 461
linear solve p 5292589
time step continuity errors : sum local = 0.00357063, global = 7.51952e-18, cumulative = 7.51952e-18
[OGL LOG] init_host_sparsity_pattern : 113 ms
[OGL LOG] matrix not stored update host matrix
[OGL LOG] update_host_mtx : 62 ms
[OGL LOG] matrix is not yet sorted, sorting host matrix
[OGL LOG] sort_host_mtx_sparsity_pattern : 89 ms
[OGL LOG] sort_host_mtx : 45 ms
[OGL LOG] init_preconditioner : 0 ms
[OGL LOG] solve : 251 ms
nonecudaGKOBiCGStab:  Solving for p, Initial residual = 0.963042, Final residual = 9.88231e-05, No Iterations 199
linear solve p 591614
time step continuity errors : sum local = 1.12907e-06, global = 2.02958e-20, cumulative = 7.53982e-18
ExecutionTime = 7.83 s  ClockTime = 8 s

Time = 0.002

Courant Number mean: 0.0423663 max: 0.572585
DILUPBiCGStab:  Solving for Ux, Initial residual = 0.151029, Final residual = 0.000725381, No Iterations 5
DILUPBiCGStab:  Solving for Uy, Initial residual = 0.382404, Final residual = 0.00173855, No Iterations 5
DILUPBiCGStab:  Solving for Uz, Initial residual = 0.881518, Final residual = 0.00736145, No Iterations 5
linear solve U 401865
[OGL LOG] init_host_sparsity_pattern : 111 ms
[OGL LOG] matrix not stored update host matrix
[OGL LOG] update_host_mtx : 54 ms
[OGL LOG] matrix is not yet sorted, sorting host matrix
[OGL LOG] sort_host_mtx_sparsity_pattern : 78 ms
[OGL LOG] sort_host_mtx : 43 ms
[OGL LOG] init_preconditioner : 0 ms
[OGL LOG] solve : 583 ms
nonecudaGKOBiCGStab:  Solving for p, Initial residual = 0.984653, Final residual = 9.78805e-05, No Iterations 465
linear solve p 896481
time step continuity errors : sum local = 0.00245681, global = -1.21037e-17, cumulative = -4.56392e-18
[OGL LOG] init_host_sparsity_pattern : 111 ms
[OGL LOG] matrix not stored update host matrix
[OGL LOG] update_host_mtx : 54 ms
[OGL LOG] matrix is not yet sorted, sorting host matrix
[OGL LOG] sort_host_mtx_sparsity_pattern : 78 ms
[OGL LOG] sort_host_mtx : 43 ms
[OGL LOG] init_preconditioner : 0 ms
[OGL LOG] solve : 255 ms
nonecudaGKOBiCGStab:  Solving for p, Initial residual = 0.838291, Final residual = 9.80411e-05, No Iterations 201
linear solve p 568772
time step continuity errors : sum local = 1.96295e-06, global = 8.21049e-21, cumulative = -4.55571e-18
ExecutionTime = 9.94 s  ClockTime = 10 s

Time = 0.003

Courant Number mean: 0.0732843 max: 0.82276
DILUPBiCGStab:  Solving for Ux, Initial residual = 0.0741118, Final residual = 0.000256454, No Iterations 5
DILUPBiCGStab:  Solving for Uy, Initial residual = 0.238021, Final residual = 0.00102842, No Iterations 5
DILUPBiCGStab:  Solving for Uz, Initial residual = 0.8147, Final residual = 0.00498523, No Iterations 5
linear solve U 406131
[OGL LOG] init_host_sparsity_pattern : 111 ms
[OGL LOG] matrix not stored update host matrix
[OGL LOG] update_host_mtx : 54 ms
[OGL LOG] matrix is not yet sorted, sorting host matrix
[OGL LOG] sort_host_mtx_sparsity_pattern : 78 ms
[OGL LOG] sort_host_mtx : 43 ms
[OGL LOG] init_preconditioner : 0 ms
[OGL LOG] solve : 520 ms
nonecudaGKOBiCGStab:  Solving for p, Initial residual = 0.974473, Final residual = 9.96258e-05, No Iterations 416
linear solve p 833149
time step continuity errors : sum local = 0.00864073, global = -4.22649e-19, cumulative = -4.97836e-18
[OGL LOG] init_host_sparsity_pattern : 111 ms
[OGL LOG] matrix not stored update host matrix
[OGL LOG] update_host_mtx : 59 ms
[OGL LOG] matrix is not yet sorted, sorting host matrix
[OGL LOG] sort_host_mtx_sparsity_pattern : 85 ms
[OGL LOG] sort_host_mtx : 44 ms
[OGL LOG] init_preconditioner : 0 ms
[OGL LOG] solve : 413 ms
nonecudaGKOBiCGStab:  Solving for p, Initial residual = 0.779223, Final residual = 9.91607e-05, No Iterations 328
linear solve p 742408
time step continuity errors : sum local = 0.000635181, global = 9.65683e-19, cumulative = -4.01267e-18
ExecutionTime = 12.17 s  ClockTime = 12 s

Time = 0.004

Courant Number mean: 0.080789 max: 0.859335
DILUPBiCGStab:  Solving for Ux, Initial residual = 0.0542691, Final residual = 0.000219284, No Iterations 5
DILUPBiCGStab:  Solving for Uy, Initial residual = 0.220999, Final residual = 0.00144255, No Iterations 5
DILUPBiCGStab:  Solving for Uz, Initial residual = 0.857327, Final residual = 0.00623629, No Iterations 5
linear solve U 399458
[OGL LOG] init_host_sparsity_pattern : 111 ms
[OGL LOG] matrix not stored update host matrix
[OGL LOG] update_host_mtx : 54 ms
[OGL LOG] matrix is not yet sorted, sorting host matrix
[OGL LOG] sort_host_mtx_sparsity_pattern : 78 ms
[OGL LOG] sort_host_mtx : 43 ms
[OGL LOG] init_preconditioner : 0 ms
[OGL LOG] solve : 512 ms
nonecudaGKOBiCGStab:  Solving for p, Initial residual = 0.983331, Final residual = 8.78917e-05, No Iterations 406
linear solve p 827143
time step continuity errors : sum local = 0.020004, global = -4.02364e-17, cumulative = -4.42491e-17
[OGL LOG] init_host_sparsity_pattern : 111 ms
[OGL LOG] matrix not stored update host matrix
[OGL LOG] update_host_mtx : 54 ms
[OGL LOG] matrix is not yet sorted, sorting host matrix
[OGL LOG] sort_host_mtx_sparsity_pattern : 81 ms
[OGL LOG] sort_host_mtx : 43 ms
[OGL LOG] init_preconditioner : 0 ms
[OGL LOG] solve : 509 ms
nonecudaGKOBiCGStab:  Solving for p, Initial residual = 0.788484, Final residual = 4.08054e-05, No Iterations 407
linear solve p 825303
time step continuity errors : sum local = 3.29899e-06, global = 2.85574e-21, cumulative = -4.42462e-17
ExecutionTime = 14.48 s  ClockTime = 15 s

Time = 0.005

Courant Number mean: 0.11368 max: 1.18475
DILUPBiCGStab:  Solving for Ux, Initial residual = 0.099065, Final residual = 0.00039885, No Iterations 5
DILUPBiCGStab:  Solving for Uy, Initial residual = 0.348149, Final residual = 0.0023159, No Iterations 5
DILUPBiCGStab:  Solving for Uz, Initial residual = 0.833721, Final residual = 0.00589242, No Iterations 5
linear solve U 404159
[OGL LOG] init_host_sparsity_pattern : 111 ms
[OGL LOG] matrix not stored update host matrix
[OGL LOG] update_host_mtx : 54 ms
[OGL LOG] matrix is not yet sorted, sorting host matrix
[OGL LOG] sort_host_mtx_sparsity_pattern : 78 ms
[OGL LOG] sort_host_mtx : 43 ms
[OGL LOG] init_preconditioner : 0 ms
[OGL LOG] solve : 516 ms
nonecudaGKOBiCGStab:  Solving for p, Initial residual = 0.985649, Final residual = 8.13417e-05, No Iterations 411
linear solve p 828690
time step continuity errors : sum local = 0.235724, global = 5.66381e-17, cumulative = 1.23919e-17
[OGL LOG] init_host_sparsity_pattern : 111 ms
[OGL LOG] matrix not stored update host matrix
[OGL LOG] update_host_mtx : 54 ms
[OGL LOG] matrix is not yet sorted, sorting host matrix
[OGL LOG] sort_host_mtx_sparsity_pattern : 78 ms
[OGL LOG] sort_host_mtx : 43 ms
[OGL LOG] init_preconditioner : 0 ms
[OGL LOG] solve : 176 ms
nonecudaGKOBiCGStab:  Solving for p, Initial residual = 0.81874, Final residual = 9.39144e-05, No Iterations 136
linear solve p 489971
time step continuity errors : sum local = 4.83006e-05, global = 9.16417e-20, cumulative = 1.24835e-17
ExecutionTime = 16.43 s  ClockTime = 17 s

Time = 0.006

Courant Number mean: 0.156731 max: 2.15767
DILUPBiCGStab:  Solving for Ux, Initial residual = 0.175964, Final residual = 0.000953735, No Iterations 5
DILUPBiCGStab:  Solving for Uy, Initial residual = 0.514881, Final residual = 0.00577669, No Iterations 5
DILUPBiCGStab:  Solving for Uz, Initial residual = 0.854486, Final residual = 0.00712219, No Iterations 5
linear solve U 401210
[OGL LOG] init_host_sparsity_pattern : 111 ms
[OGL LOG] matrix not stored update host matrix
[OGL LOG] update_host_mtx : 54 ms
[OGL LOG] matrix is not yet sorted, sorting host matrix
[OGL LOG] sort_host_mtx_sparsity_pattern : 78 ms
[OGL LOG] sort_host_mtx : 43 ms
[OGL LOG] init_preconditioner : 0 ms
[OGL LOG] solve : 474 ms
nonecudaGKOBiCGStab:  Solving for p, Initial residual = 0.996782, Final residual = 7.70326e-05, No Iterations 378
linear solve p 787329
time step continuity errors : sum local = 0.750873, global = 1.32298e-15, cumulative = 1.33546e-15
[OGL LOG] init_host_sparsity_pattern : 111 ms
[OGL LOG] matrix not stored update host matrix
[OGL LOG] update_host_mtx : 57 ms
[OGL LOG] matrix is not yet sorted, sorting host matrix
[OGL LOG] sort_host_mtx_sparsity_pattern : 85 ms
[OGL LOG] sort_host_mtx : 47 ms
[OGL LOG] init_preconditioner : 0 ms
[OGL LOG] solve : 194 ms
nonecudaGKOBiCGStab:  Solving for p, Initial residual = 0.770853, Final residual = 9.18293e-05, No Iterations 152
linear solve p 523221
time step continuity errors : sum local = 0.000299474, global = -2.00742e-18, cumulative = 1.33345e-15
ExecutionTime = 18.39 s  ClockTime = 19 s

Time = 0.007

Courant Number mean: 0.989058 max: 25.3173
DILUPBiCGStab:  Solving for Ux, Initial residual = 0.604418, Final residual = 0.00350099, No Iterations 5
DILUPBiCGStab:  Solving for Uy, Initial residual = 0.763913, Final residual = 0.00670849, No Iterations 5
DILUPBiCGStab:  Solving for Uz, Initial residual = 0.834938, Final residual = 0.00730418, No Iterations 5
linear solve U 400878
[OGL LOG] init_host_sparsity_pattern : 111 ms
[OGL LOG] matrix not stored update host matrix
[OGL LOG] update_host_mtx : 54 ms
[OGL LOG] matrix is not yet sorted, sorting host matrix
[OGL LOG] sort_host_mtx_sparsity_pattern : 78 ms
[OGL LOG] sort_host_mtx : 43 ms
[OGL LOG] init_preconditioner : 0 ms
[OGL LOG] solve : 517 ms
nonecudaGKOBiCGStab:  Solving for p, Initial residual = 0.99086, Final residual = 3.74482e-05, No Iterations 413
linear solve p 830357
time step continuity errors : sum local = 3.24024, global = -6.30912e-15, cumulative = -4.97567e-15
[OGL LOG] init_host_sparsity_pattern : 114 ms
[OGL LOG] matrix not stored update host matrix
[OGL LOG] update_host_mtx : 55 ms
[OGL LOG] matrix is not yet sorted, sorting host matrix
[OGL LOG] sort_host_mtx_sparsity_pattern : 80 ms
[OGL LOG] sort_host_mtx : 43 ms
[OGL LOG] init_preconditioner : 0 ms
[OGL LOG] solve : 491 ms
nonecudaGKOBiCGStab:  Solving for p, Initial residual = 0.766744, Final residual = 4.54586e-05, No Iterations 390
linear solve p 812894
time step continuity errors : sum local = 0.000468212, global = 2.33548e-18, cumulative = -4.97334e-15
ExecutionTime = 20.68 s  ClockTime = 21 s

Time = 0.008

Courant Number mean: 3.06209 max: 50.1643
DILUPBiCGStab:  Solving for Ux, Initial residual = 0.690985, Final residual = 0.00943496, No Iterations 5
DILUPBiCGStab:  Solving for Uy, Initial residual = 0.727605, Final residual = 0.00927523, No Iterations 5
DILUPBiCGStab:  Solving for Uz, Initial residual = 0.825318, Final residual = 0.105876, No Iterations 5
linear solve U 400856
[OGL LOG] init_host_sparsity_pattern : 111 ms
[OGL LOG] matrix not stored update host matrix
[OGL LOG] update_host_mtx : 54 ms
[OGL LOG] matrix is not yet sorted, sorting host matrix
[OGL LOG] sort_host_mtx_sparsity_pattern : 78 ms
[OGL LOG] sort_host_mtx : 43 ms
[OGL LOG] init_preconditioner : 0 ms
[OGL LOG] solve : 541 ms
nonecudaGKOBiCGStab:  Solving for p, Initial residual = 0.9607, Final residual = 8.5595e-05, No Iterations 421
linear solve p 854250
time step continuity errors : sum local = 4.74203, global = 1.21933e-15, cumulative = -3.75401e-15
[OGL LOG] init_host_sparsity_pattern : 116 ms
[OGL LOG] matrix not stored update host matrix
[OGL LOG] update_host_mtx : 54 ms
[OGL LOG] matrix is not yet sorted, sorting host matrix
[OGL LOG] sort_host_mtx_sparsity_pattern : 78 ms
[OGL LOG] sort_host_mtx : 43 ms
[OGL LOG] init_preconditioner : 0 ms
[OGL LOG] solve : 473 ms
nonecudaGKOBiCGStab:  Solving for p, Initial residual = 0.816275, Final residual = 8.52847e-05, No Iterations 369
linear solve p 790863
time step continuity errors : sum local = 0.00297172, global = 2.44685e-17, cumulative = -3.72954e-15
ExecutionTime = 22.97 s  ClockTime = 23 s

Time = 0.009

Courant Number mean: 19.8121 max: 312.743
DILUPBiCGStab:  Solving for Ux, Initial residual = 0.72651, Final residual = 0.239977, No Iterations 5
DILUPBiCGStab:  Solving for Uy, Initial residual = 0.737264, Final residual = 0.249991, No Iterations 5
DILUPBiCGStab:  Solving for Uz, Initial residual = 0.787997, Final residual = 0.395549, No Iterations 5
linear solve U 400428
[OGL LOG] init_host_sparsity_pattern : 112 ms
[OGL LOG] matrix not stored update host matrix
[OGL LOG] update_host_mtx : 54 ms
[OGL LOG] matrix is not yet sorted, sorting host matrix
[OGL LOG] sort_host_mtx_sparsity_pattern : 78 ms
[OGL LOG] sort_host_mtx : 45 ms
[OGL LOG] init_preconditioner : 0 ms
[OGL LOG] solve : 567 ms
nonecudaGKOBiCGStab:  Solving for p, Initial residual = 0.845677, Final residual = 8.60367e-05, No Iterations 443
linear solve p 884842
time step continuity errors : sum local = 6.9704, global = -5.66064e-15, cumulative = -9.39018e-15
[OGL LOG] init_host_sparsity_pattern : 114 ms
[OGL LOG] matrix not stored update host matrix
[OGL LOG] update_host_mtx : 54 ms
[OGL LOG] matrix is not yet sorted, sorting host matrix
[OGL LOG] sort_host_mtx_sparsity_pattern : 78 ms
[OGL LOG] sort_host_mtx : 43 ms
[OGL LOG] init_preconditioner : 0 ms
[OGL LOG] solve : 262 ms
nonecudaGKOBiCGStab:  Solving for p, Initial residual = 0.821895, Final residual = 9.81171e-05, No Iterations 202
linear solve p 577220
time step continuity errors : sum local = 0.0030963, global = -1.53248e-17, cumulative = -9.40551e-15
ExecutionTime = 25.07 s  ClockTime = 25 s

Time = 0.01

Courant Number mean: 34.0953 max: 1405.12
DILUPBiCGStab:  Solving for Ux, Initial residual = 0.753462, Final residual = 15.4511, No Iterations 5
DILUPBiCGStab:  Solving for Uy, Initial residual = 0.747031, Final residual = 2.94929, No Iterations 5
DILUPBiCGStab:  Solving for Uz, Initial residual = 0.820513, Final residual = 15.8425, No Iterations 5
linear solve U 399363
[OGL LOG] init_host_sparsity_pattern : 111 ms
[OGL LOG] matrix not stored update host matrix
[OGL LOG] update_host_mtx : 59 ms
[OGL LOG] matrix is not yet sorted, sorting host matrix
[OGL LOG] sort_host_mtx_sparsity_pattern : 85 ms
[OGL LOG] sort_host_mtx : 44 ms
[OGL LOG] init_preconditioner : 0 ms
[OGL LOG] solve : 509 ms
nonecudaGKOBiCGStab:  Solving for p, Initial residual = 0.979709, Final residual = 7.53566e-05, No Iterations 397
linear solve p 837821
time step continuity errors : sum local = 233.956, global = -1.79685e-13, cumulative = -1.89091e-13
[OGL LOG] init_host_sparsity_pattern : 112 ms
[OGL LOG] matrix not stored update host matrix
[OGL LOG] update_host_mtx : 54 ms
[OGL LOG] matrix is not yet sorted, sorting host matrix
[OGL LOG] sort_host_mtx_sparsity_pattern : 78 ms
[OGL LOG] sort_host_mtx : 43 ms
[OGL LOG] init_preconditioner : 0 ms
[OGL LOG] solve : 232 ms
nonecudaGKOBiCGStab:  Solving for p, Initial residual = 0.797965, Final residual = 8.35297e-05, No Iterations 179
linear solve p 545746
time step continuity errors : sum local = 0.068753, global = -1.07421e-15, cumulative = -1.90165e-13
ExecutionTime = 27.1 s  ClockTime = 27 s

End

