/*---------------------------------------------------------------------------*\
  =========                 |
  \\      /  F ield         | OpenFOAM: The Open Source CFD Toolbox
   \\    /   O peration     | Website:  https://openfoam.org
    \\  /    A nd           | Version:  8
     \\/     M anipulation  |
\*---------------------------------------------------------------------------*/
Build  : 8-ef60d22ea792
Exec   : icoFoam
Date   : Jul 29 2021
Time   : 08:09:47
Host   : "nla-gpu2.ianm.kit.edu"
PID    : 1975113
I/O    : uncollated
Case   : /home/greole/code/OBR/lidDrivenCavity3D/Variation_mesh/35/Variation_matrix_solver/BiCGStab_DIC_Serial/base
nProcs : 1
sigFpe : Enabling floating point exception trapping (FOAM_SIGFPE).
fileModificationChecking : Monitoring run-time modified files using timeStampMaster (fileModificationSkew 10)
allowSystemOperations : Allowing user-supplied system call operations

// * * * * * * * * * * * * * * * * * * * * * * * * * * * * * * * * * * * * * //
Create time

Create mesh for time = 0

Reading transportProperties

Reading field p

Reading field U

Reading/calculating face flux field phi


Starting time loop

Time = 0.001

Courant Number mean: 0 max: 0
DILUPBiCGStab:  Solving for Ux, Initial residual = 1, Final residual = 2.20563e-06, No Iterations 5
DILUPBiCGStab:  Solving for Uy:  solution singularity
DILUPBiCGStab:  Solving for Uz:  solution singularity
linear solve U 15354
DICPBiCGStab:  Solving for p, Initial residual = 1, Final residual = 4.88622e-05, No Iterations 67
linear solve p 102696
time step continuity errors : sum local = 3.19174e-08, global = 7.42394e-23, cumulative = 7.42394e-23
DICPBiCGStab:  Solving for p, Initial residual = 0.574373, Final residual = 7.21093e-05, No Iterations 67
linear solve p 104016
time step continuity errors : sum local = 7.64289e-08, global = -5.45055e-21, cumulative = -5.37631e-21
ExecutionTime = 0.49 s  ClockTime = 1 s

Time = 0.002

Courant Number mean: 0.0182993 max: 0.19203
DILUPBiCGStab:  Solving for Ux, Initial residual = 0.186244, Final residual = 3.84092e-07, No Iterations 5
DILUPBiCGStab:  Solving for Uy, Initial residual = 0.280738, Final residual = 4.97993e-07, No Iterations 5
DILUPBiCGStab:  Solving for Uz, Initial residual = 0.943241, Final residual = 1.89781e-06, No Iterations 5
linear solve U 30435
DICPBiCGStab:  Solving for p, Initial residual = 0.410362, Final residual = 6.43045e-05, No Iterations 64
linear solve p 100377
time step continuity errors : sum local = 1.01766e-07, global = 1.22502e-20, cumulative = 6.87393e-21
DICPBiCGStab:  Solving for p, Initial residual = 0.311719, Final residual = 1.40096e-05, No Iterations 63
linear solve p 100133
time step continuity errors : sum local = 1.94539e-08, global = 1.03344e-20, cumulative = 1.72083e-20
ExecutionTime = 0.73 s  ClockTime = 1 s

Time = 0.003

Courant Number mean: 0.0280033 max: 0.255325
DILUPBiCGStab:  Solving for Ux, Initial residual = 0.0713722, Final residual = 1.27776e-07, No Iterations 5
DILUPBiCGStab:  Solving for Uy, Initial residual = 0.10977, Final residual = 1.16889e-07, No Iterations 5
DILUPBiCGStab:  Solving for Uz, Initial residual = 0.173287, Final residual = 3.61333e-07, No Iterations 5
linear solve U 29585
DICPBiCGStab:  Solving for p, Initial residual = 0.128755, Final residual = 9.52363e-05, No Iterations 55
linear solve p 85799
time step continuity errors : sum local = 1.3053e-07, global = -7.92087e-21, cumulative = 9.28741e-21
DICPBiCGStab:  Solving for p, Initial residual = 0.0986252, Final residual = 9.80704e-05, No Iterations 27
linear solve p 42492
time step continuity errors : sum local = 9.73569e-08, global = 2.7651e-20, cumulative = 3.69385e-20
ExecutionTime = 0.92 s  ClockTime = 1 s

Time = 0.004

Courant Number mean: 0.0339239 max: 0.277399
DILUPBiCGStab:  Solving for Ux, Initial residual = 0.0414799, Final residual = 6.92983e-08, No Iterations 5
DILUPBiCGStab:  Solving for Uy, Initial residual = 0.0675595, Final residual = 4.49801e-08, No Iterations 5
DILUPBiCGStab:  Solving for Uz, Initial residual = 0.113044, Final residual = 1.04637e-07, No Iterations 5
linear solve U 28540
DICPBiCGStab:  Solving for p, Initial residual = 0.066082, Final residual = 3.6431e-05, No Iterations 63
linear solve p 97866
time step continuity errors : sum local = 4.66426e-08, global = 1.49907e-20, cumulative = 5.19292e-20
DICPBiCGStab:  Solving for p, Initial residual = 0.0505164, Final residual = 9.72328e-05, No Iterations 26
linear solve p 40586
time step continuity errors : sum local = 1.16869e-07, global = 1.61574e-20, cumulative = 6.80866e-20
ExecutionTime = 1.1 s  ClockTime = 1 s

Time = 0.005

Courant Number mean: 0.0381168 max: 0.287996
DILUPBiCGStab:  Solving for Ux, Initial residual = 0.028684, Final residual = 1.92449e-08, No Iterations 5
DILUPBiCGStab:  Solving for Uy, Initial residual = 0.0466329, Final residual = 2.63233e-08, No Iterations 5
DILUPBiCGStab:  Solving for Uz, Initial residual = 0.0795171, Final residual = 5.13418e-08, No Iterations 5
linear solve U 29714
DICPBiCGStab:  Solving for p, Initial residual = 0.0387108, Final residual = 5.18184e-05, No Iterations 56
linear solve p 86249
time step continuity errors : sum local = 3.7475e-08, global = -3.07584e-20, cumulative = 3.73282e-20
DICPBiCGStab:  Solving for p, Initial residual = 0.030444, Final residual = 9.91897e-05, No Iterations 28
linear solve p 43328
time step continuity errors : sum local = 1.35233e-07, global = 2.61666e-20, cumulative = 6.34948e-20
ExecutionTime = 1.27 s  ClockTime = 1 s

Time = 0.006

Courant Number mean: 0.0413846 max: 0.294261
DILUPBiCGStab:  Solving for Ux, Initial residual = 0.0215298, Final residual = 7.68174e-09, No Iterations 5
DILUPBiCGStab:  Solving for Uy, Initial residual = 0.0356771, Final residual = 1.53921e-08, No Iterations 5
DILUPBiCGStab:  Solving for Uz, Initial residual = 0.0657444, Final residual = 4.84014e-08, No Iterations 5
linear solve U 31118
DICPBiCGStab:  Solving for p, Initial residual = 0.0274554, Final residual = 9.29802e-05, No Iterations 63
linear solve p 101093
time step continuity errors : sum local = 1.27326e-07, global = 3.17772e-21, cumulative = 6.66725e-20
DICPBiCGStab:  Solving for p, Initial residual = 0.0220097, Final residual = 8.41956e-05, No Iterations 61
linear solve p 94328
time step continuity errors : sum local = 1.16003e-07, global = 9.53e-21, cumulative = 7.62025e-20
ExecutionTime = 1.51 s  ClockTime = 2 s

Time = 0.007

Courant Number mean: 0.0440611 max: 0.2985
DILUPBiCGStab:  Solving for Ux, Initial residual = 0.0171262, Final residual = 4.236e-09, No Iterations 5
DILUPBiCGStab:  Solving for Uy, Initial residual = 0.0283559, Final residual = 1.0962e-08, No Iterations 5
DILUPBiCGStab:  Solving for Uz, Initial residual = 0.0514482, Final residual = 2.58779e-08, No Iterations 5
linear solve U 29366
DICPBiCGStab:  Solving for p, Initial residual = 0.0211229, Final residual = 9.74428e-05, No Iterations 53
linear solve p 83256
time step continuity errors : sum local = 8.76395e-08, global = 2.10527e-20, cumulative = 9.72552e-20
DICPBiCGStab:  Solving for p, Initial residual = 0.0169945, Final residual = 9.61514e-05, No Iterations 23
linear solve p 35993
time step continuity errors : sum local = 8.19509e-08, global = 2.01607e-20, cumulative = 1.17416e-19
ExecutionTime = 1.69 s  ClockTime = 2 s

Time = 0.008

Courant Number mean: 0.0462828 max: 0.301602
DILUPBiCGStab:  Solving for Ux, Initial residual = 0.0139812, Final residual = 2.81555e-09, No Iterations 5
DILUPBiCGStab:  Solving for Uy, Initial residual = 0.0235166, Final residual = 7.44596e-09, No Iterations 5
DILUPBiCGStab:  Solving for Uz, Initial residual = 0.0450911, Final residual = 2.48956e-08, No Iterations 5
linear solve U 29025
DICPBiCGStab:  Solving for p, Initial residual = 0.0173822, Final residual = 9.931e-05, No Iterations 23
linear solve p 35537
time step continuity errors : sum local = 1.18893e-07, global = 4.95006e-21, cumulative = 1.22366e-19
DICPBiCGStab:  Solving for p, Initial residual = 0.0140178, Final residual = 7.90763e-05, No Iterations 23
linear solve p 35813
time step continuity errors : sum local = 9.27875e-08, global = 3.68227e-21, cumulative = 1.26048e-19
ExecutionTime = 1.81 s  ClockTime = 2 s

Time = 0.009

Courant Number mean: 0.0481614 max: 0.303994
DILUPBiCGStab:  Solving for Ux, Initial residual = 0.0117429, Final residual = 2.09182e-09, No Iterations 5
DILUPBiCGStab:  Solving for Uy, Initial residual = 0.0197886, Final residual = 5.88253e-09, No Iterations 5
DILUPBiCGStab:  Solving for Uz, Initial residual = 0.0375117, Final residual = 2.53555e-08, No Iterations 5
linear solve U 28550
DICPBiCGStab:  Solving for p, Initial residual = 0.0144075, Final residual = 8.87536e-05, No Iterations 23
linear solve p 35663
time step continuity errors : sum local = 8.15559e-08, global = -4.48171e-20, cumulative = 8.12312e-20
DICPBiCGStab:  Solving for p, Initial residual = 0.0117223, Final residual = 9.58238e-05, No Iterations 22
linear solve p 35014
time step continuity errors : sum local = 9.61952e-08, global = -1.35602e-20, cumulative = 6.7671e-20
ExecutionTime = 1.92 s  ClockTime = 2 s

Time = 0.01

Courant Number mean: 0.049803 max: 0.305898
DILUPBiCGStab:  Solving for Ux, Initial residual = 0.00999243, Final residual = 1.62987e-09, No Iterations 5
DILUPBiCGStab:  Solving for Uy, Initial residual = 0.0170316, Final residual = 4.53118e-09, No Iterations 5
DILUPBiCGStab:  Solving for Uz, Initial residual = 0.0321491, Final residual = 1.98403e-08, No Iterations 5
linear solve U 28541
DICPBiCGStab:  Solving for p, Initial residual = 0.0123665, Final residual = 9.67399e-05, No Iterations 22
linear solve p 35800
time step continuity errors : sum local = 9.79885e-08, global = -3.49326e-21, cumulative = 6.41777e-20
DICPBiCGStab:  Solving for p, Initial residual = 0.0101097, Final residual = 8.38168e-05, No Iterations 22
linear solve p 34401
time step continuity errors : sum local = 8.9049e-08, global = 1.27762e-20, cumulative = 7.69539e-20
ExecutionTime = 2.03 s  ClockTime = 2 s

End

