/*---------------------------------------------------------------------------*\
  =========                 |
  \\      /  F ield         | OpenFOAM: The Open Source CFD Toolbox
   \\    /   O peration     | Website:  https://openfoam.org
    \\  /    A nd           | Version:  8
     \\/     M anipulation  |
\*---------------------------------------------------------------------------*/
Build  : 8-40a5a48f630f
Exec   : icoFoam
Date   : Jul 28 2021
Time   : 12:31:48
Host   : "uc2n449.localdomain"
PID    : 1423028
I/O    : uncollated
Case   : /pfs/data5/home/kit/scc/nq7776/code/OBR/lidDrivenCavity3D/Variation_mesh/25/Variation_matrix_solver/BiCGStab_NoPrecond_OMP/base
nProcs : 1
sigFpe : Enabling floating point exception trapping (FOAM_SIGFPE).
fileModificationChecking : Monitoring run-time modified files using timeStampMaster (fileModificationSkew 10)
allowSystemOperations : Allowing user-supplied system call operations

// * * * * * * * * * * * * * * * * * * * * * * * * * * * * * * * * * * * * * //
Create time

Create mesh for time = 0

Reading transportProperties

Reading field p

Reading field U

Reading/calculating face flux field phi


Starting time loop

Time = 0.001

Courant Number mean: 0 max: 0
nonePBiCGStab:  Solving for Ux, Initial residual = 1, Final residual = 0.00310183, No Iterations 5
nonePBiCGStab:  Solving for Uy, Initial residual = 0, Final residual = 0, No Iterations 0
nonePBiCGStab:  Solving for Uz, Initial residual = 0, Final residual = 0, No Iterations 0
linear solve U 2
[OGL LOG] init_host_sparsity_pattern : 4 ms
[OGL LOG] matrix not stored update host matrix
[OGL LOG] update_host_mtx : 2 ms
[OGL LOG] matrix is not yet sorted, compute sorting idxs
[OGL LOG] compute_sort : 105 ms
[OGL LOG] matrix is not yet sorted, sorting host matrix
[OGL LOG] sort_host_mtx_sparsity_pattern : 3 ms
[OGL LOG] sort_host_mtx : 1 ms
[OGL LOG] init_preconditioner : 0 ms
[OGL LOG] solve : 128 ms
noneompGKOBiCGStab:  Solving for p, Initial residual = 1, Final residual = 7.67433e-05, No Iterations 160
linear solve p 261
time step continuity errors : sum local = 3.86788e-07, global = -1.89226e-20, cumulative = -1.89226e-20
[OGL LOG] init_host_sparsity_pattern : 6 ms
[OGL LOG] matrix not stored update host matrix
[OGL LOG] update_host_mtx : 3 ms
[OGL LOG] matrix is not yet sorted, sorting host matrix
[OGL LOG] sort_host_mtx_sparsity_pattern : 3 ms
[OGL LOG] sort_host_mtx : 1 ms
[OGL LOG] init_preconditioner : 0 ms
[OGL LOG] solve : 73 ms
noneompGKOBiCGStab:  Solving for p, Initial residual = 0.480876, Final residual = 9.39842e-05, No Iterations 154
linear solve p 89
time step continuity errors : sum local = 2.76596e-06, global = 3.07975e-21, cumulative = -1.58428e-20
ExecutionTime = 8.12 s  ClockTime = 1 s

Time = 0.002

Courant Number mean: 0.0119715 max: 0.106554
nonePBiCGStab:  Solving for Ux, Initial residual = 0.210829, Final residual = 0.000695422, No Iterations 5
nonePBiCGStab:  Solving for Uy, Initial residual = 0.284532, Final residual = 0.000654866, No Iterations 5
nonePBiCGStab:  Solving for Uz, Initial residual = 0.859751, Final residual = 0.00339501, No Iterations 5
linear solve U 6
[OGL LOG] init_host_sparsity_pattern : 4 ms
[OGL LOG] matrix not stored update host matrix
[OGL LOG] update_host_mtx : 2 ms
[OGL LOG] matrix is not yet sorted, sorting host matrix
[OGL LOG] sort_host_mtx_sparsity_pattern : 3 ms
[OGL LOG] sort_host_mtx : 1 ms
[OGL LOG] init_preconditioner : 0 ms
[OGL LOG] solve : 69 ms
noneompGKOBiCGStab:  Solving for p, Initial residual = 0.288169, Final residual = 7.5156e-05, No Iterations 146
linear solve p 82
time step continuity errors : sum local = 3.68893e-06, global = -1.51105e-21, cumulative = -1.73539e-20
[OGL LOG] init_host_sparsity_pattern : 4 ms
[OGL LOG] matrix not stored update host matrix
[OGL LOG] update_host_mtx : 2 ms
[OGL LOG] matrix is not yet sorted, sorting host matrix
[OGL LOG] sort_host_mtx_sparsity_pattern : 3 ms
[OGL LOG] sort_host_mtx : 1 ms
[OGL LOG] init_preconditioner : 0 ms
[OGL LOG] solve : 69 ms
noneompGKOBiCGStab:  Solving for p, Initial residual = 0.192771, Final residual = 6.15429e-05, No Iterations 146
linear solve p 83
time step continuity errors : sum local = 8.36945e-07, global = -6.00068e-21, cumulative = -2.33546e-20
ExecutionTime = 14.22 s  ClockTime = 1 s

Time = 0.003

Courant Number mean: 0.0188465 max: 0.153564
nonePBiCGStab:  Solving for Ux, Initial residual = 0.0899931, Final residual = 0.000293456, No Iterations 5
nonePBiCGStab:  Solving for Uy, Initial residual = 0.12492, Final residual = 0.000192991, No Iterations 5
nonePBiCGStab:  Solving for Uz, Initial residual = 0.278956, Final residual = 0.001175, No Iterations 5
linear solve U 6
[OGL LOG] init_host_sparsity_pattern : 4 ms
[OGL LOG] matrix not stored update host matrix
[OGL LOG] update_host_mtx : 2 ms
[OGL LOG] matrix is not yet sorted, sorting host matrix
[OGL LOG] sort_host_mtx_sparsity_pattern : 3 ms
[OGL LOG] sort_host_mtx : 1 ms
[OGL LOG] init_preconditioner : 0 ms
[OGL LOG] solve : 66 ms
noneompGKOBiCGStab:  Solving for p, Initial residual = 0.104951, Final residual = 9.42751e-05, No Iterations 139
linear solve p 80
time step continuity errors : sum local = 1.27483e-05, global = 1.49083e-20, cumulative = -8.44629e-21
[OGL LOG] init_host_sparsity_pattern : 4 ms
[OGL LOG] matrix not stored update host matrix
[OGL LOG] update_host_mtx : 2 ms
[OGL LOG] matrix is not yet sorted, sorting host matrix
[OGL LOG] sort_host_mtx_sparsity_pattern : 3 ms
[OGL LOG] sort_host_mtx : 1 ms
[OGL LOG] init_preconditioner : 0 ms
[OGL LOG] solve : 65 ms
noneompGKOBiCGStab:  Solving for p, Initial residual = 0.0825147, Final residual = 8.63138e-05, No Iterations 137
linear solve p 79
time step continuity errors : sum local = 8.30859e-07, global = 1.81198e-20, cumulative = 9.67351e-21
ExecutionTime = 20 s  ClockTime = 1 s

Time = 0.004

Courant Number mean: 0.0233152 max: 0.175118
nonePBiCGStab:  Solving for Ux, Initial residual = 0.0526185, Final residual = 0.00014861, No Iterations 5
nonePBiCGStab:  Solving for Uy, Initial residual = 0.0741927, Final residual = 0.000101823, No Iterations 5
nonePBiCGStab:  Solving for Uz, Initial residual = 0.186694, Final residual = 0.000897276, No Iterations 5
linear solve U 6
[OGL LOG] init_host_sparsity_pattern : 4 ms
[OGL LOG] matrix not stored update host matrix
[OGL LOG] update_host_mtx : 2 ms
[OGL LOG] matrix is not yet sorted, sorting host matrix
[OGL LOG] sort_host_mtx_sparsity_pattern : 3 ms
[OGL LOG] sort_host_mtx : 1 ms
[OGL LOG] init_preconditioner : 0 ms
[OGL LOG] solve : 64 ms
noneompGKOBiCGStab:  Solving for p, Initial residual = 0.0627397, Final residual = 9.55875e-05, No Iterations 135
linear solve p 77
time step continuity errors : sum local = 3.84241e-07, global = -2.90338e-20, cumulative = -1.93603e-20
[OGL LOG] init_host_sparsity_pattern : 4 ms
[OGL LOG] matrix not stored update host matrix
[OGL LOG] update_host_mtx : 2 ms
[OGL LOG] matrix is not yet sorted, sorting host matrix
[OGL LOG] sort_host_mtx_sparsity_pattern : 3 ms
[OGL LOG] sort_host_mtx : 1 ms
[OGL LOG] init_preconditioner : 0 ms
[OGL LOG] solve : 62 ms
noneompGKOBiCGStab:  Solving for p, Initial residual = 0.0410056, Final residual = 9.02658e-05, No Iterations 131
linear solve p 76
time step continuity errors : sum local = 3.60369e-07, global = -3.03182e-21, cumulative = -2.23921e-20
ExecutionTime = 25.57 s  ClockTime = 1 s

Time = 0.005

Courant Number mean: 0.0264941 max: 0.186506
nonePBiCGStab:  Solving for Ux, Initial residual = 0.0351104, Final residual = 3.00243e-05, No Iterations 5
nonePBiCGStab:  Solving for Uy, Initial residual = 0.051002, Final residual = 4.19079e-05, No Iterations 5
nonePBiCGStab:  Solving for Uz, Initial residual = 0.101475, Final residual = 0.000307531, No Iterations 5
linear solve U 6
[OGL LOG] init_host_sparsity_pattern : 4 ms
[OGL LOG] matrix not stored update host matrix
[OGL LOG] update_host_mtx : 2 ms
[OGL LOG] matrix is not yet sorted, sorting host matrix
[OGL LOG] sort_host_mtx_sparsity_pattern : 3 ms
[OGL LOG] sort_host_mtx : 1 ms
[OGL LOG] init_preconditioner : 0 ms
[OGL LOG] solve : 59 ms
noneompGKOBiCGStab:  Solving for p, Initial residual = 0.0366003, Final residual = 9.78636e-05, No Iterations 124
linear solve p 72
time step continuity errors : sum local = 2.17284e-07, global = 2.3006e-21, cumulative = -2.00915e-20
[OGL LOG] init_host_sparsity_pattern : 4 ms
[OGL LOG] matrix not stored update host matrix
[OGL LOG] update_host_mtx : 2 ms
[OGL LOG] matrix is not yet sorted, sorting host matrix
[OGL LOG] sort_host_mtx_sparsity_pattern : 3 ms
[OGL LOG] sort_host_mtx : 1 ms
[OGL LOG] init_preconditioner : 0 ms
[OGL LOG] solve : 28 ms
noneompGKOBiCGStab:  Solving for p, Initial residual = 0.0240383, Final residual = 9.98286e-05, No Iterations 56
linear solve p 41
time step continuity errors : sum local = 1.40575e-07, global = 3.51928e-20, cumulative = 1.51013e-20
ExecutionTime = 29.6 s  ClockTime = 1 s

Time = 0.006

Courant Number mean: 0.028895 max: 0.193336
nonePBiCGStab:  Solving for Ux, Initial residual = 0.0259978, Final residual = 1.53329e-05, No Iterations 5
nonePBiCGStab:  Solving for Uy, Initial residual = 0.0379514, Final residual = 1.64405e-05, No Iterations 5
nonePBiCGStab:  Solving for Uz, Initial residual = 0.0726987, Final residual = 0.00010882, No Iterations 5
linear solve U 6
[OGL LOG] init_host_sparsity_pattern : 4 ms
[OGL LOG] matrix not stored update host matrix
[OGL LOG] update_host_mtx : 2 ms
[OGL LOG] matrix is not yet sorted, sorting host matrix
[OGL LOG] sort_host_mtx_sparsity_pattern : 3 ms
[OGL LOG] sort_host_mtx : 1 ms
[OGL LOG] init_preconditioner : 0 ms
[OGL LOG] solve : 25 ms
noneompGKOBiCGStab:  Solving for p, Initial residual = 0.0246474, Final residual = 9.96309e-05, No Iterations 53
linear solve p 38
time step continuity errors : sum local = 8.84838e-08, global = 5.34173e-21, cumulative = 2.0443e-20
[OGL LOG] init_host_sparsity_pattern : 5 ms
[OGL LOG] matrix not stored update host matrix
[OGL LOG] update_host_mtx : 2 ms
[OGL LOG] matrix is not yet sorted, sorting host matrix
[OGL LOG] sort_host_mtx_sparsity_pattern : 3 ms
[OGL LOG] sort_host_mtx : 1 ms
[OGL LOG] init_preconditioner : 0 ms
[OGL LOG] solve : 25 ms
noneompGKOBiCGStab:  Solving for p, Initial residual = 0.0164614, Final residual = 9.75173e-05, No Iterations 53
linear solve p 39
time step continuity errors : sum local = 1.02335e-07, global = 2.82346e-20, cumulative = 4.86776e-20
ExecutionTime = 32.14 s  ClockTime = 2 s

Time = 0.007

Courant Number mean: 0.0308307 max: 0.197891
nonePBiCGStab:  Solving for Ux, Initial residual = 0.0203676, Final residual = 9.13008e-06, No Iterations 5
nonePBiCGStab:  Solving for Uy, Initial residual = 0.0300342, Final residual = 1.07588e-05, No Iterations 5
nonePBiCGStab:  Solving for Uz, Initial residual = 0.0574517, Final residual = 7.12993e-05, No Iterations 5
linear solve U 6
[OGL LOG] init_host_sparsity_pattern : 4 ms
[OGL LOG] matrix not stored update host matrix
[OGL LOG] update_host_mtx : 2 ms
[OGL LOG] matrix is not yet sorted, sorting host matrix
[OGL LOG] sort_host_mtx_sparsity_pattern : 3 ms
[OGL LOG] sort_host_mtx : 1 ms
[OGL LOG] init_preconditioner : 0 ms
[OGL LOG] solve : 25 ms
noneompGKOBiCGStab:  Solving for p, Initial residual = 0.0188116, Final residual = 9.6714e-05, No Iterations 53
linear solve p 38
time step continuity errors : sum local = 8.68269e-08, global = -6.75393e-21, cumulative = 4.19237e-20
[OGL LOG] init_host_sparsity_pattern : 5 ms
[OGL LOG] matrix not stored update host matrix
[OGL LOG] update_host_mtx : 2 ms
[OGL LOG] matrix is not yet sorted, sorting host matrix
[OGL LOG] sort_host_mtx_sparsity_pattern : 3 ms
[OGL LOG] sort_host_mtx : 1 ms
[OGL LOG] init_preconditioner : 0 ms
[OGL LOG] solve : 22 ms
noneompGKOBiCGStab:  Solving for p, Initial residual = 0.0127483, Final residual = 9.28294e-05, No Iterations 47
linear solve p 37
time step continuity errors : sum local = 1.22041e-07, global = 1.09408e-20, cumulative = 5.28644e-20
ExecutionTime = 34.58 s  ClockTime = 2 s

Time = 0.008

Courant Number mean: 0.0324761 max: 0.201171
nonePBiCGStab:  Solving for Ux, Initial residual = 0.0165264, Final residual = 4.90057e-06, No Iterations 5
nonePBiCGStab:  Solving for Uy, Initial residual = 0.0246283, Final residual = 6.35372e-06, No Iterations 5
nonePBiCGStab:  Solving for Uz, Initial residual = 0.0482087, Final residual = 3.22078e-05, No Iterations 5
linear solve U 6
[OGL LOG] init_host_sparsity_pattern : 4 ms
[OGL LOG] matrix not stored update host matrix
[OGL LOG] update_host_mtx : 2 ms
[OGL LOG] matrix is not yet sorted, sorting host matrix
[OGL LOG] sort_host_mtx_sparsity_pattern : 3 ms
[OGL LOG] sort_host_mtx : 1 ms
[OGL LOG] init_preconditioner : 0 ms
[OGL LOG] solve : 25 ms
noneompGKOBiCGStab:  Solving for p, Initial residual = 0.015133, Final residual = 9.80108e-05, No Iterations 52
linear solve p 38
time step continuity errors : sum local = 8.38801e-08, global = -5.19945e-21, cumulative = 4.7665e-20
[OGL LOG] init_host_sparsity_pattern : 4 ms
[OGL LOG] matrix not stored update host matrix
[OGL LOG] update_host_mtx : 2 ms
[OGL LOG] matrix is not yet sorted, sorting host matrix
[OGL LOG] sort_host_mtx_sparsity_pattern : 3 ms
[OGL LOG] sort_host_mtx : 1 ms
[OGL LOG] init_preconditioner : 0 ms
[OGL LOG] solve : 24 ms
noneompGKOBiCGStab:  Solving for p, Initial residual = 0.0103405, Final residual = 6.39119e-05, No Iterations 50
linear solve p 38
time step continuity errors : sum local = 1.13532e-07, global = -2.28985e-20, cumulative = 2.47665e-20
ExecutionTime = 37.08 s  ClockTime = 2 s

Time = 0.009

Courant Number mean: 0.0338804 max: 0.203668
nonePBiCGStab:  Solving for Ux, Initial residual = 0.0137979, Final residual = 3.19445e-06, No Iterations 5
nonePBiCGStab:  Solving for Uy, Initial residual = 0.0206852, Final residual = 4.26488e-06, No Iterations 5
nonePBiCGStab:  Solving for Uz, Initial residual = 0.0410147, Final residual = 2.11873e-05, No Iterations 5
linear solve U 6
[OGL LOG] init_host_sparsity_pattern : 4 ms
[OGL LOG] matrix not stored update host matrix
[OGL LOG] update_host_mtx : 2 ms
[OGL LOG] matrix is not yet sorted, sorting host matrix
[OGL LOG] sort_host_mtx_sparsity_pattern : 3 ms
[OGL LOG] sort_host_mtx : 1 ms
[OGL LOG] init_preconditioner : 0 ms
[OGL LOG] solve : 24 ms
noneompGKOBiCGStab:  Solving for p, Initial residual = 0.012563, Final residual = 9.65857e-05, No Iterations 51
linear solve p 38
time step continuity errors : sum local = 9.35132e-08, global = -8.49721e-22, cumulative = 2.39168e-20
[OGL LOG] init_host_sparsity_pattern : 5 ms
[OGL LOG] matrix not stored update host matrix
[OGL LOG] update_host_mtx : 2 ms
[OGL LOG] matrix is not yet sorted, sorting host matrix
[OGL LOG] sort_host_mtx_sparsity_pattern : 3 ms
[OGL LOG] sort_host_mtx : 1 ms
[OGL LOG] init_preconditioner : 0 ms
[OGL LOG] solve : 23 ms
noneompGKOBiCGStab:  Solving for p, Initial residual = 0.00866096, Final residual = 8.17393e-05, No Iterations 48
linear solve p 37
time step continuity errors : sum local = 1.83469e-07, global = -2.55222e-20, cumulative = -1.60546e-21
ExecutionTime = 39.51 s  ClockTime = 2 s

Time = 0.01

Courant Number mean: 0.0350917 max: 0.205642
nonePBiCGStab:  Solving for Ux, Initial residual = 0.0117139, Final residual = 2.22507e-06, No Iterations 5
nonePBiCGStab:  Solving for Uy, Initial residual = 0.0177423, Final residual = 3.14484e-06, No Iterations 5
nonePBiCGStab:  Solving for Uz, Initial residual = 0.0358389, Final residual = 1.61465e-05, No Iterations 5
linear solve U 6
[OGL LOG] init_host_sparsity_pattern : 4 ms
[OGL LOG] matrix not stored update host matrix
[OGL LOG] update_host_mtx : 2 ms
[OGL LOG] matrix is not yet sorted, sorting host matrix
[OGL LOG] sort_host_mtx_sparsity_pattern : 3 ms
[OGL LOG] sort_host_mtx : 1 ms
[OGL LOG] init_preconditioner : 0 ms
[OGL LOG] solve : 29 ms
noneompGKOBiCGStab:  Solving for p, Initial residual = 0.0108435, Final residual = 8.33276e-05, No Iterations 50
linear solve p 43
time step continuity errors : sum local = 9.57709e-08, global = -4.57648e-21, cumulative = -6.18194e-21
[OGL LOG] init_host_sparsity_pattern : 4 ms
[OGL LOG] matrix not stored update host matrix
[OGL LOG] update_host_mtx : 2 ms
[OGL LOG] matrix is not yet sorted, sorting host matrix
[OGL LOG] sort_host_mtx_sparsity_pattern : 3 ms
[OGL LOG] sort_host_mtx : 1 ms
[OGL LOG] init_preconditioner : 0 ms
[OGL LOG] solve : 22 ms
noneompGKOBiCGStab:  Solving for p, Initial residual = 0.00752011, Final residual = 4.25449e-05, No Iterations 46
linear solve p 36
time step continuity errors : sum local = 1.19671e-07, global = -2.2424e-20, cumulative = -2.86059e-20
ExecutionTime = 42.13 s  ClockTime = 2 s

End

