/*---------------------------------------------------------------------------*\
  =========                 |
  \\      /  F ield         | OpenFOAM: The Open Source CFD Toolbox
   \\    /   O peration     | Website:  https://openfoam.org
    \\  /    A nd           | Version:  8
     \\/     M anipulation  |
\*---------------------------------------------------------------------------*/
Build  : 8-ef60d22ea792
Exec   : icoFoam
Date   : Jul 28 2021
Time   : 21:55:14
Host   : "uc2n452.localdomain"
PID    : 1904709
I/O    : uncollated
Case   : /pfs/data5/home/kit/scc/nq7776/code/OBR/lidDrivenCavity3D/Variation_mesh/5/Variation_matrix_solver/BiCGStab_NoPrecond_OMP/base
nProcs : 1
sigFpe : Enabling floating point exception trapping (FOAM_SIGFPE).
fileModificationChecking : Monitoring run-time modified files using timeStampMaster (fileModificationSkew 10)
allowSystemOperations : Allowing user-supplied system call operations

// * * * * * * * * * * * * * * * * * * * * * * * * * * * * * * * * * * * * * //
Create time

Create mesh for time = 0

Reading transportProperties

Reading field p

Reading field U

Reading/calculating face flux field phi


Starting time loop

Time = 0.001

Courant Number mean: 0 max: 0
DILUPBiCGStab:  Solving for Ux, Initial residual = 1, Final residual = 8.38041e-30, No Iterations 5
DILUPBiCGStab:  Solving for Uy:  solution singularity
DILUPBiCGStab:  Solving for Uz:  solution singularity
linear solve U 129
[OGL LOG] init_host_sparsity_pattern : 0 ms
[OGL LOG] matrix not stored update host matrix
[OGL LOG] update_host_mtx : 0 ms
[OGL LOG] matrix is not yet sorted, compute sorting idxs
[OGL LOG] compute_sort : 0 ms
[OGL LOG] matrix is not yet sorted, sorting host matrix
[OGL LOG] sort_host_mtx_sparsity_pattern : 0 ms
[OGL LOG] sort_host_mtx : 0 ms
[OGL LOG] init_preconditioner : 0 ms
[OGL LOG] solve : 2 ms
noneompGKOBiCGStab:  Solving for p, Initial residual = 1, Final residual = 7.38526e-05, No Iterations 23
linear solve p 4712
time step continuity errors : sum local = 4.17229e-07, global = -1.94553e-21, cumulative = -1.94553e-21
[OGL LOG] init_host_sparsity_pattern : 0 ms
[OGL LOG] matrix not stored update host matrix
[OGL LOG] update_host_mtx : 0 ms
[OGL LOG] matrix is not yet sorted, sorting host matrix
[OGL LOG] sort_host_mtx_sparsity_pattern : 0 ms
[OGL LOG] sort_host_mtx : 0 ms
[OGL LOG] init_preconditioner : 0 ms
[OGL LOG] solve : 1 ms
noneompGKOBiCGStab:  Solving for p, Initial residual = 0.0551428, Final residual = 4.63133e-05, No Iterations 21
linear solve p 2129
time step continuity errors : sum local = 3.9527e-07, global = -3.65945e-21, cumulative = -5.60498e-21
ExecutionTime = 0.06 s  ClockTime = 0 s

Time = 0.002

Courant Number mean: 0.000593205 max: 0.00137351
DILUPBiCGStab:  Solving for Ux, Initial residual = 0.290606, Final residual = 1.32992e-30, No Iterations 5
DILUPBiCGStab:  Solving for Uy, Initial residual = 0.317534, Final residual = 1.13382e-30, No Iterations 5
DILUPBiCGStab:  Solving for Uz, Initial residual = 0.356489, Final residual = 2.18427e-30, No Iterations 5
linear solve U 100
[OGL LOG] init_host_sparsity_pattern : 0 ms
[OGL LOG] matrix not stored update host matrix
[OGL LOG] update_host_mtx : 0 ms
[OGL LOG] matrix is not yet sorted, sorting host matrix
[OGL LOG] sort_host_mtx_sparsity_pattern : 0 ms
[OGL LOG] sort_host_mtx : 0 ms
[OGL LOG] init_preconditioner : 0 ms
[OGL LOG] solve : 1 ms
noneompGKOBiCGStab:  Solving for p, Initial residual = 0.111073, Final residual = 8.43018e-05, No Iterations 19
linear solve p 1926
time step continuity errors : sum local = 2.64175e-07, global = -2.27681e-21, cumulative = -7.88179e-21
[OGL LOG] init_host_sparsity_pattern : 0 ms
[OGL LOG] matrix not stored update host matrix
[OGL LOG] update_host_mtx : 0 ms
[OGL LOG] matrix is not yet sorted, sorting host matrix
[OGL LOG] sort_host_mtx_sparsity_pattern : 0 ms
[OGL LOG] sort_host_mtx : 0 ms
[OGL LOG] init_preconditioner : 0 ms
[OGL LOG] solve : 0 ms
noneompGKOBiCGStab:  Solving for p, Initial residual = 0.00322445, Final residual = 9.72043e-05, No Iterations 7
linear solve p 903
time step continuity errors : sum local = 8.30356e-08, global = -2.97702e-21, cumulative = -1.08588e-20
ExecutionTime = 0.08 s  ClockTime = 0 s

Time = 0.003

Courant Number mean: 0.00113049 max: 0.00263293
DILUPBiCGStab:  Solving for Ux, Initial residual = 0.161921, Final residual = 7.3771e-31, No Iterations 5
DILUPBiCGStab:  Solving for Uy, Initial residual = 0.186653, Final residual = 6.80063e-31, No Iterations 5
DILUPBiCGStab:  Solving for Uz, Initial residual = 0.227927, Final residual = 1.62194e-30, No Iterations 5
linear solve U 98
[OGL LOG] init_host_sparsity_pattern : 0 ms
[OGL LOG] matrix not stored update host matrix
[OGL LOG] update_host_mtx : 0 ms
[OGL LOG] matrix is not yet sorted, sorting host matrix
[OGL LOG] sort_host_mtx_sparsity_pattern : 0 ms
[OGL LOG] sort_host_mtx : 0 ms
[OGL LOG] init_preconditioner : 0 ms
[OGL LOG] solve : 1 ms
noneompGKOBiCGStab:  Solving for p, Initial residual = 0.0564837, Final residual = 9.52972e-05, No Iterations 15
linear solve p 1588
time step continuity errors : sum local = 1.57793e-07, global = -8.36114e-21, cumulative = -1.922e-20
[OGL LOG] init_host_sparsity_pattern : 0 ms
[OGL LOG] matrix not stored update host matrix
[OGL LOG] update_host_mtx : 0 ms
[OGL LOG] matrix is not yet sorted, sorting host matrix
[OGL LOG] sort_host_mtx_sparsity_pattern : 0 ms
[OGL LOG] sort_host_mtx : 0 ms
[OGL LOG] init_preconditioner : 0 ms
[OGL LOG] solve : 0 ms
noneompGKOBiCGStab:  Solving for p, Initial residual = 0.00164355, Final residual = 9.45755e-05, No Iterations 4
linear solve p 685
time step continuity errors : sum local = 1.09093e-07, global = 1.08195e-21, cumulative = -1.8138e-20
ExecutionTime = 0.09 s  ClockTime = 0 s

Time = 0.004

Courant Number mean: 0.00161826 max: 0.00379118
DILUPBiCGStab:  Solving for Ux, Initial residual = 0.108851, Final residual = 5.01427e-31, No Iterations 5
DILUPBiCGStab:  Solving for Uy, Initial residual = 0.129132, Final residual = 4.6082e-31, No Iterations 5
DILUPBiCGStab:  Solving for Uz, Initial residual = 0.172438, Final residual = 1.00933e-30, No Iterations 5
linear solve U 98
[OGL LOG] init_host_sparsity_pattern : 0 ms
[OGL LOG] matrix not stored update host matrix
[OGL LOG] update_host_mtx : 0 ms
[OGL LOG] matrix is not yet sorted, sorting host matrix
[OGL LOG] sort_host_mtx_sparsity_pattern : 0 ms
[OGL LOG] sort_host_mtx : 0 ms
[OGL LOG] init_preconditioner : 0 ms
[OGL LOG] solve : 1 ms
noneompGKOBiCGStab:  Solving for p, Initial residual = 0.0347172, Final residual = 7.31699e-05, No Iterations 16
linear solve p 1640
time step continuity errors : sum local = 2.969e-07, global = 5.52143e-21, cumulative = -1.26166e-20
[OGL LOG] init_host_sparsity_pattern : 0 ms
[OGL LOG] matrix not stored update host matrix
[OGL LOG] update_host_mtx : 0 ms
[OGL LOG] matrix is not yet sorted, sorting host matrix
[OGL LOG] sort_host_mtx_sparsity_pattern : 0 ms
[OGL LOG] sort_host_mtx : 0 ms
[OGL LOG] init_preconditioner : 0 ms
[OGL LOG] solve : 0 ms
noneompGKOBiCGStab:  Solving for p, Initial residual = 0.00136152, Final residual = 9.85557e-05, No Iterations 4
linear solve p 680
time step continuity errors : sum local = 1.19174e-07, global = 7.67706e-21, cumulative = -4.93951e-21
ExecutionTime = 0.1 s  ClockTime = 0 s

Time = 0.005

Courant Number mean: 0.0020619 max: 0.00485803
DILUPBiCGStab:  Solving for Ux, Initial residual = 0.0800492, Final residual = 3.73202e-31, No Iterations 5
DILUPBiCGStab:  Solving for Uy, Initial residual = 0.0967014, Final residual = 3.34166e-31, No Iterations 5
DILUPBiCGStab:  Solving for Uz, Initial residual = 0.139484, Final residual = 7.10379e-31, No Iterations 5
linear solve U 98
[OGL LOG] init_host_sparsity_pattern : 0 ms
[OGL LOG] matrix not stored update host matrix
[OGL LOG] update_host_mtx : 0 ms
[OGL LOG] matrix is not yet sorted, sorting host matrix
[OGL LOG] sort_host_mtx_sparsity_pattern : 0 ms
[OGL LOG] sort_host_mtx : 0 ms
[OGL LOG] init_preconditioner : 0 ms
[OGL LOG] solve : 1 ms
noneompGKOBiCGStab:  Solving for p, Initial residual = 0.0235357, Final residual = 7.4235e-05, No Iterations 16
linear solve p 1651
time step continuity errors : sum local = 3.0445e-07, global = 9.92451e-21, cumulative = 4.985e-21
[OGL LOG] init_host_sparsity_pattern : 0 ms
[OGL LOG] matrix not stored update host matrix
[OGL LOG] update_host_mtx : 0 ms
[OGL LOG] matrix is not yet sorted, sorting host matrix
[OGL LOG] sort_host_mtx_sparsity_pattern : 0 ms
[OGL LOG] sort_host_mtx : 0 ms
[OGL LOG] init_preconditioner : 0 ms
[OGL LOG] solve : 0 ms
noneompGKOBiCGStab:  Solving for p, Initial residual = 0.00113689, Final residual = 9.74732e-05, No Iterations 5
linear solve p 722
time step continuity errors : sum local = 1.04855e-07, global = 1.6709e-21, cumulative = 6.65591e-21
ExecutionTime = 0.11 s  ClockTime = 0 s

Time = 0.006

Courant Number mean: 0.0024662 max: 0.00584198
DILUPBiCGStab:  Solving for Ux, Initial residual = 0.0620484, Final residual = 2.92068e-31, No Iterations 5
DILUPBiCGStab:  Solving for Uy, Initial residual = 0.0759807, Final residual = 2.54658e-31, No Iterations 5
DILUPBiCGStab:  Solving for Uz, Initial residual = 0.116404, Final residual = 6.16719e-31, No Iterations 5
linear solve U 102
[OGL LOG] init_host_sparsity_pattern : 0 ms
[OGL LOG] matrix not stored update host matrix
[OGL LOG] update_host_mtx : 0 ms
[OGL LOG] matrix is not yet sorted, sorting host matrix
[OGL LOG] sort_host_mtx_sparsity_pattern : 0 ms
[OGL LOG] sort_host_mtx : 0 ms
[OGL LOG] init_preconditioner : 0 ms
[OGL LOG] solve : 1 ms
noneompGKOBiCGStab:  Solving for p, Initial residual = 0.0172713, Final residual = 7.25629e-05, No Iterations 16
linear solve p 1625
time step continuity errors : sum local = 3.27201e-07, global = 7.48433e-21, cumulative = 1.41402e-20
[OGL LOG] init_host_sparsity_pattern : 0 ms
[OGL LOG] matrix not stored update host matrix
[OGL LOG] update_host_mtx : 0 ms
[OGL LOG] matrix is not yet sorted, sorting host matrix
[OGL LOG] sort_host_mtx_sparsity_pattern : 0 ms
[OGL LOG] sort_host_mtx : 0 ms
[OGL LOG] init_preconditioner : 0 ms
[OGL LOG] solve : 0 ms
noneompGKOBiCGStab:  Solving for p, Initial residual = 0.00102175, Final residual = 9.5631e-05, No Iterations 5
linear solve p 725
time step continuity errors : sum local = 1.06332e-07, global = 1.39297e-21, cumulative = 1.55332e-20
ExecutionTime = 0.13 s  ClockTime = 0 s

Time = 0.007

Courant Number mean: 0.00283514 max: 0.00675072
DILUPBiCGStab:  Solving for Ux, Initial residual = 0.0497708, Final residual = 2.3593e-31, No Iterations 5
DILUPBiCGStab:  Solving for Uy, Initial residual = 0.0616509, Final residual = 2.02588e-31, No Iterations 5
DILUPBiCGStab:  Solving for Uz, Initial residual = 0.0990725, Final residual = 6.10537e-31, No Iterations 5
linear solve U 97
[OGL LOG] init_host_sparsity_pattern : 0 ms
[OGL LOG] matrix not stored update host matrix
[OGL LOG] update_host_mtx : 0 ms
[OGL LOG] matrix is not yet sorted, sorting host matrix
[OGL LOG] sort_host_mtx_sparsity_pattern : 0 ms
[OGL LOG] sort_host_mtx : 0 ms
[OGL LOG] init_preconditioner : 0 ms
[OGL LOG] solve : 1 ms
noneompGKOBiCGStab:  Solving for p, Initial residual = 0.0132783, Final residual = 9.66187e-05, No Iterations 15
linear solve p 1551
time step continuity errors : sum local = 2.15101e-07, global = 6.15422e-21, cumulative = 2.16874e-20
[OGL LOG] init_host_sparsity_pattern : 0 ms
[OGL LOG] matrix not stored update host matrix
[OGL LOG] update_host_mtx : 0 ms
[OGL LOG] matrix is not yet sorted, sorting host matrix
[OGL LOG] sort_host_mtx_sparsity_pattern : 0 ms
[OGL LOG] sort_host_mtx : 0 ms
[OGL LOG] init_preconditioner : 0 ms
[OGL LOG] solve : 0 ms
noneompGKOBiCGStab:  Solving for p, Initial residual = 0.000644328, Final residual = 9.96357e-05, No Iterations 10
linear solve p 1117
time step continuity errors : sum local = 1.15473e-07, global = 3.42287e-21, cumulative = 2.51103e-20
ExecutionTime = 0.14 s  ClockTime = 0 s

Time = 0.008

Courant Number mean: 0.00317237 max: 0.00759076
DILUPBiCGStab:  Solving for Ux, Initial residual = 0.0409196, Final residual = 1.95748e-31, No Iterations 5
DILUPBiCGStab:  Solving for Uy, Initial residual = 0.0511997, Final residual = 1.6709e-31, No Iterations 5
DILUPBiCGStab:  Solving for Uz, Initial residual = 0.0860516, Final residual = 6.20669e-31, No Iterations 5
linear solve U 97
[OGL LOG] init_host_sparsity_pattern : 0 ms
[OGL LOG] matrix not stored update host matrix
[OGL LOG] update_host_mtx : 0 ms
[OGL LOG] matrix is not yet sorted, sorting host matrix
[OGL LOG] sort_host_mtx_sparsity_pattern : 0 ms
[OGL LOG] sort_host_mtx : 0 ms
[OGL LOG] init_preconditioner : 0 ms
[OGL LOG] solve : 1 ms
noneompGKOBiCGStab:  Solving for p, Initial residual = 0.0105877, Final residual = 9.35483e-05, No Iterations 15
linear solve p 1544
time step continuity errors : sum local = 3.71978e-07, global = 8.66885e-22, cumulative = 2.59772e-20
[OGL LOG] init_host_sparsity_pattern : 0 ms
[OGL LOG] matrix not stored update host matrix
[OGL LOG] update_host_mtx : 0 ms
[OGL LOG] matrix is not yet sorted, sorting host matrix
[OGL LOG] sort_host_mtx_sparsity_pattern : 0 ms
[OGL LOG] sort_host_mtx : 0 ms
[OGL LOG] init_preconditioner : 0 ms
[OGL LOG] solve : 0 ms
noneompGKOBiCGStab:  Solving for p, Initial residual = 0.000889231, Final residual = 9.95679e-05, No Iterations 10
linear solve p 1152
time step continuity errors : sum local = 1.73931e-07, global = -1.93031e-20, cumulative = 6.67411e-21
ExecutionTime = 0.16 s  ClockTime = 0 s

Time = 0.009

Courant Number mean: 0.00348097 max: 0.0083682
DILUPBiCGStab:  Solving for Ux, Initial residual = 0.034238, Final residual = 1.65802e-31, No Iterations 5
DILUPBiCGStab:  Solving for Uy, Initial residual = 0.0432915, Final residual = 1.40367e-31, No Iterations 5
DILUPBiCGStab:  Solving for Uz, Initial residual = 0.0757974, Final residual = 5.87521e-31, No Iterations 5
linear solve U 98
[OGL LOG] init_host_sparsity_pattern : 0 ms
[OGL LOG] matrix not stored update host matrix
[OGL LOG] update_host_mtx : 0 ms
[OGL LOG] matrix is not yet sorted, sorting host matrix
[OGL LOG] sort_host_mtx_sparsity_pattern : 0 ms
[OGL LOG] sort_host_mtx : 0 ms
[OGL LOG] init_preconditioner : 0 ms
[OGL LOG] solve : 1 ms
noneompGKOBiCGStab:  Solving for p, Initial residual = 0.00875483, Final residual = 8.54395e-05, No Iterations 15
linear solve p 1563
time step continuity errors : sum local = 3.55367e-07, global = 2.93815e-20, cumulative = 3.60556e-20
[OGL LOG] init_host_sparsity_pattern : 0 ms
[OGL LOG] matrix not stored update host matrix
[OGL LOG] update_host_mtx : 0 ms
[OGL LOG] matrix is not yet sorted, sorting host matrix
[OGL LOG] sort_host_mtx_sparsity_pattern : 0 ms
[OGL LOG] sort_host_mtx : 0 ms
[OGL LOG] init_preconditioner : 0 ms
[OGL LOG] solve : 0 ms
noneompGKOBiCGStab:  Solving for p, Initial residual = 0.000782946, Final residual = 9.80508e-05, No Iterations 8
linear solve p 993
time step continuity errors : sum local = 1.39498e-07, global = 5.75056e-21, cumulative = 4.18061e-20
ExecutionTime = 0.17 s  ClockTime = 0 s

Time = 0.01

Courant Number mean: 0.00376377 max: 0.00908818
DILUPBiCGStab:  Solving for Ux, Initial residual = 0.0290486, Final residual = 1.431e-31, No Iterations 5
DILUPBiCGStab:  Solving for Uy, Initial residual = 0.0371265, Final residual = 1.19402e-31, No Iterations 5
DILUPBiCGStab:  Solving for Uz, Initial residual = 0.067801, Final residual = 5.10291e-31, No Iterations 5
linear solve U 97
[OGL LOG] init_host_sparsity_pattern : 0 ms
[OGL LOG] matrix not stored update host matrix
[OGL LOG] update_host_mtx : 0 ms
[OGL LOG] matrix is not yet sorted, sorting host matrix
[OGL LOG] sort_host_mtx_sparsity_pattern : 0 ms
[OGL LOG] sort_host_mtx : 0 ms
[OGL LOG] init_preconditioner : 0 ms
[OGL LOG] solve : 1 ms
noneompGKOBiCGStab:  Solving for p, Initial residual = 0.00733897, Final residual = 7.72417e-05, No Iterations 15
linear solve p 1546
time step continuity errors : sum local = 3.7647e-07, global = 2.57551e-20, cumulative = 6.75612e-20
[OGL LOG] init_host_sparsity_pattern : 0 ms
[OGL LOG] matrix not stored update host matrix
[OGL LOG] update_host_mtx : 0 ms
[OGL LOG] matrix is not yet sorted, sorting host matrix
[OGL LOG] sort_host_mtx_sparsity_pattern : 0 ms
[OGL LOG] sort_host_mtx : 0 ms
[OGL LOG] init_preconditioner : 0 ms
[OGL LOG] solve : 0 ms
noneompGKOBiCGStab:  Solving for p, Initial residual = 0.00083099, Final residual = 9.95788e-05, No Iterations 5
linear solve p 724
time step continuity errors : sum local = 1.22167e-07, global = 1.67255e-20, cumulative = 8.42868e-20
ExecutionTime = 0.19 s  ClockTime = 0 s

End

