/*---------------------------------------------------------------------------*\
  =========                 |
  \\      /  F ield         | OpenFOAM: The Open Source CFD Toolbox
   \\    /   O peration     | Website:  https://openfoam.org
    \\  /    A nd           | Version:  8
     \\/     M anipulation  |
\*---------------------------------------------------------------------------*/
Build  : 8-ef60d22ea792
Exec   : icoFoam
Date   : Jul 29 2021
Time   : 07:58:54
Host   : "nla-gpu2.ianm.kit.edu"
PID    : 1968979
I/O    : uncollated
Case   : /home/greole/code/OBR/lidDrivenCavity3D/Variation_mesh/50/Variation_matrix_solver/CG_DIC_Serial/base
nProcs : 1
sigFpe : Enabling floating point exception trapping (FOAM_SIGFPE).
fileModificationChecking : Monitoring run-time modified files using timeStampMaster (fileModificationSkew 10)
allowSystemOperations : Allowing user-supplied system call operations

// * * * * * * * * * * * * * * * * * * * * * * * * * * * * * * * * * * * * * //
Create time

Create mesh for time = 0

Reading transportProperties

Reading field p

Reading field U

Reading/calculating face flux field phi


Starting time loop

Time = 0.001

Courant Number mean: 0 max: 0
DILUPBiCGStab:  Solving for Ux, Initial residual = 1, Final residual = 0.000120903, No Iterations 5
DILUPBiCGStab:  Solving for Uy:  solution singularity
DILUPBiCGStab:  Solving for Uz:  solution singularity
linear solve U 49289
DICPCG:  Solving for p, Initial residual = 1, Final residual = 7.97724e-05, No Iterations 125
linear solve p 288531
time step continuity errors : sum local = 4.61606e-08, global = 7.65821e-21, cumulative = 7.65821e-21
DICPCG:  Solving for p, Initial residual = 0.658365, Final residual = 9.01145e-05, No Iterations 123
linear solve p 303838
time step continuity errors : sum local = 7.37174e-08, global = -3.49616e-21, cumulative = 4.16205e-21
ExecutionTime = 1.26 s  ClockTime = 1 s

Time = 0.002

Courant Number mean: 0.027493 max: 0.32948
DILUPBiCGStab:  Solving for Ux, Initial residual = 0.167076, Final residual = 2.79819e-05, No Iterations 5
DILUPBiCGStab:  Solving for Uy, Initial residual = 0.315251, Final residual = 4.21818e-05, No Iterations 5
DILUPBiCGStab:  Solving for Uz, Initial residual = 0.972849, Final residual = 0.000171047, No Iterations 5
linear solve U 95344
DICPCG:  Solving for p, Initial residual = 0.54305, Final residual = 9.37957e-05, No Iterations 120
linear solve p 276968
time step continuity errors : sum local = 7.53358e-08, global = -3.84542e-21, cumulative = 3.16629e-22
DICPCG:  Solving for p, Initial residual = 0.456903, Final residual = 7.79217e-05, No Iterations 120
linear solve p 298656
time step continuity errors : sum local = 6.46923e-08, global = 1.16793e-20, cumulative = 1.19959e-20
ExecutionTime = 1.98 s  ClockTime = 2 s

Time = 0.003

Courant Number mean: 0.0414301 max: 0.409639
DILUPBiCGStab:  Solving for Ux, Initial residual = 0.0555311, Final residual = 8.56962e-06, No Iterations 5
DILUPBiCGStab:  Solving for Uy, Initial residual = 0.0997757, Final residual = 9.93972e-06, No Iterations 5
DILUPBiCGStab:  Solving for Uz, Initial residual = 0.135095, Final residual = 1.54936e-05, No Iterations 5
linear solve U 95391
DICPCG:  Solving for p, Initial residual = 0.30926, Final residual = 9.36153e-05, No Iterations 113
linear solve p 290301
time step continuity errors : sum local = 5.42689e-08, global = -4.68128e-21, cumulative = 7.31461e-21
DICPCG:  Solving for p, Initial residual = 0.258257, Final residual = 7.62188e-05, No Iterations 113
linear solve p 270260
time step continuity errors : sum local = 4.33585e-08, global = -2.12145e-20, cumulative = -1.38999e-20
ExecutionTime = 2.68 s  ClockTime = 2 s

Time = 0.004

Courant Number mean: 0.049393 max: 0.429156
DILUPBiCGStab:  Solving for Ux, Initial residual = 0.0329814, Final residual = 2.25576e-06, No Iterations 5
DILUPBiCGStab:  Solving for Uy, Initial residual = 0.0643016, Final residual = 4.37625e-06, No Iterations 5
DILUPBiCGStab:  Solving for Uz, Initial residual = 0.11859, Final residual = 1.49103e-05, No Iterations 5
linear solve U 92068
DICPCG:  Solving for p, Initial residual = 0.14703, Final residual = 8.47581e-05, No Iterations 111
linear solve p 264493
time step continuity errors : sum local = 4.68647e-08, global = 2.12466e-20, cumulative = 7.34676e-21
DICPCG:  Solving for p, Initial residual = 0.117116, Final residual = 7.31041e-05, No Iterations 111
linear solve p 262726
time step continuity errors : sum local = 4.09072e-08, global = -1.24463e-20, cumulative = -5.09951e-21
ExecutionTime = 3.36 s  ClockTime = 3 s

Time = 0.005

Courant Number mean: 0.0552654 max: 0.438882
DILUPBiCGStab:  Solving for Ux, Initial residual = 0.0231862, Final residual = 1.13239e-06, No Iterations 5
DILUPBiCGStab:  Solving for Uy, Initial residual = 0.0443378, Final residual = 2.62491e-06, No Iterations 5
DILUPBiCGStab:  Solving for Uz, Initial residual = 0.0748913, Final residual = 6.41813e-06, No Iterations 5
linear solve U 103043
DICPCG:  Solving for p, Initial residual = 0.0740293, Final residual = 7.43921e-05, No Iterations 110
linear solve p 260754
time step continuity errors : sum local = 3.95296e-08, global = -1.34354e-20, cumulative = -1.85349e-20
DICPCG:  Solving for p, Initial residual = 0.0609192, Final residual = 9.54144e-05, No Iterations 109
linear solve p 264192
time step continuity errors : sum local = 5.07088e-08, global = -2.44219e-20, cumulative = -4.29569e-20
ExecutionTime = 4.06 s  ClockTime = 4 s

Time = 0.006

Courant Number mean: 0.0598382 max: 0.444769
DILUPBiCGStab:  Solving for Ux, Initial residual = 0.0176064, Final residual = 7.51615e-07, No Iterations 5
DILUPBiCGStab:  Solving for Uy, Initial residual = 0.033959, Final residual = 1.23543e-06, No Iterations 5
DILUPBiCGStab:  Solving for Uz, Initial residual = 0.0587755, Final residual = 3.74028e-06, No Iterations 5
linear solve U 93716
DICPCG:  Solving for p, Initial residual = 0.0463852, Final residual = 9.28735e-05, No Iterations 52
linear solve p 127867
time step continuity errors : sum local = 6.05811e-08, global = 1.19966e-20, cumulative = -3.09603e-20
DICPCG:  Solving for p, Initial residual = 0.0383575, Final residual = 9.57465e-05, No Iterations 50
linear solve p 121366
time step continuity errors : sum local = 5.43638e-08, global = -9.38065e-22, cumulative = -3.18983e-20
ExecutionTime = 4.45 s  ClockTime = 4 s

Time = 0.007

Courant Number mean: 0.0635832 max: 0.448842
DILUPBiCGStab:  Solving for Ux, Initial residual = 0.0140361, Final residual = 6.43721e-07, No Iterations 5
DILUPBiCGStab:  Solving for Uy, Initial residual = 0.0272293, Final residual = 7.57614e-07, No Iterations 5
DILUPBiCGStab:  Solving for Uz, Initial residual = 0.0487351, Final residual = 2.20558e-06, No Iterations 5
linear solve U 94188
DICPCG:  Solving for p, Initial residual = 0.031185, Final residual = 9.73012e-05, No Iterations 49
linear solve p 118350
time step continuity errors : sum local = 5.57787e-08, global = 1.06804e-20, cumulative = -2.12179e-20
DICPCG:  Solving for p, Initial residual = 0.026695, Final residual = 9.58144e-05, No Iterations 48
linear solve p 121512
time step continuity errors : sum local = 5.30041e-08, global = -9.02872e-21, cumulative = -3.02466e-20
ExecutionTime = 4.85 s  ClockTime = 4 s

Time = 0.008

Courant Number mean: 0.0666969 max: 0.451851
DILUPBiCGStab:  Solving for Ux, Initial residual = 0.0115577, Final residual = 5.67954e-07, No Iterations 5
DILUPBiCGStab:  Solving for Uy, Initial residual = 0.022512, Final residual = 4.24331e-07, No Iterations 5
DILUPBiCGStab:  Solving for Uz, Initial residual = 0.0408101, Final residual = 1.48072e-06, No Iterations 5
linear solve U 92677
DICPCG:  Solving for p, Initial residual = 0.0223487, Final residual = 9.71271e-05, No Iterations 48
linear solve p 115495
time step continuity errors : sum local = 6.01102e-08, global = -1.78635e-20, cumulative = -4.81101e-20
DICPCG:  Solving for p, Initial residual = 0.0194822, Final residual = 9.09581e-05, No Iterations 47
linear solve p 119666
time step continuity errors : sum local = 5.22558e-08, global = -1.48403e-20, cumulative = -6.29505e-20
ExecutionTime = 5.22 s  ClockTime = 5 s

Time = 0.009

Courant Number mean: 0.0693805 max: 0.454186
DILUPBiCGStab:  Solving for Ux, Initial residual = 0.00972198, Final residual = 4.50743e-07, No Iterations 5
DILUPBiCGStab:  Solving for Uy, Initial residual = 0.0190619, Final residual = 3.10211e-07, No Iterations 5
DILUPBiCGStab:  Solving for Uz, Initial residual = 0.0351697, Final residual = 1.10907e-06, No Iterations 5
linear solve U 93483
DICPCG:  Solving for p, Initial residual = 0.0182499, Final residual = 9.3788e-05, No Iterations 47
linear solve p 121218
time step continuity errors : sum local = 5.46836e-08, global = -1.74411e-20, cumulative = -8.03916e-20
DICPCG:  Solving for p, Initial residual = 0.0161522, Final residual = 9.9441e-05, No Iterations 46
linear solve p 108755
time step continuity errors : sum local = 5.62239e-08, global = -4.76608e-21, cumulative = -8.51577e-20
ExecutionTime = 5.6 s  ClockTime = 5 s

Time = 0.01

Courant Number mean: 0.0717118 max: 0.456054
DILUPBiCGStab:  Solving for Ux, Initial residual = 0.0083256, Final residual = 3.60282e-07, No Iterations 5
DILUPBiCGStab:  Solving for Uy, Initial residual = 0.0163966, Final residual = 2.18612e-07, No Iterations 5
DILUPBiCGStab:  Solving for Uz, Initial residual = 0.0306092, Final residual = 8.30313e-07, No Iterations 5
linear solve U 92357
DICPCG:  Solving for p, Initial residual = 0.0149424, Final residual = 8.74125e-05, No Iterations 47
linear solve p 113258
time step continuity errors : sum local = 5.39788e-08, global = 3.67792e-20, cumulative = -4.83784e-20
DICPCG:  Solving for p, Initial residual = 0.0133525, Final residual = 8.98651e-05, No Iterations 46
linear solve p 108269
time step continuity errors : sum local = 5.2312e-08, global = -6.8336e-21, cumulative = -5.5212e-20
ExecutionTime = 5.96 s  ClockTime = 6 s

End

