/*---------------------------------------------------------------------------*\
  =========                 |
  \\      /  F ield         | OpenFOAM: The Open Source CFD Toolbox
   \\    /   O peration     | Website:  https://openfoam.org
    \\  /    A nd           | Version:  8
     \\/     M anipulation  |
\*---------------------------------------------------------------------------*/
Build  : 8-40a5a48f630f
Exec   : icoFoam
Date   : Jul 28 2021
Time   : 12:36:59
Host   : "uc2n449.localdomain"
PID    : 1425641
I/O    : uncollated
Case   : /pfs/data5/home/kit/scc/nq7776/code/OBR/lidDrivenCavity3D/Variation_mesh/40/Variation_matrix_solver/BiCGStab_NoPrecond_Serial/base
nProcs : 1
sigFpe : Enabling floating point exception trapping (FOAM_SIGFPE).
fileModificationChecking : Monitoring run-time modified files using timeStampMaster (fileModificationSkew 10)
allowSystemOperations : Allowing user-supplied system call operations

// * * * * * * * * * * * * * * * * * * * * * * * * * * * * * * * * * * * * * //
Create time

Create mesh for time = 0

Reading transportProperties

Reading field p

Reading field U

Reading/calculating face flux field phi


Starting time loop

Time = 0.001

Courant Number mean: 0 max: 0
nonePBiCGStab:  Solving for Ux, Initial residual = 1, Final residual = 0.0197517, No Iterations 5
nonePBiCGStab:  Solving for Uy, Initial residual = 0, Final residual = 0, No Iterations 0
nonePBiCGStab:  Solving for Uz, Initial residual = 0, Final residual = 0, No Iterations 0
linear solve U 14
nonePBiCGStab:  Solving for p, Initial residual = 1, Final residual = 7.32815e-05, No Iterations 256
linear solve p 339
time step continuity errors : sum local = 7.48849e-08, global = -1.83622e-20, cumulative = -1.83622e-20
nonePBiCGStab:  Solving for p, Initial residual = 0.598403, Final residual = 9.47196e-05, No Iterations 249
linear solve p 347
time step continuity errors : sum local = 1.52983e-07, global = 2.94662e-21, cumulative = -1.54155e-20
ExecutionTime = 0.99 s  ClockTime = 1 s

Time = 0.002

Courant Number mean: 0.0210256 max: 0.237017
nonePBiCGStab:  Solving for Ux, Initial residual = 0.177754, Final residual = 0.00671498, No Iterations 5
nonePBiCGStab:  Solving for Uy, Initial residual = 0.29415, Final residual = 0.00769465, No Iterations 5
nonePBiCGStab:  Solving for Uz, Initial residual = 0.949019, Final residual = 0.0375523, No Iterations 5
linear solve U 27
nonePBiCGStab:  Solving for p, Initial residual = 0.457795, Final residual = 7.04135e-05, No Iterations 230
linear solve p 320
time step continuity errors : sum local = 1.06109e-07, global = 2.9885e-21, cumulative = -1.2427e-20
nonePBiCGStab:  Solving for p, Initial residual = 0.360993, Final residual = 9.32239e-05, No Iterations 234
linear solve p 325
time step continuity errors : sum local = 1.39963e-07, global = -2.27604e-20, cumulative = -3.51874e-20
ExecutionTime = 1.69 s  ClockTime = 1 s

Time = 0.003

Courant Number mean: 0.0321033 max: 0.305906
nonePBiCGStab:  Solving for Ux, Initial residual = 0.0657464, Final residual = 0.00124174, No Iterations 5
nonePBiCGStab:  Solving for Uy, Initial residual = 0.107553, Final residual = 0.00173312, No Iterations 5
nonePBiCGStab:  Solving for Uz, Initial residual = 0.167459, Final residual = 0.00630209, No Iterations 5
linear solve U 27
nonePBiCGStab:  Solving for p, Initial residual = 0.16314, Final residual = 9.85122e-05, No Iterations 95
linear solve p 132
time step continuity errors : sum local = 1.13546e-07, global = 1.54656e-20, cumulative = -1.97218e-20
nonePBiCGStab:  Solving for p, Initial residual = 0.12772, Final residual = 9.9944e-05, No Iterations 200
linear solve p 278
time step continuity errors : sum local = 1.27548e-07, global = -5.60105e-22, cumulative = -2.02819e-20
ExecutionTime = 2.16 s  ClockTime = 2 s

Time = 0.004

Courant Number mean: 0.0386762 max: 0.327556
nonePBiCGStab:  Solving for Ux, Initial residual = 0.0387122, Final residual = 0.0005189, No Iterations 5
nonePBiCGStab:  Solving for Uy, Initial residual = 0.0671048, Final residual = 0.000635319, No Iterations 5
nonePBiCGStab:  Solving for Uz, Initial residual = 0.113743, Final residual = 0.00282865, No Iterations 5
linear solve U 27
nonePBiCGStab:  Solving for p, Initial residual = 0.0845643, Final residual = 8.80979e-05, No Iterations 84
linear solve p 117
time step continuity errors : sum local = 9.0605e-08, global = -3.89908e-21, cumulative = -2.4181e-20
nonePBiCGStab:  Solving for p, Initial residual = 0.0651851, Final residual = 9.82596e-05, No Iterations 88
linear solve p 123
time step continuity errors : sum local = 1.16641e-07, global = -1.53543e-20, cumulative = -3.95352e-20
ExecutionTime = 2.46 s  ClockTime = 2 s

Time = 0.005

Courant Number mean: 0.0434819 max: 0.337868
nonePBiCGStab:  Solving for Ux, Initial residual = 0.0269564, Final residual = 0.000297548, No Iterations 5
nonePBiCGStab:  Solving for Uy, Initial residual = 0.0465814, Final residual = 0.00039911, No Iterations 5
nonePBiCGStab:  Solving for Uz, Initial residual = 0.0810652, Final residual = 0.00181031, No Iterations 5
linear solve U 27
nonePBiCGStab:  Solving for p, Initial residual = 0.0440085, Final residual = 9.60264e-05, No Iterations 84
linear solve p 117
time step continuity errors : sum local = 1.06062e-07, global = 4.83766e-21, cumulative = -3.46976e-20
nonePBiCGStab:  Solving for p, Initial residual = 0.035304, Final residual = 9.70083e-05, No Iterations 85
linear solve p 118
time step continuity errors : sum local = 1.14086e-07, global = 1.24878e-20, cumulative = -2.22098e-20
ExecutionTime = 2.76 s  ClockTime = 3 s

Time = 0.006

Courant Number mean: 0.0472025 max: 0.344032
nonePBiCGStab:  Solving for Ux, Initial residual = 0.0204034, Final residual = 0.000224276, No Iterations 5
nonePBiCGStab:  Solving for Uy, Initial residual = 0.0356418, Final residual = 0.000196184, No Iterations 5
nonePBiCGStab:  Solving for Uz, Initial residual = 0.0632775, Final residual = 0.000959387, No Iterations 5
linear solve U 27
nonePBiCGStab:  Solving for p, Initial residual = 0.0296233, Final residual = 8.14483e-05, No Iterations 82
linear solve p 114
time step continuity errors : sum local = 9.49906e-08, global = 4.49799e-21, cumulative = -1.77118e-20
nonePBiCGStab:  Solving for p, Initial residual = 0.0241446, Final residual = 9.25939e-05, No Iterations 81
linear solve p 113
time step continuity errors : sum local = 1.08517e-07, global = -3.14629e-21, cumulative = -2.08581e-20
ExecutionTime = 3.04 s  ClockTime = 3 s

Time = 0.007

Courant Number mean: 0.0502364 max: 0.34826
nonePBiCGStab:  Solving for Ux, Initial residual = 0.0162491, Final residual = 0.000134953, No Iterations 5
nonePBiCGStab:  Solving for Uy, Initial residual = 0.0284655, Final residual = 0.000156858, No Iterations 5
nonePBiCGStab:  Solving for Uz, Initial residual = 0.0518389, Final residual = 0.000765223, No Iterations 5
linear solve U 27
nonePBiCGStab:  Solving for p, Initial residual = 0.022785, Final residual = 7.21937e-05, No Iterations 80
linear solve p 111
time step continuity errors : sum local = 8.88837e-08, global = -7.087e-22, cumulative = -2.15668e-20
nonePBiCGStab:  Solving for p, Initial residual = 0.018967, Final residual = 8.48638e-05, No Iterations 80
linear solve p 111
time step continuity errors : sum local = 1.01546e-07, global = 4.38667e-21, cumulative = -1.71801e-20
ExecutionTime = 3.32 s  ClockTime = 3 s

Time = 0.008

Courant Number mean: 0.0528064 max: 0.351375
nonePBiCGStab:  Solving for Ux, Initial residual = 0.0133261, Final residual = 9.05362e-05, No Iterations 5
nonePBiCGStab:  Solving for Uy, Initial residual = 0.0235408, Final residual = 0.000102634, No Iterations 5
nonePBiCGStab:  Solving for Uz, Initial residual = 0.0435992, Final residual = 0.000502357, No Iterations 5
linear solve U 27
nonePBiCGStab:  Solving for p, Initial residual = 0.0179998, Final residual = 9.80303e-05, No Iterations 80
linear solve p 112
time step continuity errors : sum local = 1.05088e-07, global = -8.95806e-21, cumulative = -2.61381e-20
nonePBiCGStab:  Solving for p, Initial residual = 0.0151698, Final residual = 8.89105e-05, No Iterations 83
linear solve p 115
time step continuity errors : sum local = 1.02478e-07, global = -8.3134e-21, cumulative = -3.44515e-20
ExecutionTime = 3.61 s  ClockTime = 3 s

Time = 0.009

Courant Number mean: 0.0549936 max: 0.353786
nonePBiCGStab:  Solving for Ux, Initial residual = 0.0111806, Final residual = 6.70721e-05, No Iterations 5
nonePBiCGStab:  Solving for Uy, Initial residual = 0.0199176, Final residual = 8.18936e-05, No Iterations 5
nonePBiCGStab:  Solving for Uz, Initial residual = 0.037809, Final residual = 0.000396026, No Iterations 5
linear solve U 27
nonePBiCGStab:  Solving for p, Initial residual = 0.0154727, Final residual = 6.77911e-05, No Iterations 81
linear solve p 112
time step continuity errors : sum local = 8.53708e-08, global = -1.50234e-20, cumulative = -4.9475e-20
nonePBiCGStab:  Solving for p, Initial residual = 0.0130719, Final residual = 8.41435e-05, No Iterations 80
linear solve p 111
time step continuity errors : sum local = 9.81714e-08, global = -2.68905e-20, cumulative = -7.63654e-20
ExecutionTime = 3.89 s  ClockTime = 4 s

Time = 0.01

Courant Number mean: 0.0568758 max: 0.355714
nonePBiCGStab:  Solving for Ux, Initial residual = 0.0095628, Final residual = 4.60589e-05, No Iterations 5
nonePBiCGStab:  Solving for Uy, Initial residual = 0.0170694, Final residual = 6.03402e-05, No Iterations 5
nonePBiCGStab:  Solving for Uz, Initial residual = 0.0327927, Final residual = 0.000302863, No Iterations 5
linear solve U 27
nonePBiCGStab:  Solving for p, Initial residual = 0.0129208, Final residual = 9.2456e-05, No Iterations 80
linear solve p 111
time step continuity errors : sum local = 9.88812e-08, global = 1.71147e-20, cumulative = -5.92507e-20
nonePBiCGStab:  Solving for p, Initial residual = 0.0109552, Final residual = 9.99478e-05, No Iterations 78
linear solve p 108
time step continuity errors : sum local = 1.06205e-07, global = -6.1397e-21, cumulative = -6.53904e-20
ExecutionTime = 4.17 s  ClockTime = 4 s

End

