/*---------------------------------------------------------------------------*\
  =========                 |
  \\      /  F ield         | OpenFOAM: The Open Source CFD Toolbox
   \\    /   O peration     | Website:  https://openfoam.org
    \\  /    A nd           | Version:  8
     \\/     M anipulation  |
\*---------------------------------------------------------------------------*/
Build  : 8-ef60d22ea792
Exec   : icoFoam
Date   : Jul 29 2021
Time   : 02:22:48
Host   : "uc2n489.localdomain"
PID    : 3403652
I/O    : uncollated
Case   : /pfs/data5/home/kit/scc/nq7776/code/OBR/lidDrivenCavity3D/Variation_mesh/5/Variation_matrix_solver/CG_BJ_CUDA/base
nProcs : 1
sigFpe : Enabling floating point exception trapping (FOAM_SIGFPE).
fileModificationChecking : Monitoring run-time modified files using timeStampMaster (fileModificationSkew 10)
allowSystemOperations : Allowing user-supplied system call operations

// * * * * * * * * * * * * * * * * * * * * * * * * * * * * * * * * * * * * * //
Create time

Create mesh for time = 0

Reading transportProperties

Reading field p

Reading field U

Reading/calculating face flux field phi


Starting time loop

Time = 0.001

Courant Number mean: 0 max: 0
DILUPBiCGStab:  Solving for Ux, Initial residual = 1, Final residual = 8.38041e-30, No Iterations 5
DILUPBiCGStab:  Solving for Uy:  solution singularity
DILUPBiCGStab:  Solving for Uz:  solution singularity
linear solve U 132
[OGL LOG] init_host_sparsity_pattern : 0 ms
[OGL LOG] matrix not stored update host matrix
[OGL LOG] update_host_mtx : 0 ms
[OGL LOG] matrix is not yet sorted, compute sorting idxs
[OGL LOG] compute_sort : 0 ms
[OGL LOG] matrix is not yet sorted, sorting host matrix
[OGL LOG] sort_host_mtx_sparsity_pattern : 0 ms
[OGL LOG] sort_host_mtx : 0 ms
[OGL LOG] init_preconditioner : 0 ms
 CG create  precond 
[OGL LOG] solve : 4 ms
BJcudaGKOCG:  Solving for p, Initial residual = 1, Final residual = 7.54946e-05, No Iterations 24
linear solve p 735540
time step continuity errors : sum local = 1.40976e-08, global = 2.49302e-21, cumulative = 2.49302e-21
[OGL LOG] init_host_sparsity_pattern : 0 ms
[OGL LOG] matrix not stored update host matrix
[OGL LOG] update_host_mtx : 0 ms
[OGL LOG] matrix is not yet sorted, sorting host matrix
[OGL LOG] sort_host_mtx_sparsity_pattern : 0 ms
[OGL LOG] sort_host_mtx : 0 ms
[OGL LOG] init_preconditioner : 0 ms
 CG create  precond 
[OGL LOG] solve : 3 ms
BJcudaGKOCG:  Solving for p, Initial residual = 0.0544933, Final residual = 5.94698e-05, No Iterations 20
linear solve p 3955
time step continuity errors : sum local = 2.23073e-08, global = -3.23014e-22, cumulative = 2.17e-21
ExecutionTime = 0.77 s  ClockTime = 0 s

Time = 0.002

Courant Number mean: 0.000593121 max: 0.00137348
DILUPBiCGStab:  Solving for Ux, Initial residual = 0.290545, Final residual = 1.32909e-30, No Iterations 5
DILUPBiCGStab:  Solving for Uy, Initial residual = 0.317548, Final residual = 1.13413e-30, No Iterations 5
DILUPBiCGStab:  Solving for Uz, Initial residual = 0.318839, Final residual = 2.87405e-30, No Iterations 5
linear solve U 101
[OGL LOG] init_host_sparsity_pattern : 0 ms
[OGL LOG] matrix not stored update host matrix
[OGL LOG] update_host_mtx : 0 ms
[OGL LOG] matrix is not yet sorted, sorting host matrix
[OGL LOG] sort_host_mtx_sparsity_pattern : 0 ms
[OGL LOG] sort_host_mtx : 0 ms
[OGL LOG] init_preconditioner : 0 ms
 CG create  precond 
[OGL LOG] solve : 2 ms
BJcudaGKOCG:  Solving for p, Initial residual = 0.110395, Final residual = 7.59351e-05, No Iterations 11
linear solve p 2592
time step continuity errors : sum local = 4.52876e-08, global = 1.18262e-20, cumulative = 1.39962e-20
[OGL LOG] init_host_sparsity_pattern : 0 ms
[OGL LOG] matrix not stored update host matrix
[OGL LOG] update_host_mtx : 0 ms
[OGL LOG] matrix is not yet sorted, sorting host matrix
[OGL LOG] sort_host_mtx_sparsity_pattern : 0 ms
[OGL LOG] sort_host_mtx : 0 ms
[OGL LOG] init_preconditioner : 0 ms
 CG create  precond 
[OGL LOG] solve : 1 ms
BJcudaGKOCG:  Solving for p, Initial residual = 0.00289695, Final residual = 9.72598e-05, No Iterations 6
linear solve p 1810
time step continuity errors : sum local = 5.36887e-08, global = 1.07194e-20, cumulative = 2.47156e-20
ExecutionTime = 0.77 s  ClockTime = 0 s

Time = 0.003

Courant Number mean: 0.00113043 max: 0.00263299
DILUPBiCGStab:  Solving for Ux, Initial residual = 0.161954, Final residual = 7.38261e-31, No Iterations 5
DILUPBiCGStab:  Solving for Uy, Initial residual = 0.186572, Final residual = 6.79904e-31, No Iterations 5
DILUPBiCGStab:  Solving for Uz, Initial residual = 0.229769, Final residual = 1.59543e-30, No Iterations 5
linear solve U 98
[OGL LOG] init_host_sparsity_pattern : 0 ms
[OGL LOG] matrix not stored update host matrix
[OGL LOG] update_host_mtx : 0 ms
[OGL LOG] matrix is not yet sorted, sorting host matrix
[OGL LOG] sort_host_mtx_sparsity_pattern : 0 ms
[OGL LOG] sort_host_mtx : 0 ms
[OGL LOG] init_preconditioner : 0 ms
 CG create  precond 
[OGL LOG] solve : 3 ms
BJcudaGKOCG:  Solving for p, Initial residual = 0.0561604, Final residual = 8.10022e-05, No Iterations 17
linear solve p 3483
time step continuity errors : sum local = 3.81749e-08, global = 5.16347e-21, cumulative = 2.98791e-20
[OGL LOG] init_host_sparsity_pattern : 0 ms
[OGL LOG] matrix not stored update host matrix
[OGL LOG] update_host_mtx : 0 ms
[OGL LOG] matrix is not yet sorted, sorting host matrix
[OGL LOG] sort_host_mtx_sparsity_pattern : 0 ms
[OGL LOG] sort_host_mtx : 0 ms
[OGL LOG] init_preconditioner : 0 ms
 CG create  precond 
[OGL LOG] solve : 1 ms
BJcudaGKOCG:  Solving for p, Initial residual = 0.00152754, Final residual = 5.13519e-05, No Iterations 5
linear solve p 1687
time step continuity errors : sum local = 2.96824e-08, global = -3.49959e-21, cumulative = 2.63795e-20
ExecutionTime = 0.78 s  ClockTime = 0 s

Time = 0.004

Courant Number mean: 0.0016182 max: 0.0037912
DILUPBiCGStab:  Solving for Ux, Initial residual = 0.108849, Final residual = 5.01427e-31, No Iterations 5
DILUPBiCGStab:  Solving for Uy, Initial residual = 0.129129, Final residual = 4.60967e-31, No Iterations 5
DILUPBiCGStab:  Solving for Uz, Initial residual = 0.175675, Final residual = 1.03325e-30, No Iterations 5
linear solve U 91
[OGL LOG] init_host_sparsity_pattern : 0 ms
[OGL LOG] matrix not stored update host matrix
[OGL LOG] update_host_mtx : 0 ms
[OGL LOG] matrix is not yet sorted, sorting host matrix
[OGL LOG] sort_host_mtx_sparsity_pattern : 0 ms
[OGL LOG] sort_host_mtx : 0 ms
[OGL LOG] init_preconditioner : 0 ms
 CG create  precond 
[OGL LOG] solve : 1 ms
BJcudaGKOCG:  Solving for p, Initial residual = 0.0347253, Final residual = 9.12664e-05, No Iterations 9
linear solve p 2289
time step continuity errors : sum local = 6.69565e-08, global = -9.72144e-21, cumulative = 1.66581e-20
[OGL LOG] init_host_sparsity_pattern : 0 ms
[OGL LOG] matrix not stored update host matrix
[OGL LOG] update_host_mtx : 0 ms
[OGL LOG] matrix is not yet sorted, sorting host matrix
[OGL LOG] sort_host_mtx_sparsity_pattern : 0 ms
[OGL LOG] sort_host_mtx : 0 ms
[OGL LOG] init_preconditioner : 0 ms
 CG create  precond 
[OGL LOG] solve : 1 ms
BJcudaGKOCG:  Solving for p, Initial residual = 0.00100749, Final residual = 6.88773e-05, No Iterations 5
linear solve p 1705
time step continuity errors : sum local = 5.21106e-08, global = -1.67508e-20, cumulative = -9.27476e-23
ExecutionTime = 0.79 s  ClockTime = 0 s

Time = 0.005

Courant Number mean: 0.00206191 max: 0.00485794
DILUPBiCGStab:  Solving for Ux, Initial residual = 0.0800665, Final residual = 3.7333e-31, No Iterations 5
DILUPBiCGStab:  Solving for Uy, Initial residual = 0.0966941, Final residual = 3.34077e-31, No Iterations 5
DILUPBiCGStab:  Solving for Uz, Initial residual = 0.142825, Final residual = 7.10888e-31, No Iterations 5
linear solve U 97
[OGL LOG] init_host_sparsity_pattern : 0 ms
[OGL LOG] matrix not stored update host matrix
[OGL LOG] update_host_mtx : 0 ms
[OGL LOG] matrix is not yet sorted, sorting host matrix
[OGL LOG] sort_host_mtx_sparsity_pattern : 0 ms
[OGL LOG] sort_host_mtx : 0 ms
[OGL LOG] init_preconditioner : 0 ms
 CG create  precond 
[OGL LOG] solve : 2 ms
BJcudaGKOCG:  Solving for p, Initial residual = 0.0235599, Final residual = 7.55099e-05, No Iterations 17
linear solve p 3426
time step continuity errors : sum local = 4.10104e-08, global = -1.15789e-20, cumulative = -1.16716e-20
[OGL LOG] init_host_sparsity_pattern : 0 ms
[OGL LOG] matrix not stored update host matrix
[OGL LOG] update_host_mtx : 0 ms
[OGL LOG] matrix is not yet sorted, sorting host matrix
[OGL LOG] sort_host_mtx_sparsity_pattern : 0 ms
[OGL LOG] sort_host_mtx : 0 ms
[OGL LOG] init_preconditioner : 0 ms
 CG create  precond 
[OGL LOG] solve : 1 ms
BJcudaGKOCG:  Solving for p, Initial residual = 0.000772012, Final residual = 3.92272e-05, No Iterations 5
linear solve p 1651
time step continuity errors : sum local = 2.74708e-08, global = -2.50239e-20, cumulative = -3.66955e-20
ExecutionTime = 0.8 s  ClockTime = 1 s

Time = 0.006

Courant Number mean: 0.00246619 max: 0.00584194
DILUPBiCGStab:  Solving for Ux, Initial residual = 0.0620373, Final residual = 2.92002e-31, No Iterations 5
DILUPBiCGStab:  Solving for Uy, Initial residual = 0.0759886, Final residual = 2.54734e-31, No Iterations 5
DILUPBiCGStab:  Solving for Uz, Initial residual = 0.118362, Final residual = 6.25225e-31, No Iterations 5
linear solve U 92
[OGL LOG] init_host_sparsity_pattern : 0 ms
[OGL LOG] matrix not stored update host matrix
[OGL LOG] update_host_mtx : 0 ms
[OGL LOG] matrix is not yet sorted, sorting host matrix
[OGL LOG] sort_host_mtx_sparsity_pattern : 0 ms
[OGL LOG] sort_host_mtx : 0 ms
[OGL LOG] init_preconditioner : 0 ms
 CG create  precond 
[OGL LOG] solve : 1 ms
BJcudaGKOCG:  Solving for p, Initial residual = 0.0172836, Final residual = 8.79503e-05, No Iterations 9
linear solve p 2216
time step continuity errors : sum local = 7.54388e-08, global = 2.08946e-21, cumulative = -3.4606e-20
[OGL LOG] init_host_sparsity_pattern : 0 ms
[OGL LOG] matrix not stored update host matrix
[OGL LOG] update_host_mtx : 0 ms
[OGL LOG] matrix is not yet sorted, sorting host matrix
[OGL LOG] sort_host_mtx_sparsity_pattern : 0 ms
[OGL LOG] sort_host_mtx : 0 ms
[OGL LOG] init_preconditioner : 0 ms
 CG create  precond 
[OGL LOG] solve : 1 ms
BJcudaGKOCG:  Solving for p, Initial residual = 0.000618198, Final residual = 9.96522e-05, No Iterations 4
linear solve p 1569
time step continuity errors : sum local = 7.79161e-08, global = 3.2222e-20, cumulative = -2.38404e-21
ExecutionTime = 0.8 s  ClockTime = 1 s

Time = 0.007

Courant Number mean: 0.00283513 max: 0.00675066
DILUPBiCGStab:  Solving for Ux, Initial residual = 0.0497801, Final residual = 2.35985e-31, No Iterations 5
DILUPBiCGStab:  Solving for Uy, Initial residual = 0.0616355, Final residual = 2.02416e-31, No Iterations 5
DILUPBiCGStab:  Solving for Uz, Initial residual = 0.101284, Final residual = 6.16773e-31, No Iterations 5
linear solve U 92
[OGL LOG] init_host_sparsity_pattern : 0 ms
[OGL LOG] matrix not stored update host matrix
[OGL LOG] update_host_mtx : 0 ms
[OGL LOG] matrix is not yet sorted, sorting host matrix
[OGL LOG] sort_host_mtx_sparsity_pattern : 0 ms
[OGL LOG] sort_host_mtx : 0 ms
[OGL LOG] init_preconditioner : 0 ms
 CG create  precond 
[OGL LOG] solve : 2 ms
BJcudaGKOCG:  Solving for p, Initial residual = 0.0132888, Final residual = 5.9682e-05, No Iterations 17
linear solve p 3333
time step continuity errors : sum local = 3.47586e-08, global = 4.10612e-21, cumulative = 1.72209e-21
[OGL LOG] init_host_sparsity_pattern : 0 ms
[OGL LOG] matrix not stored update host matrix
[OGL LOG] update_host_mtx : 0 ms
[OGL LOG] matrix is not yet sorted, sorting host matrix
[OGL LOG] sort_host_mtx_sparsity_pattern : 0 ms
[OGL LOG] sort_host_mtx : 0 ms
[OGL LOG] init_preconditioner : 0 ms
 CG create  precond 
[OGL LOG] solve : 1 ms
BJcudaGKOCG:  Solving for p, Initial residual = 0.000520037, Final residual = 7.11002e-05, No Iterations 4
linear solve p 1489
time step continuity errors : sum local = 4.77055e-08, global = -1.89892e-20, cumulative = -1.72671e-20
ExecutionTime = 0.8 s  ClockTime = 1 s

Time = 0.008

Courant Number mean: 0.00317231 max: 0.00759081
DILUPBiCGStab:  Solving for Ux, Initial residual = 0.0409, Final residual = 1.95652e-31, No Iterations 5
DILUPBiCGStab:  Solving for Uy, Initial residual = 0.0512149, Final residual = 1.67149e-31, No Iterations 5
DILUPBiCGStab:  Solving for Uz, Initial residual = 0.0875074, Final residual = 6.15015e-31, No Iterations 5
linear solve U 92
[OGL LOG] init_host_sparsity_pattern : 0 ms
[OGL LOG] matrix not stored update host matrix
[OGL LOG] update_host_mtx : 0 ms
[OGL LOG] matrix is not yet sorted, sorting host matrix
[OGL LOG] sort_host_mtx_sparsity_pattern : 0 ms
[OGL LOG] sort_host_mtx : 0 ms
[OGL LOG] init_preconditioner : 0 ms
 CG create  precond 
[OGL LOG] solve : 1 ms
BJcudaGKOCG:  Solving for p, Initial residual = 0.0106269, Final residual = 7.44454e-05, No Iterations 9
linear solve p 2223
time step continuity errors : sum local = 6.84428e-08, global = 1.21091e-20, cumulative = -5.15799e-21
[OGL LOG] init_host_sparsity_pattern : 0 ms
[OGL LOG] matrix not stored update host matrix
[OGL LOG] update_host_mtx : 0 ms
[OGL LOG] matrix is not yet sorted, sorting host matrix
[OGL LOG] sort_host_mtx_sparsity_pattern : 0 ms
[OGL LOG] sort_host_mtx : 0 ms
[OGL LOG] init_preconditioner : 0 ms
 CG create  precond 
[OGL LOG] solve : 1 ms
BJcudaGKOCG:  Solving for p, Initial residual = 0.000464234, Final residual = 7.56184e-05, No Iterations 4
linear solve p 1563
time step continuity errors : sum local = 6.49515e-08, global = 1.70631e-20, cumulative = 1.19051e-20
ExecutionTime = 0.81 s  ClockTime = 1 s

Time = 0.009

Courant Number mean: 0.00348091 max: 0.00836824
DILUPBiCGStab:  Solving for Ux, Initial residual = 0.0342432, Final residual = 1.65817e-31, No Iterations 5
DILUPBiCGStab:  Solving for Uy, Initial residual = 0.0432826, Final residual = 1.40219e-31, No Iterations 5
DILUPBiCGStab:  Solving for Uz, Initial residual = 0.0772568, Final residual = 5.97849e-31, No Iterations 5
linear solve U 103
[OGL LOG] init_host_sparsity_pattern : 0 ms
[OGL LOG] matrix not stored update host matrix
[OGL LOG] update_host_mtx : 0 ms
[OGL LOG] matrix is not yet sorted, sorting host matrix
[OGL LOG] sort_host_mtx_sparsity_pattern : 0 ms
[OGL LOG] sort_host_mtx : 0 ms
[OGL LOG] init_preconditioner : 0 ms
 CG create  precond 
[OGL LOG] solve : 2 ms
BJcudaGKOCG:  Solving for p, Initial residual = 0.00871259, Final residual = 4.24349e-05, No Iterations 17
linear solve p 3369
time step continuity errors : sum local = 2.58148e-08, global = 7.37514e-21, cumulative = 1.92802e-20
[OGL LOG] init_host_sparsity_pattern : 0 ms
[OGL LOG] matrix not stored update host matrix
[OGL LOG] update_host_mtx : 0 ms
[OGL LOG] matrix is not yet sorted, sorting host matrix
[OGL LOG] sort_host_mtx_sparsity_pattern : 0 ms
[OGL LOG] sort_host_mtx : 0 ms
[OGL LOG] init_preconditioner : 0 ms
 CG create  precond 
[OGL LOG] solve : 1 ms
BJcudaGKOCG:  Solving for p, Initial residual = 0.000417681, Final residual = 5.75691e-05, No Iterations 4
linear solve p 1536
time step continuity errors : sum local = 4.07874e-08, global = -8.50259e-21, cumulative = 1.07776e-20
ExecutionTime = 0.81 s  ClockTime = 1 s

Time = 0.01

Courant Number mean: 0.0037637 max: 0.00908822
DILUPBiCGStab:  Solving for Ux, Initial residual = 0.029046, Final residual = 1.43089e-31, No Iterations 5
DILUPBiCGStab:  Solving for Uy, Initial residual = 0.0371271, Final residual = 1.19535e-31, No Iterations 5
DILUPBiCGStab:  Solving for Uz, Initial residual = 0.0684648, Final residual = 4.96822e-31, No Iterations 5
linear solve U 91
[OGL LOG] init_host_sparsity_pattern : 0 ms
[OGL LOG] matrix not stored update host matrix
[OGL LOG] update_host_mtx : 0 ms
[OGL LOG] matrix is not yet sorted, sorting host matrix
[OGL LOG] sort_host_mtx_sparsity_pattern : 0 ms
[OGL LOG] sort_host_mtx : 0 ms
[OGL LOG] init_preconditioner : 0 ms
 CG create  precond 
[OGL LOG] solve : 1 ms
BJcudaGKOCG:  Solving for p, Initial residual = 0.0073503, Final residual = 8.62023e-05, No Iterations 8
linear solve p 2161
time step continuity errors : sum local = 7.61009e-08, global = -5.87546e-21, cumulative = 4.90218e-21
[OGL LOG] init_host_sparsity_pattern : 0 ms
[OGL LOG] matrix not stored update host matrix
[OGL LOG] update_host_mtx : 0 ms
[OGL LOG] matrix is not yet sorted, sorting host matrix
[OGL LOG] sort_host_mtx_sparsity_pattern : 0 ms
[OGL LOG] sort_host_mtx : 0 ms
[OGL LOG] init_preconditioner : 0 ms
 CG create  precond 
[OGL LOG] solve : 1 ms
BJcudaGKOCG:  Solving for p, Initial residual = 0.000381206, Final residual = 6.02273e-05, No Iterations 4
linear solve p 1561
time step continuity errors : sum local = 5.61062e-08, global = 9.41166e-21, cumulative = 1.43138e-20
ExecutionTime = 0.82 s  ClockTime = 1 s

End

