/*---------------------------------------------------------------------------*\
  =========                 |
  \\      /  F ield         | OpenFOAM: The Open Source CFD Toolbox
   \\    /   O peration     | Website:  https://openfoam.org
    \\  /    A nd           | Version:  8
     \\/     M anipulation  |
\*---------------------------------------------------------------------------*/
Build  : 8-40a5a48f630f
Exec   : icoFoam
Date   : Jul 28 2021
Time   : 12:12:18
Host   : "uc2n412.localdomain"
PID    : 4074294
I/O    : uncollated
Case   : /pfs/data5/home/kit/scc/nq7776/code/OBR/lidDrivenCavity3D/Variation_mesh/65/Variation_matrix_solver/BiCGStab_NoPrecond_OMP/base
nProcs : 1
sigFpe : Enabling floating point exception trapping (FOAM_SIGFPE).
fileModificationChecking : Monitoring run-time modified files using timeStampMaster (fileModificationSkew 10)
allowSystemOperations : Allowing user-supplied system call operations

// * * * * * * * * * * * * * * * * * * * * * * * * * * * * * * * * * * * * * //
Create time

Create mesh for time = 0

Reading transportProperties

Reading field p

Reading field U

Reading/calculating face flux field phi


Starting time loop

Time = 0.001

Courant Number mean: 0 max: 0
nonePBiCGStab:  Solving for Ux, Initial residual = 1, Final residual = 0.053017, No Iterations 5
nonePBiCGStab:  Solving for Uy, Initial residual = 0, Final residual = 0, No Iterations 0
nonePBiCGStab:  Solving for Uz, Initial residual = 0, Final residual = 0, No Iterations 0
linear solve U 67
[OGL LOG] init_host_sparsity_pattern : 77 ms
[OGL LOG] matrix not stored update host matrix
[OGL LOG] update_host_mtx : 40 ms
[OGL LOG] matrix is not yet sorted, compute sorting idxs
[OGL LOG] compute_sort : 2376 ms
[OGL LOG] matrix is not yet sorted, sorting host matrix
[OGL LOG] sort_host_mtx_sparsity_pattern : 56 ms
[OGL LOG] sort_host_mtx : 33 ms
[OGL LOG] init_preconditioner : 0 ms
[OGL LOG] solve : 2066 ms
noneompGKOBiCGStab:  Solving for p, Initial residual = 1, Final residual = 9.23015e-05, No Iterations 415
linear solve p 4707
time step continuity errors : sum local = 1.54945e-07, global = -1.26331e-21, cumulative = -1.26331e-21
[OGL LOG] init_host_sparsity_pattern : 75 ms
[OGL LOG] matrix not stored update host matrix
[OGL LOG] update_host_mtx : 40 ms
[OGL LOG] matrix is not yet sorted, sorting host matrix
[OGL LOG] sort_host_mtx_sparsity_pattern : 55 ms
[OGL LOG] sort_host_mtx : 27 ms
[OGL LOG] init_preconditioner : 0 ms
[OGL LOG] solve : 2008 ms
noneompGKOBiCGStab:  Solving for p, Initial residual = 0.674596, Final residual = 9.84261e-05, No Iterations 404
linear solve p 2240
time step continuity errors : sum local = 1.10577e-05, global = -5.80969e-21, cumulative = -7.073e-21
ExecutionTime = 44.84 s  ClockTime = 9 s

Time = 0.002

Courant Number mean: 0.0326917 max: 0.468251
nonePBiCGStab:  Solving for Ux, Initial residual = 0.152193, Final residual = 0.0215992, No Iterations 5
nonePBiCGStab:  Solving for Uy, Initial residual = 0.364689, Final residual = 0.050728, No Iterations 5
nonePBiCGStab:  Solving for Uz, Initial residual = 0.922385, Final residual = 0.176671, No Iterations 5
linear solve U 134
[OGL LOG] init_host_sparsity_pattern : 74 ms
[OGL LOG] matrix not stored update host matrix
[OGL LOG] update_host_mtx : 39 ms
[OGL LOG] matrix is not yet sorted, sorting host matrix
[OGL LOG] sort_host_mtx_sparsity_pattern : 57 ms
[OGL LOG] sort_host_mtx : 28 ms
[OGL LOG] init_preconditioner : 0 ms
[OGL LOG] solve : 1935 ms
noneompGKOBiCGStab:  Solving for p, Initial residual = 0.656774, Final residual = 9.84923e-05, No Iterations 393
linear solve p 2171
time step continuity errors : sum local = 3.58016e-07, global = 1.64842e-22, cumulative = -6.90816e-21
[OGL LOG] init_host_sparsity_pattern : 77 ms
[OGL LOG] matrix not stored update host matrix
[OGL LOG] update_host_mtx : 40 ms
[OGL LOG] matrix is not yet sorted, sorting host matrix
[OGL LOG] sort_host_mtx_sparsity_pattern : 55 ms
[OGL LOG] sort_host_mtx : 27 ms
[OGL LOG] init_preconditioner : 0 ms
[OGL LOG] solve : 1856 ms
noneompGKOBiCGStab:  Solving for p, Initial residual = 0.571386, Final residual = 6.99257e-05, No Iterations 388
linear solve p 2091
time step continuity errors : sum local = 1.39853e-06, global = -1.27348e-21, cumulative = -8.18164e-21
ExecutionTime = 83.56 s  ClockTime = 13 s

Time = 0.003

Courant Number mean: 0.0501146 max: 0.556379
nonePBiCGStab:  Solving for Ux, Initial residual = 0.0551783, Final residual = 0.00615397, No Iterations 5
nonePBiCGStab:  Solving for Uy, Initial residual = 0.128666, Final residual = 0.01976, No Iterations 5
nonePBiCGStab:  Solving for Uz, Initial residual = 0.414765, Final residual = 0.0855605, No Iterations 5
linear solve U 133
[OGL LOG] init_host_sparsity_pattern : 74 ms
[OGL LOG] matrix not stored update host matrix
[OGL LOG] update_host_mtx : 40 ms
[OGL LOG] matrix is not yet sorted, sorting host matrix
[OGL LOG] sort_host_mtx_sparsity_pattern : 57 ms
[OGL LOG] sort_host_mtx : 27 ms
[OGL LOG] init_preconditioner : 0 ms
[OGL LOG] solve : 1460 ms
noneompGKOBiCGStab:  Solving for p, Initial residual = 0.563294, Final residual = 4.91414e-05, No Iterations 298
linear solve p 1695
time step continuity errors : sum local = 9.21127e-06, global = 6.86928e-21, cumulative = -1.31235e-21
[OGL LOG] init_host_sparsity_pattern : 72 ms
[OGL LOG] matrix not stored update host matrix
[OGL LOG] update_host_mtx : 35 ms
[OGL LOG] matrix is not yet sorted, sorting host matrix
[OGL LOG] sort_host_mtx_sparsity_pattern : 57 ms
[OGL LOG] sort_host_mtx : 27 ms
[OGL LOG] init_preconditioner : 0 ms
[OGL LOG] solve : 1635 ms
noneompGKOBiCGStab:  Solving for p, Initial residual = 0.502115, Final residual = 8.36236e-05, No Iterations 333
linear solve p 1859
time step continuity errors : sum local = 4.34997e-07, global = -3.87167e-21, cumulative = -5.18402e-21
ExecutionTime = 115.33 s  ClockTime = 17 s

Time = 0.004

Courant Number mean: 0.0601086 max: 0.574835
nonePBiCGStab:  Solving for Ux, Initial residual = 0.0340702, Final residual = 0.00398542, No Iterations 5
nonePBiCGStab:  Solving for Uy, Initial residual = 0.0822442, Final residual = 0.00959102, No Iterations 5
nonePBiCGStab:  Solving for Uz, Initial residual = 0.305664, Final residual = 0.0692342, No Iterations 5
linear solve U 135
[OGL LOG] init_host_sparsity_pattern : 75 ms
[OGL LOG] matrix not stored update host matrix
[OGL LOG] update_host_mtx : 40 ms
[OGL LOG] matrix is not yet sorted, sorting host matrix
[OGL LOG] sort_host_mtx_sparsity_pattern : 55 ms
[OGL LOG] sort_host_mtx : 27 ms
[OGL LOG] init_preconditioner : 0 ms
[OGL LOG] solve : 1875 ms
noneompGKOBiCGStab:  Solving for p, Initial residual = 0.382389, Final residual = 9.43654e-05, No Iterations 384
linear solve p 2105
time step continuity errors : sum local = 5.46832e-07, global = -3.94012e-21, cumulative = -9.12414e-21
[OGL LOG] init_host_sparsity_pattern : 72 ms
[OGL LOG] matrix not stored update host matrix
[OGL LOG] update_host_mtx : 35 ms
[OGL LOG] matrix is not yet sorted, sorting host matrix
[OGL LOG] sort_host_mtx_sparsity_pattern : 55 ms
[OGL LOG] sort_host_mtx : 27 ms
[OGL LOG] init_preconditioner : 0 ms
[OGL LOG] solve : 1679 ms
noneompGKOBiCGStab:  Solving for p, Initial residual = 0.315947, Final residual = 9.74238e-05, No Iterations 343
linear solve p 1901
time step continuity errors : sum local = 1.09635e-07, global = 1.29651e-20, cumulative = 3.84094e-21
ExecutionTime = 151.65 s  ClockTime = 21 s

Time = 0.005

Courant Number mean: 0.0680044 max: 0.585492
nonePBiCGStab:  Solving for Ux, Initial residual = 0.0238677, Final residual = 0.00184486, No Iterations 5
nonePBiCGStab:  Solving for Uy, Initial residual = 0.0554283, Final residual = 0.00461759, No Iterations 5
nonePBiCGStab:  Solving for Uz, Initial residual = 0.182991, Final residual = 0.0333642, No Iterations 5
linear solve U 133
[OGL LOG] init_host_sparsity_pattern : 74 ms
[OGL LOG] matrix not stored update host matrix
[OGL LOG] update_host_mtx : 40 ms
[OGL LOG] matrix is not yet sorted, sorting host matrix
[OGL LOG] sort_host_mtx_sparsity_pattern : 55 ms
[OGL LOG] sort_host_mtx : 27 ms
[OGL LOG] init_preconditioner : 0 ms
[OGL LOG] solve : 1579 ms
noneompGKOBiCGStab:  Solving for p, Initial residual = 0.301435, Final residual = 9.38002e-05, No Iterations 322
linear solve p 1808
time step continuity errors : sum local = 5.0276e-07, global = 4.64694e-21, cumulative = 8.48788e-21
[OGL LOG] init_host_sparsity_pattern : 72 ms
[OGL LOG] matrix not stored update host matrix
[OGL LOG] update_host_mtx : 35 ms
[OGL LOG] matrix is not yet sorted, sorting host matrix
[OGL LOG] sort_host_mtx_sparsity_pattern : 56 ms
[OGL LOG] sort_host_mtx : 27 ms
[OGL LOG] init_preconditioner : 0 ms
[OGL LOG] solve : 1585 ms
noneompGKOBiCGStab:  Solving for p, Initial residual = 0.254553, Final residual = 9.33592e-05, No Iterations 324
linear solve p 1808
time step continuity errors : sum local = 8.58269e-07, global = -4.31931e-21, cumulative = 4.16857e-21
ExecutionTime = 184.08 s  ClockTime = 25 s

Time = 0.006

Courant Number mean: 0.074286 max: 0.592067
nonePBiCGStab:  Solving for Ux, Initial residual = 0.0182451, Final residual = 0.00143211, No Iterations 5
nonePBiCGStab:  Solving for Uy, Initial residual = 0.0405905, Final residual = 0.00281534, No Iterations 5
nonePBiCGStab:  Solving for Uz, Initial residual = 0.138063, Final residual = 0.0285273, No Iterations 5
linear solve U 134
[OGL LOG] init_host_sparsity_pattern : 75 ms
[OGL LOG] matrix not stored update host matrix
[OGL LOG] update_host_mtx : 40 ms
[OGL LOG] matrix is not yet sorted, sorting host matrix
[OGL LOG] sort_host_mtx_sparsity_pattern : 55 ms
[OGL LOG] sort_host_mtx : 27 ms
[OGL LOG] init_preconditioner : 0 ms
[OGL LOG] solve : 1579 ms
noneompGKOBiCGStab:  Solving for p, Initial residual = 0.213236, Final residual = 8.43402e-05, No Iterations 321
linear solve p 1809
time step continuity errors : sum local = 4.18749e-06, global = -4.04009e-21, cumulative = 1.28478e-22
[OGL LOG] init_host_sparsity_pattern : 72 ms
[OGL LOG] matrix not stored update host matrix
[OGL LOG] update_host_mtx : 37 ms
[OGL LOG] matrix is not yet sorted, sorting host matrix
[OGL LOG] sort_host_mtx_sparsity_pattern : 55 ms
[OGL LOG] sort_host_mtx : 27 ms
[OGL LOG] init_preconditioner : 0 ms
[OGL LOG] solve : 1605 ms
noneompGKOBiCGStab:  Solving for p, Initial residual = 0.182651, Final residual = 9.52224e-05, No Iterations 326
linear solve p 1831
time step continuity errors : sum local = 2.72761e-07, global = -1.24917e-20, cumulative = -1.23632e-20
ExecutionTime = 216.71 s  ClockTime = 29 s

Time = 0.007

Courant Number mean: 0.0794993 max: 0.596557
nonePBiCGStab:  Solving for Ux, Initial residual = 0.0141933, Final residual = 0.00127441, No Iterations 5
nonePBiCGStab:  Solving for Uy, Initial residual = 0.0336038, Final residual = 0.00299486, No Iterations 5
nonePBiCGStab:  Solving for Uz, Initial residual = 0.13296, Final residual = 0.0335414, No Iterations 5
linear solve U 133
[OGL LOG] init_host_sparsity_pattern : 75 ms
[OGL LOG] matrix not stored update host matrix
[OGL LOG] update_host_mtx : 40 ms
[OGL LOG] matrix is not yet sorted, sorting host matrix
[OGL LOG] sort_host_mtx_sparsity_pattern : 55 ms
[OGL LOG] sort_host_mtx : 27 ms
[OGL LOG] init_preconditioner : 0 ms
[OGL LOG] solve : 1514 ms
noneompGKOBiCGStab:  Solving for p, Initial residual = 0.188077, Final residual = 9.80327e-05, No Iterations 314
linear solve p 1745
time step continuity errors : sum local = 1.89948e-07, global = -5.21182e-21, cumulative = -1.7575e-20
[OGL LOG] init_host_sparsity_pattern : 75 ms
[OGL LOG] matrix not stored update host matrix
[OGL LOG] update_host_mtx : 39 ms
[OGL LOG] matrix is not yet sorted, sorting host matrix
[OGL LOG] sort_host_mtx_sparsity_pattern : 55 ms
[OGL LOG] sort_host_mtx : 27 ms
[OGL LOG] init_preconditioner : 0 ms
[OGL LOG] solve : 1512 ms
noneompGKOBiCGStab:  Solving for p, Initial residual = 0.157703, Final residual = 9.80397e-05, No Iterations 308
linear solve p 1746
time step continuity errors : sum local = 7.22524e-08, global = 8.97434e-21, cumulative = -8.60068e-21
ExecutionTime = 247.79 s  ClockTime = 33 s

Time = 0.008

Courant Number mean: 0.083838 max: 0.599925
nonePBiCGStab:  Solving for Ux, Initial residual = 0.0120517, Final residual = 0.000727108, No Iterations 5
nonePBiCGStab:  Solving for Uy, Initial residual = 0.0265187, Final residual = 0.00131221, No Iterations 5
nonePBiCGStab:  Solving for Uz, Initial residual = 0.100975, Final residual = 0.0184201, No Iterations 5
linear solve U 132
[OGL LOG] init_host_sparsity_pattern : 72 ms
[OGL LOG] matrix not stored update host matrix
[OGL LOG] update_host_mtx : 38 ms
[OGL LOG] matrix is not yet sorted, sorting host matrix
[OGL LOG] sort_host_mtx_sparsity_pattern : 56 ms
[OGL LOG] sort_host_mtx : 27 ms
[OGL LOG] init_preconditioner : 0 ms
[OGL LOG] solve : 1640 ms
noneompGKOBiCGStab:  Solving for p, Initial residual = 0.14246, Final residual = 8.16649e-05, No Iterations 337
linear solve p 1866
time step continuity errors : sum local = 4.93947e-08, global = 3.97526e-21, cumulative = -4.62542e-21
[OGL LOG] init_host_sparsity_pattern : 74 ms
[OGL LOG] matrix not stored update host matrix
[OGL LOG] update_host_mtx : 40 ms
[OGL LOG] matrix is not yet sorted, sorting host matrix
[OGL LOG] sort_host_mtx_sparsity_pattern : 56 ms
[OGL LOG] sort_host_mtx : 27 ms
[OGL LOG] init_preconditioner : 0 ms
[OGL LOG] solve : 1837 ms
noneompGKOBiCGStab:  Solving for p, Initial residual = 0.11751, Final residual = 6.83483e-05, No Iterations 374
linear solve p 2067
time step continuity errors : sum local = 1.84571e-07, global = -1.82943e-20, cumulative = -2.29197e-20
ExecutionTime = 283.34 s  ClockTime = 37 s

Time = 0.009

Courant Number mean: 0.0875866 max: 0.602556
nonePBiCGStab:  Solving for Ux, Initial residual = 0.00979179, Final residual = 0.000531472, No Iterations 5
nonePBiCGStab:  Solving for Uy, Initial residual = 0.022481, Final residual = 0.00098187, No Iterations 5
nonePBiCGStab:  Solving for Uz, Initial residual = 0.0736111, Final residual = 0.0109779, No Iterations 5
linear solve U 132
[OGL LOG] init_host_sparsity_pattern : 72 ms
[OGL LOG] matrix not stored update host matrix
[OGL LOG] update_host_mtx : 40 ms
[OGL LOG] matrix is not yet sorted, sorting host matrix
[OGL LOG] sort_host_mtx_sparsity_pattern : 55 ms
[OGL LOG] sort_host_mtx : 27 ms
[OGL LOG] init_preconditioner : 0 ms
[OGL LOG] solve : 1361 ms
noneompGKOBiCGStab:  Solving for p, Initial residual = 0.109666, Final residual = 9.44776e-05, No Iterations 277
linear solve p 1588
time step continuity errors : sum local = 1.09545e-06, global = 1.48989e-20, cumulative = -8.02083e-21
[OGL LOG] init_host_sparsity_pattern : 72 ms
[OGL LOG] matrix not stored update host matrix
[OGL LOG] update_host_mtx : 37 ms
[OGL LOG] matrix is not yet sorted, sorting host matrix
[OGL LOG] sort_host_mtx_sparsity_pattern : 55 ms
[OGL LOG] sort_host_mtx : 27 ms
[OGL LOG] init_preconditioner : 0 ms
[OGL LOG] solve : 723 ms
noneompGKOBiCGStab:  Solving for p, Initial residual = 0.0924957, Final residual = 8.85616e-05, No Iterations 147
linear solve p 947
time step continuity errors : sum local = 5.88075e-08, global = -5.17924e-21, cumulative = -1.32001e-20
ExecutionTime = 305.01 s  ClockTime = 40 s

Time = 0.01

Courant Number mean: 0.0908529 max: 0.604674
nonePBiCGStab:  Solving for Ux, Initial residual = 0.00846113, Final residual = 0.000569209, No Iterations 5
nonePBiCGStab:  Solving for Uy, Initial residual = 0.0186835, Final residual = 0.00101434, No Iterations 5
nonePBiCGStab:  Solving for Uz, Initial residual = 0.0652743, Final residual = 0.0134351, No Iterations 5
linear solve U 134
[OGL LOG] init_host_sparsity_pattern : 72 ms
[OGL LOG] matrix not stored update host matrix
[OGL LOG] update_host_mtx : 38 ms
[OGL LOG] matrix is not yet sorted, sorting host matrix
[OGL LOG] sort_host_mtx_sparsity_pattern : 55 ms
[OGL LOG] sort_host_mtx : 27 ms
[OGL LOG] init_preconditioner : 0 ms
[OGL LOG] solve : 1637 ms
noneompGKOBiCGStab:  Solving for p, Initial residual = 0.0949932, Final residual = 9.82643e-05, No Iterations 336
linear solve p 1863
time step continuity errors : sum local = 4.85478e-08, global = -8.41741e-21, cumulative = -2.16175e-20
[OGL LOG] init_host_sparsity_pattern : 74 ms
[OGL LOG] matrix not stored update host matrix
[OGL LOG] update_host_mtx : 40 ms
[OGL LOG] matrix is not yet sorted, sorting host matrix
[OGL LOG] sort_host_mtx_sparsity_pattern : 55 ms
[OGL LOG] sort_host_mtx : 27 ms
[OGL LOG] init_preconditioner : 0 ms
[OGL LOG] solve : 1542 ms
noneompGKOBiCGStab:  Solving for p, Initial residual = 0.079138, Final residual = 7.52843e-05, No Iterations 313
linear solve p 1773
time step continuity errors : sum local = 3.56563e-06, global = -1.52434e-20, cumulative = -3.68609e-20
ExecutionTime = 337.6 s  ClockTime = 44 s

End

