/*---------------------------------------------------------------------------*\
  =========                 |
  \\      /  F ield         | OpenFOAM: The Open Source CFD Toolbox
   \\    /   O peration     | Website:  https://openfoam.org
    \\  /    A nd           | Version:  8
     \\/     M anipulation  |
\*---------------------------------------------------------------------------*/
Build  : 8-40a5a48f630f
Exec   : icoFoam
Date   : Jul 28 2021
Time   : 12:06:32
Host   : "uc2n412.localdomain"
PID    : 4071028
I/O    : uncollated
Case   : /pfs/data5/home/kit/scc/nq7776/code/OBR/lidDrivenCavity3D/Variation_mesh/40/Variation_matrix_solver/BiCGStab_NoPrecond_OMP/base
nProcs : 1
sigFpe : Enabling floating point exception trapping (FOAM_SIGFPE).
fileModificationChecking : Monitoring run-time modified files using timeStampMaster (fileModificationSkew 10)
allowSystemOperations : Allowing user-supplied system call operations

// * * * * * * * * * * * * * * * * * * * * * * * * * * * * * * * * * * * * * //
Create time

Create mesh for time = 0

Reading transportProperties

Reading field p

Reading field U

Reading/calculating face flux field phi


Starting time loop

Time = 0.001

Courant Number mean: 0 max: 0
nonePBiCGStab:  Solving for Ux, Initial residual = 1, Final residual = 0.0197517, No Iterations 5
nonePBiCGStab:  Solving for Uy, Initial residual = 0, Final residual = 0, No Iterations 0
nonePBiCGStab:  Solving for Uz, Initial residual = 0, Final residual = 0, No Iterations 0
linear solve U 13
[OGL LOG] init_host_sparsity_pattern : 21 ms
[OGL LOG] matrix not stored update host matrix
[OGL LOG] update_host_mtx : 9 ms
[OGL LOG] matrix is not yet sorted, compute sorting idxs
[OGL LOG] compute_sort : 482 ms
[OGL LOG] matrix is not yet sorted, sorting host matrix
[OGL LOG] sort_host_mtx_sparsity_pattern : 12 ms
[OGL LOG] sort_host_mtx : 7 ms
[OGL LOG] init_preconditioner : 0 ms
[OGL LOG] solve : 263 ms
noneompGKOBiCGStab:  Solving for p, Initial residual = 1, Final residual = 8.58855e-05, No Iterations 253
linear solve p 810
time step continuity errors : sum local = 1.77812e-07, global = -1.80363e-20, cumulative = -1.80363e-20
[OGL LOG] init_host_sparsity_pattern : 21 ms
[OGL LOG] matrix not stored update host matrix
[OGL LOG] update_host_mtx : 9 ms
[OGL LOG] matrix is not yet sorted, sorting host matrix
[OGL LOG] sort_host_mtx_sparsity_pattern : 12 ms
[OGL LOG] sort_host_mtx : 6 ms
[OGL LOG] init_preconditioner : 0 ms
[OGL LOG] solve : 259 ms
noneompGKOBiCGStab:  Solving for p, Initial residual = 0.598507, Final residual = 7.66487e-05, No Iterations 249
linear solve p 316
time step continuity errors : sum local = 8.93525e-07, global = 5.42879e-21, cumulative = -1.26075e-20
ExecutionTime = 6.22 s  ClockTime = 2 s

Time = 0.002

Courant Number mean: 0.0210264 max: 0.237017
nonePBiCGStab:  Solving for Ux, Initial residual = 0.177803, Final residual = 0.00671948, No Iterations 5
nonePBiCGStab:  Solving for Uy, Initial residual = 0.294129, Final residual = 0.00780652, No Iterations 5
nonePBiCGStab:  Solving for Uz, Initial residual = 0.940995, Final residual = 0.0382149, No Iterations 5
linear solve U 26
[OGL LOG] init_host_sparsity_pattern : 16 ms
[OGL LOG] matrix not stored update host matrix
[OGL LOG] update_host_mtx : 9 ms
[OGL LOG] matrix is not yet sorted, sorting host matrix
[OGL LOG] sort_host_mtx_sparsity_pattern : 12 ms
[OGL LOG] sort_host_mtx : 6 ms
[OGL LOG] init_preconditioner : 0 ms
[OGL LOG] solve : 241 ms
noneompGKOBiCGStab:  Solving for p, Initial residual = 0.45821, Final residual = 9.12704e-05, No Iterations 232
linear solve p 293
time step continuity errors : sum local = 1.35122e-06, global = 5.77005e-21, cumulative = -6.83742e-21
[OGL LOG] init_host_sparsity_pattern : 16 ms
[OGL LOG] matrix not stored update host matrix
[OGL LOG] update_host_mtx : 8 ms
[OGL LOG] matrix is not yet sorted, sorting host matrix
[OGL LOG] sort_host_mtx_sparsity_pattern : 12 ms
[OGL LOG] sort_host_mtx : 6 ms
[OGL LOG] init_preconditioner : 0 ms
[OGL LOG] solve : 250 ms
noneompGKOBiCGStab:  Solving for p, Initial residual = 0.362062, Final residual = 9.59235e-05, No Iterations 234
linear solve p 303
time step continuity errors : sum local = 2.02691e-07, global = -1.40586e-21, cumulative = -8.24328e-21
ExecutionTime = 11.4 s  ClockTime = 3 s

Time = 0.003

Courant Number mean: 0.0321031 max: 0.305906
nonePBiCGStab:  Solving for Ux, Initial residual = 0.0655929, Final residual = 0.00127035, No Iterations 5
nonePBiCGStab:  Solving for Uy, Initial residual = 0.108232, Final residual = 0.00189374, No Iterations 5
nonePBiCGStab:  Solving for Uz, Initial residual = 0.204682, Final residual = 0.00934078, No Iterations 5
linear solve U 27
[OGL LOG] init_host_sparsity_pattern : 17 ms
[OGL LOG] matrix not stored update host matrix
[OGL LOG] update_host_mtx : 9 ms
[OGL LOG] matrix is not yet sorted, sorting host matrix
[OGL LOG] sort_host_mtx_sparsity_pattern : 14 ms
[OGL LOG] sort_host_mtx : 6 ms
[OGL LOG] init_preconditioner : 0 ms
[OGL LOG] solve : 232 ms
noneompGKOBiCGStab:  Solving for p, Initial residual = 0.165241, Final residual = 9.90472e-05, No Iterations 222
linear solve p 288
time step continuity errors : sum local = 2.5996e-07, global = -2.99024e-21, cumulative = -1.12335e-20
[OGL LOG] init_host_sparsity_pattern : 16 ms
[OGL LOG] matrix not stored update host matrix
[OGL LOG] update_host_mtx : 8 ms
[OGL LOG] matrix is not yet sorted, sorting host matrix
[OGL LOG] sort_host_mtx_sparsity_pattern : 12 ms
[OGL LOG] sort_host_mtx : 6 ms
[OGL LOG] init_preconditioner : 0 ms
[OGL LOG] solve : 173 ms
noneompGKOBiCGStab:  Solving for p, Initial residual = 0.129456, Final residual = 9.99226e-05, No Iterations 165
linear solve p 225
time step continuity errors : sum local = 1.31613e-07, global = -2.39896e-20, cumulative = -3.52231e-20
ExecutionTime = 15.73 s  ClockTime = 3 s

Time = 0.004

Courant Number mean: 0.0386757 max: 0.327549
nonePBiCGStab:  Solving for Ux, Initial residual = 0.0389345, Final residual = 0.000601029, No Iterations 5
nonePBiCGStab:  Solving for Uy, Initial residual = 0.06698, Final residual = 0.000693038, No Iterations 5
nonePBiCGStab:  Solving for Uz, Initial residual = 0.133107, Final residual = 0.00470893, No Iterations 5
linear solve U 27
[OGL LOG] init_host_sparsity_pattern : 17 ms
[OGL LOG] matrix not stored update host matrix
[OGL LOG] update_host_mtx : 9 ms
[OGL LOG] matrix is not yet sorted, sorting host matrix
[OGL LOG] sort_host_mtx_sparsity_pattern : 12 ms
[OGL LOG] sort_host_mtx : 6 ms
[OGL LOG] init_preconditioner : 0 ms
[OGL LOG] solve : 221 ms
noneompGKOBiCGStab:  Solving for p, Initial residual = 0.0864619, Final residual = 9.46873e-05, No Iterations 212
linear solve p 275
time step continuity errors : sum local = 2.82733e-07, global = -1.25426e-21, cumulative = -3.64774e-20
[OGL LOG] init_host_sparsity_pattern : 20 ms
[OGL LOG] matrix not stored update host matrix
[OGL LOG] update_host_mtx : 9 ms
[OGL LOG] matrix is not yet sorted, sorting host matrix
[OGL LOG] sort_host_mtx_sparsity_pattern : 12 ms
[OGL LOG] sort_host_mtx : 6 ms
[OGL LOG] init_preconditioner : 0 ms
[OGL LOG] solve : 217 ms
noneompGKOBiCGStab:  Solving for p, Initial residual = 0.0669034, Final residual = 9.98195e-05, No Iterations 209
linear solve p 273
time step continuity errors : sum local = 1.86264e-07, global = 1.7062e-20, cumulative = -1.94154e-20
ExecutionTime = 20.38 s  ClockTime = 4 s

Time = 0.005

Courant Number mean: 0.0434793 max: 0.337865
nonePBiCGStab:  Solving for Ux, Initial residual = 0.0269165, Final residual = 0.000350498, No Iterations 5
nonePBiCGStab:  Solving for Uy, Initial residual = 0.046913, Final residual = 0.000539658, No Iterations 5
nonePBiCGStab:  Solving for Uz, Initial residual = 0.0987823, Final residual = 0.00325146, No Iterations 5
linear solve U 27
[OGL LOG] init_host_sparsity_pattern : 20 ms
[OGL LOG] matrix not stored update host matrix
[OGL LOG] update_host_mtx : 9 ms
[OGL LOG] matrix is not yet sorted, sorting host matrix
[OGL LOG] sort_host_mtx_sparsity_pattern : 12 ms
[OGL LOG] sort_host_mtx : 6 ms
[OGL LOG] init_preconditioner : 0 ms
[OGL LOG] solve : 204 ms
noneompGKOBiCGStab:  Solving for p, Initial residual = 0.0454229, Final residual = 9.88774e-05, No Iterations 196
linear solve p 260
time step continuity errors : sum local = 1.77291e-07, global = -2.7739e-20, cumulative = -4.71545e-20
[OGL LOG] init_host_sparsity_pattern : 20 ms
[OGL LOG] matrix not stored update host matrix
[OGL LOG] update_host_mtx : 9 ms
[OGL LOG] matrix is not yet sorted, sorting host matrix
[OGL LOG] sort_host_mtx_sparsity_pattern : 12 ms
[OGL LOG] sort_host_mtx : 6 ms
[OGL LOG] init_preconditioner : 0 ms
[OGL LOG] solve : 87 ms
noneompGKOBiCGStab:  Solving for p, Initial residual = 0.036361, Final residual = 8.40523e-05, No Iterations 84
linear solve p 143
time step continuity errors : sum local = 6.94953e-08, global = -4.38075e-21, cumulative = -5.15352e-20
ExecutionTime = 23.57 s  ClockTime = 4 s

Time = 0.006

Courant Number mean: 0.047198 max: 0.344027
nonePBiCGStab:  Solving for Ux, Initial residual = 0.0205343, Final residual = 0.000214077, No Iterations 5
nonePBiCGStab:  Solving for Uy, Initial residual = 0.0355932, Final residual = 0.000278941, No Iterations 5
nonePBiCGStab:  Solving for Uz, Initial residual = 0.0735392, Final residual = 0.00211425, No Iterations 5
linear solve U 27
[OGL LOG] init_host_sparsity_pattern : 17 ms
[OGL LOG] matrix not stored update host matrix
[OGL LOG] update_host_mtx : 9 ms
[OGL LOG] matrix is not yet sorted, sorting host matrix
[OGL LOG] sort_host_mtx_sparsity_pattern : 12 ms
[OGL LOG] sort_host_mtx : 6 ms
[OGL LOG] init_preconditioner : 0 ms
[OGL LOG] solve : 232 ms
noneompGKOBiCGStab:  Solving for p, Initial residual = 0.0306512, Final residual = 9.99111e-05, No Iterations 218
linear solve p 286
time step continuity errors : sum local = 2.06259e-07, global = -1.78146e-20, cumulative = -6.93498e-20
[OGL LOG] init_host_sparsity_pattern : 18 ms
[OGL LOG] matrix not stored update host matrix
[OGL LOG] update_host_mtx : 9 ms
[OGL LOG] matrix is not yet sorted, sorting host matrix
[OGL LOG] sort_host_mtx_sparsity_pattern : 13 ms
[OGL LOG] sort_host_mtx : 6 ms
[OGL LOG] init_preconditioner : 0 ms
[OGL LOG] solve : 93 ms
noneompGKOBiCGStab:  Solving for p, Initial residual = 0.0250962, Final residual = 9.65984e-05, No Iterations 89
linear solve p 148
time step continuity errors : sum local = 1.27494e-07, global = -3.33121e-21, cumulative = -7.26811e-20
ExecutionTime = 27.1 s  ClockTime = 5 s

Time = 0.007

Courant Number mean: 0.0502305 max: 0.348255
nonePBiCGStab:  Solving for Ux, Initial residual = 0.0162186, Final residual = 0.000168553, No Iterations 5
nonePBiCGStab:  Solving for Uy, Initial residual = 0.0287306, Final residual = 0.000262829, No Iterations 5
nonePBiCGStab:  Solving for Uz, Initial residual = 0.0613638, Final residual = 0.00169042, No Iterations 5
linear solve U 27
[OGL LOG] init_host_sparsity_pattern : 20 ms
[OGL LOG] matrix not stored update host matrix
[OGL LOG] update_host_mtx : 9 ms
[OGL LOG] matrix is not yet sorted, sorting host matrix
[OGL LOG] sort_host_mtx_sparsity_pattern : 12 ms
[OGL LOG] sort_host_mtx : 6 ms
[OGL LOG] init_preconditioner : 0 ms
[OGL LOG] solve : 198 ms
noneompGKOBiCGStab:  Solving for p, Initial residual = 0.0238991, Final residual = 5.45742e-05, No Iterations 191
linear solve p 254
time step continuity errors : sum local = 6.78668e-08, global = 7.36877e-21, cumulative = -6.53123e-20
[OGL LOG] init_host_sparsity_pattern : 18 ms
[OGL LOG] matrix not stored update host matrix
[OGL LOG] update_host_mtx : 9 ms
[OGL LOG] matrix is not yet sorted, sorting host matrix
[OGL LOG] sort_host_mtx_sparsity_pattern : 12 ms
[OGL LOG] sort_host_mtx : 6 ms
[OGL LOG] init_preconditioner : 0 ms
[OGL LOG] solve : 88 ms
noneompGKOBiCGStab:  Solving for p, Initial residual = 0.0198514, Final residual = 7.73722e-05, No Iterations 85
linear solve p 142
time step continuity errors : sum local = 8.34062e-08, global = 3.97789e-21, cumulative = -6.13344e-20
ExecutionTime = 30.23 s  ClockTime = 5 s

Time = 0.008

Courant Number mean: 0.0527999 max: 0.351369
nonePBiCGStab:  Solving for Ux, Initial residual = 0.013436, Final residual = 0.000122284, No Iterations 5
nonePBiCGStab:  Solving for Uy, Initial residual = 0.0235262, Final residual = 0.000160453, No Iterations 5
nonePBiCGStab:  Solving for Uz, Initial residual = 0.0508052, Final residual = 0.00132799, No Iterations 5
linear solve U 27
[OGL LOG] init_host_sparsity_pattern : 17 ms
[OGL LOG] matrix not stored update host matrix
[OGL LOG] update_host_mtx : 9 ms
[OGL LOG] matrix is not yet sorted, sorting host matrix
[OGL LOG] sort_host_mtx_sparsity_pattern : 13 ms
[OGL LOG] sort_host_mtx : 6 ms
[OGL LOG] init_preconditioner : 0 ms
[OGL LOG] solve : 226 ms
noneompGKOBiCGStab:  Solving for p, Initial residual = 0.0190095, Final residual = 7.67646e-05, No Iterations 217
linear solve p 280
time step continuity errors : sum local = 2.52751e-07, global = -2.22385e-21, cumulative = -6.35582e-20
[OGL LOG] init_host_sparsity_pattern : 17 ms
[OGL LOG] matrix not stored update host matrix
[OGL LOG] update_host_mtx : 9 ms
[OGL LOG] matrix is not yet sorted, sorting host matrix
[OGL LOG] sort_host_mtx_sparsity_pattern : 12 ms
[OGL LOG] sort_host_mtx : 6 ms
[OGL LOG] init_preconditioner : 0 ms
[OGL LOG] solve : 90 ms
noneompGKOBiCGStab:  Solving for p, Initial residual = 0.0162493, Final residual = 9.8671e-05, No Iterations 87
linear solve p 143
time step continuity errors : sum local = 1.23728e-07, global = 2.64528e-20, cumulative = -3.71054e-20
ExecutionTime = 33.65 s  ClockTime = 6 s

Time = 0.009

Courant Number mean: 0.054986 max: 0.35378
nonePBiCGStab:  Solving for Ux, Initial residual = 0.0111943, Final residual = 9.09988e-05, No Iterations 5
nonePBiCGStab:  Solving for Uy, Initial residual = 0.0200988, Final residual = 0.000170699, No Iterations 5
nonePBiCGStab:  Solving for Uz, Initial residual = 0.0449699, Final residual = 0.00119589, No Iterations 5
linear solve U 27
[OGL LOG] init_host_sparsity_pattern : 17 ms
[OGL LOG] matrix not stored update host matrix
[OGL LOG] update_host_mtx : 9 ms
[OGL LOG] matrix is not yet sorted, sorting host matrix
[OGL LOG] sort_host_mtx_sparsity_pattern : 12 ms
[OGL LOG] sort_host_mtx : 6 ms
[OGL LOG] init_preconditioner : 0 ms
[OGL LOG] solve : 210 ms
noneompGKOBiCGStab:  Solving for p, Initial residual = 0.0162512, Final residual = 9.59464e-05, No Iterations 202
linear solve p 263
time step continuity errors : sum local = 6.7938e-08, global = 1.93046e-21, cumulative = -3.5175e-20
[OGL LOG] init_host_sparsity_pattern : 16 ms
[OGL LOG] matrix not stored update host matrix
[OGL LOG] update_host_mtx : 9 ms
[OGL LOG] matrix is not yet sorted, sorting host matrix
[OGL LOG] sort_host_mtx_sparsity_pattern : 12 ms
[OGL LOG] sort_host_mtx : 6 ms
[OGL LOG] init_preconditioner : 0 ms
[OGL LOG] solve : 165 ms
noneompGKOBiCGStab:  Solving for p, Initial residual = 0.0137065, Final residual = 9.89101e-05, No Iterations 158
linear solve p 217
time step continuity errors : sum local = 1.90079e-07, global = 1.37833e-20, cumulative = -2.13916e-20
ExecutionTime = 37.67 s  ClockTime = 6 s

Time = 0.01

Courant Number mean: 0.0568688 max: 0.355707
nonePBiCGStab:  Solving for Ux, Initial residual = 0.00966602, Final residual = 6.67687e-05, No Iterations 5
nonePBiCGStab:  Solving for Uy, Initial residual = 0.0170653, Final residual = 0.000139585, No Iterations 5
nonePBiCGStab:  Solving for Uz, Initial residual = 0.0384554, Final residual = 0.00101773, No Iterations 5
linear solve U 27
[OGL LOG] init_host_sparsity_pattern : 19 ms
[OGL LOG] matrix not stored update host matrix
[OGL LOG] update_host_mtx : 9 ms
[OGL LOG] matrix is not yet sorted, sorting host matrix
[OGL LOG] sort_host_mtx_sparsity_pattern : 12 ms
[OGL LOG] sort_host_mtx : 6 ms
[OGL LOG] init_preconditioner : 0 ms
[OGL LOG] solve : 187 ms
noneompGKOBiCGStab:  Solving for p, Initial residual = 0.0139744, Final residual = 9.60423e-05, No Iterations 179
linear solve p 242
time step continuity errors : sum local = 1.64667e-06, global = -1.16531e-20, cumulative = -3.30448e-20
[OGL LOG] init_host_sparsity_pattern : 17 ms
[OGL LOG] matrix not stored update host matrix
[OGL LOG] update_host_mtx : 9 ms
[OGL LOG] matrix is not yet sorted, sorting host matrix
[OGL LOG] sort_host_mtx_sparsity_pattern : 12 ms
[OGL LOG] sort_host_mtx : 6 ms
[OGL LOG] init_preconditioner : 0 ms
[OGL LOG] solve : 92 ms
noneompGKOBiCGStab:  Solving for p, Initial residual = 0.013922, Final residual = 9.88018e-05, No Iterations 88
linear solve p 145
time step continuity errors : sum local = 1.15841e-07, global = 1.97197e-21, cumulative = -3.10728e-20
ExecutionTime = 40.71 s  ClockTime = 7 s

End

