/*---------------------------------------------------------------------------*\
  =========                 |
  \\      /  F ield         | OpenFOAM: The Open Source CFD Toolbox
   \\    /   O peration     | Website:  https://openfoam.org
    \\  /    A nd           | Version:  8
     \\/     M anipulation  |
\*---------------------------------------------------------------------------*/
Build  : 8-ef60d22ea792
Exec   : icoFoam
Date   : Jul 29 2021
Time   : 02:50:15
Host   : "uc2n489.localdomain"
PID    : 3412075
I/O    : uncollated
Case   : /pfs/data5/home/kit/scc/nq7776/code/OBR/lidDrivenCavity3D/Variation_mesh/25/Variation_matrix_solver/CG_BJ_CUDA/base
nProcs : 1
sigFpe : Enabling floating point exception trapping (FOAM_SIGFPE).
fileModificationChecking : Monitoring run-time modified files using timeStampMaster (fileModificationSkew 10)
allowSystemOperations : Allowing user-supplied system call operations

// * * * * * * * * * * * * * * * * * * * * * * * * * * * * * * * * * * * * * //
Create time

Create mesh for time = 0

Reading transportProperties

Reading field p

Reading field U

Reading/calculating face flux field phi


Starting time loop

Time = 0.001

Courant Number mean: 0 max: 0
DILUPBiCGStab:  Solving for Ux, Initial residual = 1, Final residual = 1.01737e-08, No Iterations 5
DILUPBiCGStab:  Solving for Uy:  solution singularity
DILUPBiCGStab:  Solving for Uz:  solution singularity
linear solve U 5932
[OGL LOG] init_host_sparsity_pattern : 4 ms
[OGL LOG] matrix not stored update host matrix
[OGL LOG] update_host_mtx : 2 ms
[OGL LOG] matrix is not yet sorted, compute sorting idxs
[OGL LOG] compute_sort : 105 ms
[OGL LOG] matrix is not yet sorted, sorting host matrix
[OGL LOG] sort_host_mtx_sparsity_pattern : 2 ms
[OGL LOG] sort_host_mtx : 1 ms
[OGL LOG] init_preconditioner : 2 ms
 CG create  precond 
[OGL LOG] solve : 23 ms
BJcudaGKOCG:  Solving for p, Initial residual = 1, Final residual = 9.41245e-05, No Iterations 161
linear solve p 884631
time step continuity errors : sum local = 4.83785e-08, global = -6.91678e-21, cumulative = -6.91678e-21
[OGL LOG] init_host_sparsity_pattern : 4 ms
[OGL LOG] matrix not stored update host matrix
[OGL LOG] update_host_mtx : 2 ms
[OGL LOG] matrix is not yet sorted, sorting host matrix
[OGL LOG] sort_host_mtx_sparsity_pattern : 3 ms
[OGL LOG] sort_host_mtx : 1 ms
[OGL LOG] init_preconditioner : 0 ms
 CG create  precond 
[OGL LOG] solve : 22 ms
BJcudaGKOCG:  Solving for p, Initial residual = 0.481386, Final residual = 8.3393e-05, No Iterations 157
linear solve p 35391
time step continuity errors : sum local = 6.91678e-08, global = 1.66037e-20, cumulative = 9.68691e-21
ExecutionTime = 1 s  ClockTime = 1 s

Time = 0.002

Courant Number mean: 0.0119809 max: 0.106546
DILUPBiCGStab:  Solving for Ux, Initial residual = 0.210779, Final residual = 1.44914e-09, No Iterations 5
DILUPBiCGStab:  Solving for Uy, Initial residual = 0.28422, Final residual = 1.36663e-09, No Iterations 5
DILUPBiCGStab:  Solving for Uz, Initial residual = 0.890184, Final residual = 5.34729e-09, No Iterations 5
linear solve U 9849
[OGL LOG] init_host_sparsity_pattern : 4 ms
[OGL LOG] matrix not stored update host matrix
[OGL LOG] update_host_mtx : 1 ms
[OGL LOG] matrix is not yet sorted, sorting host matrix
[OGL LOG] sort_host_mtx_sparsity_pattern : 2 ms
[OGL LOG] sort_host_mtx : 1 ms
[OGL LOG] init_preconditioner : 0 ms
 CG create  precond 
[OGL LOG] solve : 21 ms
BJcudaGKOCG:  Solving for p, Initial residual = 0.286229, Final residual = 8.47806e-05, No Iterations 146
linear solve p 33353
time step continuity errors : sum local = 6.57379e-08, global = 4.00862e-21, cumulative = 1.36955e-20
[OGL LOG] init_host_sparsity_pattern : 4 ms
[OGL LOG] matrix not stored update host matrix
[OGL LOG] update_host_mtx : 1 ms
[OGL LOG] matrix is not yet sorted, sorting host matrix
[OGL LOG] sort_host_mtx_sparsity_pattern : 2 ms
[OGL LOG] sort_host_mtx : 1 ms
[OGL LOG] init_preconditioner : 0 ms
 CG create  precond 
[OGL LOG] solve : 20 ms
BJcudaGKOCG:  Solving for p, Initial residual = 0.18989, Final residual = 9.45264e-05, No Iterations 143
linear solve p 32618
time step continuity errors : sum local = 7.77705e-08, global = 3.71223e-21, cumulative = 1.74078e-20
ExecutionTime = 1.08 s  ClockTime = 1 s

Time = 0.003

Courant Number mean: 0.0188589 max: 0.15358
DILUPBiCGStab:  Solving for Ux, Initial residual = 0.090126, Final residual = 5.47163e-10, No Iterations 5
DILUPBiCGStab:  Solving for Uy, Initial residual = 0.124403, Final residual = 4.8609e-10, No Iterations 5
DILUPBiCGStab:  Solving for Uz, Initial residual = 0.25041, Final residual = 1.41553e-09, No Iterations 5
linear solve U 9601
[OGL LOG] init_host_sparsity_pattern : 4 ms
[OGL LOG] matrix not stored update host matrix
[OGL LOG] update_host_mtx : 1 ms
[OGL LOG] matrix is not yet sorted, sorting host matrix
[OGL LOG] sort_host_mtx_sparsity_pattern : 2 ms
[OGL LOG] sort_host_mtx : 1 ms
[OGL LOG] init_preconditioner : 0 ms
 CG create  precond 
[OGL LOG] solve : 20 ms
BJcudaGKOCG:  Solving for p, Initial residual = 0.103012, Final residual = 9.51225e-05, No Iterations 140
linear solve p 32555
time step continuity errors : sum local = 7.36103e-08, global = -8.89684e-21, cumulative = 8.51091e-21
[OGL LOG] init_host_sparsity_pattern : 4 ms
[OGL LOG] matrix not stored update host matrix
[OGL LOG] update_host_mtx : 1 ms
[OGL LOG] matrix is not yet sorted, sorting host matrix
[OGL LOG] sort_host_mtx_sparsity_pattern : 2 ms
[OGL LOG] sort_host_mtx : 1 ms
[OGL LOG] init_preconditioner : 0 ms
 CG create  precond 
[OGL LOG] solve : 20 ms
BJcudaGKOCG:  Solving for p, Initial residual = 0.0705487, Final residual = 9.21206e-05, No Iterations 137
linear solve p 31805
time step continuity errors : sum local = 7.33896e-08, global = -1.20467e-20, cumulative = -3.53578e-21
ExecutionTime = 1.17 s  ClockTime = 1 s

Time = 0.004

Courant Number mean: 0.0233284 max: 0.175141
DILUPBiCGStab:  Solving for Ux, Initial residual = 0.0520807, Final residual = 2.37845e-10, No Iterations 5
DILUPBiCGStab:  Solving for Uy, Initial residual = 0.074236, Final residual = 1.97826e-10, No Iterations 5
DILUPBiCGStab:  Solving for Uz, Initial residual = 0.12808, Final residual = 4.91515e-10, No Iterations 5
linear solve U 9749
[OGL LOG] init_host_sparsity_pattern : 4 ms
[OGL LOG] matrix not stored update host matrix
[OGL LOG] update_host_mtx : 1 ms
[OGL LOG] matrix is not yet sorted, sorting host matrix
[OGL LOG] sort_host_mtx_sparsity_pattern : 2 ms
[OGL LOG] sort_host_mtx : 1 ms
[OGL LOG] init_preconditioner : 0 ms
 CG create  precond 
[OGL LOG] solve : 20 ms
BJcudaGKOCG:  Solving for p, Initial residual = 0.055464, Final residual = 8.26588e-05, No Iterations 137
linear solve p 31985
time step continuity errors : sum local = 6.57431e-08, global = -1.6453e-20, cumulative = -1.99888e-20
[OGL LOG] init_host_sparsity_pattern : 4 ms
[OGL LOG] matrix not stored update host matrix
[OGL LOG] update_host_mtx : 1 ms
[OGL LOG] matrix is not yet sorted, sorting host matrix
[OGL LOG] sort_host_mtx_sparsity_pattern : 2 ms
[OGL LOG] sort_host_mtx : 1 ms
[OGL LOG] init_preconditioner : 0 ms
 CG create  precond 
[OGL LOG] solve : 19 ms
BJcudaGKOCG:  Solving for p, Initial residual = 0.0373543, Final residual = 8.39968e-05, No Iterations 134
linear solve p 31348
time step continuity errors : sum local = 6.81657e-08, global = -9.39403e-21, cumulative = -2.93829e-20
ExecutionTime = 1.25 s  ClockTime = 1 s

Time = 0.005

Courant Number mean: 0.0265076 max: 0.186526
DILUPBiCGStab:  Solving for Ux, Initial residual = 0.035161, Final residual = 1.72276e-10, No Iterations 5
DILUPBiCGStab:  Solving for Uy, Initial residual = 0.0507145, Final residual = 1.0266e-10, No Iterations 5
DILUPBiCGStab:  Solving for Uz, Initial residual = 0.0901257, Final residual = 2.76447e-10, No Iterations 5
linear solve U 9689
[OGL LOG] init_host_sparsity_pattern : 4 ms
[OGL LOG] matrix not stored update host matrix
[OGL LOG] update_host_mtx : 1 ms
[OGL LOG] matrix is not yet sorted, sorting host matrix
[OGL LOG] sort_host_mtx_sparsity_pattern : 2 ms
[OGL LOG] sort_host_mtx : 1 ms
[OGL LOG] init_preconditioner : 0 ms
 CG create  precond 
[OGL LOG] solve : 19 ms
BJcudaGKOCG:  Solving for p, Initial residual = 0.0349621, Final residual = 9.52836e-05, No Iterations 133
linear solve p 31271
time step continuity errors : sum local = 7.77755e-08, global = 1.19593e-20, cumulative = -1.74236e-20
[OGL LOG] init_host_sparsity_pattern : 4 ms
[OGL LOG] matrix not stored update host matrix
[OGL LOG] update_host_mtx : 2 ms
[OGL LOG] matrix is not yet sorted, sorting host matrix
[OGL LOG] sort_host_mtx_sparsity_pattern : 2 ms
[OGL LOG] sort_host_mtx : 1 ms
[OGL LOG] init_preconditioner : 0 ms
 CG create  precond 
[OGL LOG] solve : 22 ms
BJcudaGKOCG:  Solving for p, Initial residual = 0.0231801, Final residual = 9.44078e-05, No Iterations 130
linear solve p 34238
time step continuity errors : sum local = 7.79909e-08, global = -6.22792e-21, cumulative = -2.36515e-20
ExecutionTime = 1.33 s  ClockTime = 1 s

Time = 0.006

Courant Number mean: 0.0289086 max: 0.193356
DILUPBiCGStab:  Solving for Ux, Initial residual = 0.0259585, Final residual = 7.70563e-11, No Iterations 5
DILUPBiCGStab:  Solving for Uy, Initial residual = 0.0379156, Final residual = 6.96089e-11, No Iterations 5
DILUPBiCGStab:  Solving for Uz, Initial residual = 0.0699261, Final residual = 1.8118e-10, No Iterations 5
linear solve U 9860
[OGL LOG] init_host_sparsity_pattern : 4 ms
[OGL LOG] matrix not stored update host matrix
[OGL LOG] update_host_mtx : 1 ms
[OGL LOG] matrix is not yet sorted, sorting host matrix
[OGL LOG] sort_host_mtx_sparsity_pattern : 2 ms
[OGL LOG] sort_host_mtx : 1 ms
[OGL LOG] init_preconditioner : 0 ms
 CG create  precond 
[OGL LOG] solve : 19 ms
BJcudaGKOCG:  Solving for p, Initial residual = 0.0243671, Final residual = 8.61795e-05, No Iterations 131
linear solve p 31136
time step continuity errors : sum local = 7.1565e-08, global = 1.67471e-20, cumulative = -6.9044e-21
[OGL LOG] init_host_sparsity_pattern : 4 ms
[OGL LOG] matrix not stored update host matrix
[OGL LOG] update_host_mtx : 1 ms
[OGL LOG] matrix is not yet sorted, sorting host matrix
[OGL LOG] sort_host_mtx_sparsity_pattern : 2 ms
[OGL LOG] sort_host_mtx : 1 ms
[OGL LOG] init_preconditioner : 0 ms
 CG create  precond 
[OGL LOG] solve : 18 ms
BJcudaGKOCG:  Solving for p, Initial residual = 0.0163101, Final residual = 8.44776e-05, No Iterations 129
linear solve p 30665
time step continuity errors : sum local = 7.07127e-08, global = -1.9346e-20, cumulative = -2.62504e-20
ExecutionTime = 1.41 s  ClockTime = 2 s

Time = 0.007

Courant Number mean: 0.0308445 max: 0.197909
DILUPBiCGStab:  Solving for Ux, Initial residual = 0.0203706, Final residual = 3.5165e-11, No Iterations 5
DILUPBiCGStab:  Solving for Uy, Initial residual = 0.0299594, Final residual = 5.19014e-11, No Iterations 5
DILUPBiCGStab:  Solving for Uz, Initial residual = 0.0568503, Final residual = 1.29367e-10, No Iterations 5
linear solve U 9656
[OGL LOG] init_host_sparsity_pattern : 4 ms
[OGL LOG] matrix not stored update host matrix
[OGL LOG] update_host_mtx : 1 ms
[OGL LOG] matrix is not yet sorted, sorting host matrix
[OGL LOG] sort_host_mtx_sparsity_pattern : 2 ms
[OGL LOG] sort_host_mtx : 1 ms
[OGL LOG] init_preconditioner : 0 ms
 CG create  precond 
[OGL LOG] solve : 9 ms
BJcudaGKOCG:  Solving for p, Initial residual = 0.0185812, Final residual = 9.87823e-05, No Iterations 65
linear solve p 21719
time step continuity errors : sum local = 1.05135e-07, global = -1.30027e-20, cumulative = -3.92531e-20
[OGL LOG] init_host_sparsity_pattern : 4 ms
[OGL LOG] matrix not stored update host matrix
[OGL LOG] update_host_mtx : 1 ms
[OGL LOG] matrix is not yet sorted, sorting host matrix
[OGL LOG] sort_host_mtx_sparsity_pattern : 2 ms
[OGL LOG] sort_host_mtx : 1 ms
[OGL LOG] init_preconditioner : 0 ms
 CG create  precond 
[OGL LOG] solve : 8 ms
BJcudaGKOCG:  Solving for p, Initial residual = 0.0125837, Final residual = 8.75488e-05, No Iterations 58
linear solve p 20668
time step continuity errors : sum local = 8.34267e-08, global = 5.04756e-21, cumulative = -3.42055e-20
ExecutionTime = 1.46 s  ClockTime = 2 s

Time = 0.008

Courant Number mean: 0.0324896 max: 0.201188
DILUPBiCGStab:  Solving for Ux, Initial residual = 0.0165317, Final residual = 1.96233e-11, No Iterations 5
DILUPBiCGStab:  Solving for Uy, Initial residual = 0.0245584, Final residual = 3.95567e-11, No Iterations 5
DILUPBiCGStab:  Solving for Uz, Initial residual = 0.0475425, Final residual = 9.62589e-11, No Iterations 5
linear solve U 9663
[OGL LOG] init_host_sparsity_pattern : 4 ms
[OGL LOG] matrix not stored update host matrix
[OGL LOG] update_host_mtx : 1 ms
[OGL LOG] matrix is not yet sorted, sorting host matrix
[OGL LOG] sort_host_mtx_sparsity_pattern : 2 ms
[OGL LOG] sort_host_mtx : 1 ms
[OGL LOG] init_preconditioner : 0 ms
 CG create  precond 
[OGL LOG] solve : 9 ms
BJcudaGKOCG:  Solving for p, Initial residual = 0.0149034, Final residual = 9.73488e-05, No Iterations 61
linear solve p 21089
time step continuity errors : sum local = 1.05758e-07, global = -1.96099e-20, cumulative = -5.38154e-20
[OGL LOG] init_host_sparsity_pattern : 4 ms
[OGL LOG] matrix not stored update host matrix
[OGL LOG] update_host_mtx : 1 ms
[OGL LOG] matrix is not yet sorted, sorting host matrix
[OGL LOG] sort_host_mtx_sparsity_pattern : 2 ms
[OGL LOG] sort_host_mtx : 1 ms
[OGL LOG] init_preconditioner : 0 ms
 CG create  precond 
[OGL LOG] solve : 8 ms
BJcudaGKOCG:  Solving for p, Initial residual = 0.0101519, Final residual = 9.26329e-05, No Iterations 56
linear solve p 20434
time step continuity errors : sum local = 9.34329e-08, global = -1.99062e-20, cumulative = -7.37216e-20
ExecutionTime = 1.52 s  ClockTime = 2 s

Time = 0.009

Courant Number mean: 0.0338931 max: 0.203683
DILUPBiCGStab:  Solving for Ux, Initial residual = 0.0137915, Final residual = 1.28035e-11, No Iterations 5
DILUPBiCGStab:  Solving for Uy, Initial residual = 0.0206407, Final residual = 3.02824e-11, No Iterations 5
DILUPBiCGStab:  Solving for Uz, Initial residual = 0.0405206, Final residual = 7.43543e-11, No Iterations 5
linear solve U 9758
[OGL LOG] init_host_sparsity_pattern : 4 ms
[OGL LOG] matrix not stored update host matrix
[OGL LOG] update_host_mtx : 1 ms
[OGL LOG] matrix is not yet sorted, sorting host matrix
[OGL LOG] sort_host_mtx_sparsity_pattern : 2 ms
[OGL LOG] sort_host_mtx : 1 ms
[OGL LOG] init_preconditioner : 0 ms
 CG create  precond 
[OGL LOG] solve : 9 ms
BJcudaGKOCG:  Solving for p, Initial residual = 0.0123324, Final residual = 9.81917e-05, No Iterations 61
linear solve p 21142
time step continuity errors : sum local = 1.0974e-07, global = 2.76508e-20, cumulative = -4.60708e-20
[OGL LOG] init_host_sparsity_pattern : 4 ms
[OGL LOG] matrix not stored update host matrix
[OGL LOG] update_host_mtx : 1 ms
[OGL LOG] matrix is not yet sorted, sorting host matrix
[OGL LOG] sort_host_mtx_sparsity_pattern : 2 ms
[OGL LOG] sort_host_mtx : 1 ms
[OGL LOG] init_preconditioner : 0 ms
 CG create  precond 
[OGL LOG] solve : 8 ms
BJcudaGKOCG:  Solving for p, Initial residual = 0.0084499, Final residual = 9.40575e-05, No Iterations 55
linear solve p 20209
time step continuity errors : sum local = 9.92707e-08, global = 2.38466e-21, cumulative = -4.36862e-20
ExecutionTime = 1.58 s  ClockTime = 2 s

Time = 0.01

Courant Number mean: 0.0351035 max: 0.205656
DILUPBiCGStab:  Solving for Ux, Initial residual = 0.0117256, Final residual = 9.29124e-12, No Iterations 5
DILUPBiCGStab:  Solving for Uy, Initial residual = 0.0176682, Final residual = 2.34322e-11, No Iterations 5
DILUPBiCGStab:  Solving for Uz, Initial residual = 0.0350655, Final residual = 5.82356e-11, No Iterations 5
linear solve U 9663
[OGL LOG] init_host_sparsity_pattern : 4 ms
[OGL LOG] matrix not stored update host matrix
[OGL LOG] update_host_mtx : 1 ms
[OGL LOG] matrix is not yet sorted, sorting host matrix
[OGL LOG] sort_host_mtx_sparsity_pattern : 2 ms
[OGL LOG] sort_host_mtx : 1 ms
[OGL LOG] init_preconditioner : 0 ms
 CG create  precond 
[OGL LOG] solve : 18 ms
BJcudaGKOCG:  Solving for p, Initial residual = 0.010413, Final residual = 9.79032e-05, No Iterations 123
linear solve p 29829
time step continuity errors : sum local = 8.41682e-08, global = -3.79608e-20, cumulative = -8.16469e-20
[OGL LOG] init_host_sparsity_pattern : 4 ms
[OGL LOG] matrix not stored update host matrix
[OGL LOG] update_host_mtx : 1 ms
[OGL LOG] matrix is not yet sorted, sorting host matrix
[OGL LOG] sort_host_mtx_sparsity_pattern : 2 ms
[OGL LOG] sort_host_mtx : 1 ms
[OGL LOG] init_preconditioner : 0 ms
 CG create  precond 
[OGL LOG] solve : 8 ms
BJcudaGKOCG:  Solving for p, Initial residual = 0.00715698, Final residual = 8.61151e-05, No Iterations 54
linear solve p 20083
time step continuity errors : sum local = 8.56526e-08, global = -8.99352e-21, cumulative = -9.06405e-20
ExecutionTime = 1.65 s  ClockTime = 2 s

End

