/*---------------------------------------------------------------------------*\
  =========                 |
  \\      /  F ield         | OpenFOAM: The Open Source CFD Toolbox
   \\    /   O peration     | Website:  https://openfoam.org
    \\  /    A nd           | Version:  8
     \\/     M anipulation  |
\*---------------------------------------------------------------------------*/
Build  : 8-14d69e1ee166
Exec   : icoFoam
Date   : Jul 29 2021
Time   : 08:40:33
Host   : "guyot.icl.utk.edu"
PID    : 161407
I/O    : uncollated
Case   : /home/greole/code/OBR/lidDrivenCavity3D/Variation_mesh/35/Variation_matrix_solver/BiCGStab_NoPrecond_CUDA/base
nProcs : 1
sigFpe : Enabling floating point exception trapping (FOAM_SIGFPE).
fileModificationChecking : Monitoring run-time modified files using timeStampMaster (fileModificationSkew 10)
allowSystemOperations : Allowing user-supplied system call operations

// * * * * * * * * * * * * * * * * * * * * * * * * * * * * * * * * * * * * * //
Create time

Create mesh for time = 0

Reading transportProperties

Reading field p

Reading field U

Reading/calculating face flux field phi


Starting time loop

Time = 0.001

Courant Number mean: 0 max: 0
DILUPBiCGStab:  Solving for Ux, Initial residual = 1, Final residual = 2.20563e-06, No Iterations 5
DILUPBiCGStab:  Solving for Uy:  solution singularity
DILUPBiCGStab:  Solving for Uz:  solution singularity
linear solve U 15550
[OGL LOG] init_host_sparsity_pattern : 20 ms
[OGL LOG] matrix not stored update host matrix
[OGL LOG] update_host_mtx : 10 ms
[OGL LOG] matrix is not yet sorted, compute sorting idxs
[OGL LOG] compute_sort : 377 ms
[OGL LOG] matrix is not yet sorted, sorting host matrix
[OGL LOG] sort_host_mtx_sparsity_pattern : 7 ms
[OGL LOG] sort_host_mtx : 4 ms
[OGL LOG] init_preconditioner : 0 ms
[OGL LOG] solve : 98 ms
nonecudaGKOBiCGStab:  Solving for p, Initial residual = 1, Final residual = 5.96534e-05, No Iterations 222
linear solve p 2168306
time step continuity errors : sum local = 6.60344e-08, global = 5.84693e-21, cumulative = 5.84693e-21
[OGL LOG] init_host_sparsity_pattern : 17 ms
[OGL LOG] matrix not stored update host matrix
[OGL LOG] update_host_mtx : 9 ms
[OGL LOG] matrix is not yet sorted, sorting host matrix
[OGL LOG] sort_host_mtx_sparsity_pattern : 7 ms
[OGL LOG] sort_host_mtx : 4 ms
[OGL LOG] init_preconditioner : 0 ms
[OGL LOG] solve : 96 ms
nonecudaGKOBiCGStab:  Solving for p, Initial residual = 0.574489, Final residual = 8.10846e-05, No Iterations 219
linear solve p 139661
time step continuity errors : sum local = 1.36158e-07, global = -2.62532e-21, cumulative = 3.22161e-21
ExecutionTime = 2.54 s  ClockTime = 2 s

Time = 0.002

Courant Number mean: 0.0183001 max: 0.192029
DILUPBiCGStab:  Solving for Ux, Initial residual = 0.186333, Final residual = 3.84049e-07, No Iterations 5
DILUPBiCGStab:  Solving for Uy, Initial residual = 0.280699, Final residual = 4.98133e-07, No Iterations 5
DILUPBiCGStab:  Solving for Uz, Initial residual = 0.938104, Final residual = 1.91345e-06, No Iterations 5
linear solve U 28554
[OGL LOG] init_host_sparsity_pattern : 17 ms
[OGL LOG] matrix not stored update host matrix
[OGL LOG] update_host_mtx : 9 ms
[OGL LOG] matrix is not yet sorted, sorting host matrix
[OGL LOG] sort_host_mtx_sparsity_pattern : 7 ms
[OGL LOG] sort_host_mtx : 4 ms
[OGL LOG] init_preconditioner : 0 ms
[OGL LOG] solve : 89 ms
nonecudaGKOBiCGStab:  Solving for p, Initial residual = 0.410545, Final residual = 6.85372e-05, No Iterations 204
linear solve p 132414
time step continuity errors : sum local = 1.08735e-07, global = 7.38207e-21, cumulative = 1.06037e-20
[OGL LOG] init_host_sparsity_pattern : 17 ms
[OGL LOG] matrix not stored update host matrix
[OGL LOG] update_host_mtx : 9 ms
[OGL LOG] matrix is not yet sorted, sorting host matrix
[OGL LOG] sort_host_mtx_sparsity_pattern : 7 ms
[OGL LOG] sort_host_mtx : 4 ms
[OGL LOG] init_preconditioner : 0 ms
[OGL LOG] solve : 88 ms
nonecudaGKOBiCGStab:  Solving for p, Initial residual = 0.312082, Final residual = 9.51495e-05, No Iterations 202
linear solve p 131396
time step continuity errors : sum local = 1.57951e-07, global = 1.24964e-20, cumulative = 2.31001e-20
ExecutionTime = 2.86 s  ClockTime = 3 s

Time = 0.003

Courant Number mean: 0.0280036 max: 0.255328
DILUPBiCGStab:  Solving for Ux, Initial residual = 0.0711673, Final residual = 1.28087e-07, No Iterations 5
DILUPBiCGStab:  Solving for Uy, Initial residual = 0.110278, Final residual = 1.16789e-07, No Iterations 5
DILUPBiCGStab:  Solving for Uz, Initial residual = 0.190068, Final residual = 4.49341e-07, No Iterations 5
linear solve U 29743
[OGL LOG] init_host_sparsity_pattern : 17 ms
[OGL LOG] matrix not stored update host matrix
[OGL LOG] update_host_mtx : 9 ms
[OGL LOG] matrix is not yet sorted, sorting host matrix
[OGL LOG] sort_host_mtx_sparsity_pattern : 7 ms
[OGL LOG] sort_host_mtx : 4 ms
[OGL LOG] init_preconditioner : 0 ms
[OGL LOG] solve : 86 ms
nonecudaGKOBiCGStab:  Solving for p, Initial residual = 0.129891, Final residual = 9.87384e-05, No Iterations 197
linear solve p 129549
time step continuity errors : sum local = 1.28811e-07, global = -5.79807e-21, cumulative = 1.7302e-20
[OGL LOG] init_host_sparsity_pattern : 17 ms
[OGL LOG] matrix not stored update host matrix
[OGL LOG] update_host_mtx : 9 ms
[OGL LOG] matrix is not yet sorted, sorting host matrix
[OGL LOG] sort_host_mtx_sparsity_pattern : 7 ms
[OGL LOG] sort_host_mtx : 4 ms
[OGL LOG] init_preconditioner : 0 ms
[OGL LOG] solve : 35 ms
nonecudaGKOBiCGStab:  Solving for p, Initial residual = 0.0995072, Final residual = 9.62872e-05, No Iterations 79
linear solve p 78088
time step continuity errors : sum local = 1.08415e-07, global = 3.03869e-20, cumulative = 4.76889e-20
ExecutionTime = 3.11 s  ClockTime = 3 s

Time = 0.004

Courant Number mean: 0.0339238 max: 0.277399
DILUPBiCGStab:  Solving for Ux, Initial residual = 0.041581, Final residual = 6.91472e-08, No Iterations 5
DILUPBiCGStab:  Solving for Uy, Initial residual = 0.0673017, Final residual = 4.49007e-08, No Iterations 5
DILUPBiCGStab:  Solving for Uz, Initial residual = 0.109486, Final residual = 8.90148e-08, No Iterations 5
linear solve U 28293
[OGL LOG] init_host_sparsity_pattern : 17 ms
[OGL LOG] matrix not stored update host matrix
[OGL LOG] update_host_mtx : 9 ms
[OGL LOG] matrix is not yet sorted, sorting host matrix
[OGL LOG] sort_host_mtx_sparsity_pattern : 7 ms
[OGL LOG] sort_host_mtx : 4 ms
[OGL LOG] init_preconditioner : 0 ms
[OGL LOG] solve : 35 ms
nonecudaGKOBiCGStab:  Solving for p, Initial residual = 0.0653608, Final residual = 9.61606e-05, No Iterations 79
linear solve p 78432
time step continuity errors : sum local = 1.03809e-07, global = -4.66964e-21, cumulative = 4.30193e-20
[OGL LOG] init_host_sparsity_pattern : 17 ms
[OGL LOG] matrix not stored update host matrix
[OGL LOG] update_host_mtx : 9 ms
[OGL LOG] matrix is not yet sorted, sorting host matrix
[OGL LOG] sort_host_mtx_sparsity_pattern : 7 ms
[OGL LOG] sort_host_mtx : 4 ms
[OGL LOG] init_preconditioner : 0 ms
[OGL LOG] solve : 31 ms
nonecudaGKOBiCGStab:  Solving for p, Initial residual = 0.0499113, Final residual = 9.33172e-05, No Iterations 70
linear solve p 75029
time step continuity errors : sum local = 6.85915e-08, global = 1.04587e-20, cumulative = 5.3478e-20
ExecutionTime = 3.31 s  ClockTime = 3 s

Time = 0.005

Courant Number mean: 0.0381158 max: 0.287997
DILUPBiCGStab:  Solving for Ux, Initial residual = 0.0285593, Final residual = 1.92774e-08, No Iterations 5
DILUPBiCGStab:  Solving for Uy, Initial residual = 0.0468155, Final residual = 2.62788e-08, No Iterations 5
DILUPBiCGStab:  Solving for Uz, Initial residual = 0.0771767, Final residual = 4.79363e-08, No Iterations 5
linear solve U 29412
[OGL LOG] init_host_sparsity_pattern : 17 ms
[OGL LOG] matrix not stored update host matrix
[OGL LOG] update_host_mtx : 9 ms
[OGL LOG] matrix is not yet sorted, sorting host matrix
[OGL LOG] sort_host_mtx_sparsity_pattern : 7 ms
[OGL LOG] sort_host_mtx : 4 ms
[OGL LOG] init_preconditioner : 0 ms
[OGL LOG] solve : 32 ms
nonecudaGKOBiCGStab:  Solving for p, Initial residual = 0.0388694, Final residual = 9.51308e-05, No Iterations 72
linear solve p 75983
time step continuity errors : sum local = 7.23078e-08, global = -5.04208e-21, cumulative = 4.84359e-20
[OGL LOG] init_host_sparsity_pattern : 17 ms
[OGL LOG] matrix not stored update host matrix
[OGL LOG] update_host_mtx : 9 ms
[OGL LOG] matrix is not yet sorted, sorting host matrix
[OGL LOG] sort_host_mtx_sparsity_pattern : 7 ms
[OGL LOG] sort_host_mtx : 4 ms
[OGL LOG] init_preconditioner : 0 ms
[OGL LOG] solve : 32 ms
nonecudaGKOBiCGStab:  Solving for p, Initial residual = 0.0305422, Final residual = 7.65652e-05, No Iterations 71
linear solve p 74912
time step continuity errors : sum local = 6.3183e-08, global = 3.16601e-21, cumulative = 5.16019e-20
ExecutionTime = 3.51 s  ClockTime = 3 s

Time = 0.006

Courant Number mean: 0.0413843 max: 0.294259
DILUPBiCGStab:  Solving for Ux, Initial residual = 0.0215252, Final residual = 7.71627e-09, No Iterations 5
DILUPBiCGStab:  Solving for Uy, Initial residual = 0.0355673, Final residual = 1.56679e-08, No Iterations 5
DILUPBiCGStab:  Solving for Uz, Initial residual = 0.0606116, Final residual = 3.96132e-08, No Iterations 5
linear solve U 28316
[OGL LOG] init_host_sparsity_pattern : 17 ms
[OGL LOG] matrix not stored update host matrix
[OGL LOG] update_host_mtx : 9 ms
[OGL LOG] matrix is not yet sorted, sorting host matrix
[OGL LOG] sort_host_mtx_sparsity_pattern : 7 ms
[OGL LOG] sort_host_mtx : 4 ms
[OGL LOG] init_preconditioner : 0 ms
[OGL LOG] solve : 33 ms
nonecudaGKOBiCGStab:  Solving for p, Initial residual = 0.0266964, Final residual = 8.04873e-05, No Iterations 74
linear solve p 76363
time step continuity errors : sum local = 6.21608e-08, global = -1.52033e-20, cumulative = 3.63986e-20
[OGL LOG] init_host_sparsity_pattern : 17 ms
[OGL LOG] matrix not stored update host matrix
[OGL LOG] update_host_mtx : 9 ms
[OGL LOG] matrix is not yet sorted, sorting host matrix
[OGL LOG] sort_host_mtx_sparsity_pattern : 7 ms
[OGL LOG] sort_host_mtx : 4 ms
[OGL LOG] init_preconditioner : 0 ms
[OGL LOG] solve : 29 ms
nonecudaGKOBiCGStab:  Solving for p, Initial residual = 0.0212743, Final residual = 9.2502e-05, No Iterations 65
linear solve p 72752
time step continuity errors : sum local = 6.80431e-08, global = 2.85507e-21, cumulative = 3.92537e-20
ExecutionTime = 3.71 s  ClockTime = 4 s

Time = 0.007

Courant Number mean: 0.0440601 max: 0.298499
DILUPBiCGStab:  Solving for Ux, Initial residual = 0.0170737, Final residual = 4.24676e-09, No Iterations 5
DILUPBiCGStab:  Solving for Uy, Initial residual = 0.0284218, Final residual = 1.1128e-08, No Iterations 5
DILUPBiCGStab:  Solving for Uz, Initial residual = 0.0501095, Final residual = 3.6713e-08, No Iterations 5
linear solve U 29581
[OGL LOG] init_host_sparsity_pattern : 17 ms
[OGL LOG] matrix not stored update host matrix
[OGL LOG] update_host_mtx : 9 ms
[OGL LOG] matrix is not yet sorted, sorting host matrix
[OGL LOG] sort_host_mtx_sparsity_pattern : 7 ms
[OGL LOG] sort_host_mtx : 4 ms
[OGL LOG] init_preconditioner : 0 ms
[OGL LOG] solve : 28 ms
nonecudaGKOBiCGStab:  Solving for p, Initial residual = 0.0212189, Final residual = 8.11438e-05, No Iterations 63
linear solve p 71363
time step continuity errors : sum local = 5.7357e-08, global = 4.1951e-21, cumulative = 4.34488e-20
[OGL LOG] init_host_sparsity_pattern : 17 ms
[OGL LOG] matrix not stored update host matrix
[OGL LOG] update_host_mtx : 9 ms
[OGL LOG] matrix is not yet sorted, sorting host matrix
[OGL LOG] sort_host_mtx_sparsity_pattern : 7 ms
[OGL LOG] sort_host_mtx : 4 ms
[OGL LOG] init_preconditioner : 0 ms
[OGL LOG] solve : 30 ms
nonecudaGKOBiCGStab:  Solving for p, Initial residual = 0.0170605, Final residual = 9.9425e-05, No Iterations 68
linear solve p 73672
time step continuity errors : sum local = 7.2194e-08, global = 1.61255e-20, cumulative = 5.95742e-20
ExecutionTime = 3.9 s  ClockTime = 4 s

Time = 0.008

Courant Number mean: 0.0462825 max: 0.301602
DILUPBiCGStab:  Solving for Ux, Initial residual = 0.0139803, Final residual = 2.8363e-09, No Iterations 5
DILUPBiCGStab:  Solving for Uy, Initial residual = 0.0234429, Final residual = 7.86042e-09, No Iterations 5
DILUPBiCGStab:  Solving for Uz, Initial residual = 0.042401, Final residual = 3.16186e-08, No Iterations 5
linear solve U 28385
[OGL LOG] init_host_sparsity_pattern : 17 ms
[OGL LOG] matrix not stored update host matrix
[OGL LOG] update_host_mtx : 8 ms
[OGL LOG] matrix is not yet sorted, sorting host matrix
[OGL LOG] sort_host_mtx_sparsity_pattern : 7 ms
[OGL LOG] sort_host_mtx : 4 ms
[OGL LOG] init_preconditioner : 0 ms
[OGL LOG] solve : 31 ms
nonecudaGKOBiCGStab:  Solving for p, Initial residual = 0.0168973, Final residual = 9.66438e-05, No Iterations 70
linear solve p 74213
time step continuity errors : sum local = 7.04788e-08, global = 1.68385e-20, cumulative = 7.64127e-20
[OGL LOG] init_host_sparsity_pattern : 17 ms
[OGL LOG] matrix not stored update host matrix
[OGL LOG] update_host_mtx : 9 ms
[OGL LOG] matrix is not yet sorted, sorting host matrix
[OGL LOG] sort_host_mtx_sparsity_pattern : 7 ms
[OGL LOG] sort_host_mtx : 4 ms
[OGL LOG] init_preconditioner : 0 ms
[OGL LOG] solve : 31 ms
nonecudaGKOBiCGStab:  Solving for p, Initial residual = 0.0136703, Final residual = 9.34429e-05, No Iterations 69
linear solve p 74327
time step continuity errors : sum local = 6.58546e-08, global = 8.60988e-21, cumulative = 8.50226e-20
ExecutionTime = 4.1 s  ClockTime = 4 s

Time = 0.009

Courant Number mean: 0.0481613 max: 0.303992
DILUPBiCGStab:  Solving for Ux, Initial residual = 0.0117011, Final residual = 2.09582e-09, No Iterations 5
DILUPBiCGStab:  Solving for Uy, Initial residual = 0.0198394, Final residual = 5.89774e-09, No Iterations 5
DILUPBiCGStab:  Solving for Uz, Initial residual = 0.0367059, Final residual = 2.42663e-08, No Iterations 5
linear solve U 29341
[OGL LOG] init_host_sparsity_pattern : 17 ms
[OGL LOG] matrix not stored update host matrix
[OGL LOG] update_host_mtx : 9 ms
[OGL LOG] matrix is not yet sorted, sorting host matrix
[OGL LOG] sort_host_mtx_sparsity_pattern : 7 ms
[OGL LOG] sort_host_mtx : 4 ms
[OGL LOG] init_preconditioner : 0 ms
[OGL LOG] solve : 32 ms
nonecudaGKOBiCGStab:  Solving for p, Initial residual = 0.0143207, Final residual = 6.99835e-05, No Iterations 70
linear solve p 74785
time step continuity errors : sum local = 5.09132e-08, global = -4.93948e-21, cumulative = 8.00831e-20
[OGL LOG] init_host_sparsity_pattern : 17 ms
[OGL LOG] matrix not stored update host matrix
[OGL LOG] update_host_mtx : 9 ms
[OGL LOG] matrix is not yet sorted, sorting host matrix
[OGL LOG] sort_host_mtx_sparsity_pattern : 7 ms
[OGL LOG] sort_host_mtx : 4 ms
[OGL LOG] init_preconditioner : 0 ms
[OGL LOG] solve : 29 ms
nonecudaGKOBiCGStab:  Solving for p, Initial residual = 0.0116491, Final residual = 9.30345e-05, No Iterations 65
linear solve p 72277
time step continuity errors : sum local = 6.49267e-08, global = -2.38776e-20, cumulative = 5.62056e-20
ExecutionTime = 4.29 s  ClockTime = 4 s

Time = 0.01

Courant Number mean: 0.0498026 max: 0.305897
DILUPBiCGStab:  Solving for Ux, Initial residual = 0.00997534, Final residual = 1.63558e-09, No Iterations 5
DILUPBiCGStab:  Solving for Uy, Initial residual = 0.0170373, Final residual = 4.5459e-09, No Iterations 5
DILUPBiCGStab:  Solving for Uz, Initial residual = 0.032058, Final residual = 1.73831e-08, No Iterations 5
linear solve U 28508
[OGL LOG] init_host_sparsity_pattern : 17 ms
[OGL LOG] matrix not stored update host matrix
[OGL LOG] update_host_mtx : 8 ms
[OGL LOG] matrix is not yet sorted, sorting host matrix
[OGL LOG] sort_host_mtx_sparsity_pattern : 7 ms
[OGL LOG] sort_host_mtx : 4 ms
[OGL LOG] init_preconditioner : 0 ms
[OGL LOG] solve : 31 ms
nonecudaGKOBiCGStab:  Solving for p, Initial residual = 0.0121135, Final residual = 9.14452e-05, No Iterations 68
linear solve p 73785
time step continuity errors : sum local = 6.71691e-08, global = -3.48743e-20, cumulative = 2.13313e-20
[OGL LOG] init_host_sparsity_pattern : 17 ms
[OGL LOG] matrix not stored update host matrix
[OGL LOG] update_host_mtx : 8 ms
[OGL LOG] matrix is not yet sorted, sorting host matrix
[OGL LOG] sort_host_mtx_sparsity_pattern : 7 ms
[OGL LOG] sort_host_mtx : 4 ms
[OGL LOG] init_preconditioner : 0 ms
[OGL LOG] solve : 30 ms
nonecudaGKOBiCGStab:  Solving for p, Initial residual = 0.0098981, Final residual = 6.93612e-05, No Iterations 67
linear solve p 72754
time step continuity errors : sum local = 4.99211e-08, global = 1.26942e-20, cumulative = 3.40255e-20
ExecutionTime = 4.48 s  ClockTime = 4 s

End

