/*---------------------------------------------------------------------------*\
  =========                 |
  \\      /  F ield         | OpenFOAM: The Open Source CFD Toolbox
   \\    /   O peration     | Website:  https://openfoam.org
    \\  /    A nd           | Version:  8
     \\/     M anipulation  |
\*---------------------------------------------------------------------------*/
Build  : 8-14d69e1ee166
Exec   : icoFoam
Date   : Jul 29 2021
Time   : 05:12:35
Host   : "guyot.icl.utk.edu"
PID    : 257380
I/O    : uncollated
Case   : /home/greole/code/OBR/lidDrivenCavity3D/Variation_mesh/25/Variation_matrix_solver/BiCGStab_NoPrecond_Serial/base
nProcs : 1
sigFpe : Enabling floating point exception trapping (FOAM_SIGFPE).
fileModificationChecking : Monitoring run-time modified files using timeStampMaster (fileModificationSkew 10)
allowSystemOperations : Allowing user-supplied system call operations

// * * * * * * * * * * * * * * * * * * * * * * * * * * * * * * * * * * * * * //
Create time

Create mesh for time = 0

Reading transportProperties

Reading field p

Reading field U

Reading/calculating face flux field phi


Starting time loop

Time = 0.001

Courant Number mean: 0 max: 0
DILUPBiCGStab:  Solving for Ux, Initial residual = 1, Final residual = 1.01737e-08, No Iterations 5
DILUPBiCGStab:  Solving for Uy:  solution singularity
DILUPBiCGStab:  Solving for Uz:  solution singularity
linear solve U 5568
nonePBiCGStab:  Solving for p, Initial residual = 1, Final residual = 3.0091e-05, No Iterations 160
linear solve p 49629
time step continuity errors : sum local = 3.09212e-08, global = 5.58885e-21, cumulative = 5.58885e-21
nonePBiCGStab:  Solving for p, Initial residual = 0.481351, Final residual = 7.63965e-05, No Iterations 153
linear solve p 45144
time step continuity errors : sum local = 1.26724e-07, global = 7.38595e-22, cumulative = 6.32744e-21
ExecutionTime = 0.24 s  ClockTime = 0 s

Time = 0.002

Courant Number mean: 0.0119815 max: 0.106546
DILUPBiCGStab:  Solving for Ux, Initial residual = 0.210826, Final residual = 1.4491e-09, No Iterations 5
DILUPBiCGStab:  Solving for Uy, Initial residual = 0.284186, Final residual = 1.36684e-09, No Iterations 5
DILUPBiCGStab:  Solving for Uz, Initial residual = 0.881213, Final residual = 5.20932e-09, No Iterations 5
linear solve U 9972
nonePBiCGStab:  Solving for p, Initial residual = 0.286245, Final residual = 9.87623e-05, No Iterations 142
linear solve p 44584
time step continuity errors : sum local = 1.53199e-07, global = 1.61828e-20, cumulative = 2.25102e-20
nonePBiCGStab:  Solving for p, Initial residual = 0.189988, Final residual = 9.3087e-05, No Iterations 143
linear solve p 42701
time step continuity errors : sum local = 1.53116e-07, global = 1.14337e-21, cumulative = 2.36536e-20
ExecutionTime = 0.34 s  ClockTime = 0 s

Time = 0.003

Courant Number mean: 0.0188589 max: 0.153581
DILUPBiCGStab:  Solving for Ux, Initial residual = 0.0900277, Final residual = 5.4792e-10, No Iterations 5
DILUPBiCGStab:  Solving for Uy, Initial residual = 0.124649, Final residual = 4.85962e-10, No Iterations 5
DILUPBiCGStab:  Solving for Uz, Initial residual = 0.266892, Final residual = 1.73758e-09, No Iterations 5
linear solve U 9992
nonePBiCGStab:  Solving for p, Initial residual = 0.103801, Final residual = 9.53148e-05, No Iterations 64
linear solve p 19949
time step continuity errors : sum local = 1.26323e-07, global = -9.24664e-21, cumulative = 1.44069e-20
nonePBiCGStab:  Solving for p, Initial residual = 0.0709868, Final residual = 9.69598e-05, No Iterations 129
linear solve p 38242
time step continuity errors : sum local = 1.54501e-07, global = 1.75908e-20, cumulative = 3.19978e-20
ExecutionTime = 0.41 s  ClockTime = 0 s

Time = 0.004

Courant Number mean: 0.0233282 max: 0.175141
DILUPBiCGStab:  Solving for Ux, Initial residual = 0.0520692, Final residual = 2.37909e-10, No Iterations 5
DILUPBiCGStab:  Solving for Uy, Initial residual = 0.07425, Final residual = 1.97814e-10, No Iterations 5
DILUPBiCGStab:  Solving for Uz, Initial residual = 0.128487, Final residual = 4.89094e-10, No Iterations 5
linear solve U 9996
nonePBiCGStab:  Solving for p, Initial residual = 0.0555344, Final residual = 9.78163e-05, No Iterations 57
linear solve p 17811
time step continuity errors : sum local = 8.84207e-08, global = 6.11969e-21, cumulative = 3.81174e-20
nonePBiCGStab:  Solving for p, Initial residual = 0.0374463, Final residual = 9.26227e-05, No Iterations 51
linear solve p 15142
time step continuity errors : sum local = 1.25202e-07, global = -1.37994e-20, cumulative = 2.43181e-20
ExecutionTime = 0.46 s  ClockTime = 0 s

Time = 0.005

Courant Number mean: 0.0265074 max: 0.186525
DILUPBiCGStab:  Solving for Ux, Initial residual = 0.0351341, Final residual = 1.72453e-10, No Iterations 5
DILUPBiCGStab:  Solving for Uy, Initial residual = 0.0507616, Final residual = 1.02658e-10, No Iterations 5
DILUPBiCGStab:  Solving for Uz, Initial residual = 0.0908506, Final residual = 2.7241e-10, No Iterations 5
linear solve U 9878
nonePBiCGStab:  Solving for p, Initial residual = 0.0351393, Final residual = 9.88634e-05, No Iterations 55
linear solve p 16392
time step continuity errors : sum local = 9.56492e-08, global = -2.68513e-20, cumulative = -2.53327e-21
nonePBiCGStab:  Solving for p, Initial residual = 0.0233425, Final residual = 9.15568e-05, No Iterations 51
linear solve p 15307
time step continuity errors : sum local = 1.1192e-07, global = 2.5264e-20, cumulative = 2.27307e-20
ExecutionTime = 0.51 s  ClockTime = 1 s

Time = 0.006

Courant Number mean: 0.0289084 max: 0.193356
DILUPBiCGStab:  Solving for Ux, Initial residual = 0.0259311, Final residual = 7.71631e-11, No Iterations 5
DILUPBiCGStab:  Solving for Uy, Initial residual = 0.0379616, Final residual = 6.95541e-11, No Iterations 5
DILUPBiCGStab:  Solving for Uz, Initial residual = 0.0702266, Final residual = 1.79754e-10, No Iterations 5
linear solve U 9899
nonePBiCGStab:  Solving for p, Initial residual = 0.0245532, Final residual = 6.68736e-05, No Iterations 55
linear solve p 16351
time step continuity errors : sum local = 6.74725e-08, global = -3.3767e-20, cumulative = -1.10362e-20
nonePBiCGStab:  Solving for p, Initial residual = 0.0164719, Final residual = 7.85031e-05, No Iterations 49
linear solve p 14647
time step continuity errors : sum local = 9.17712e-08, global = -2.77128e-20, cumulative = -3.8749e-20
ExecutionTime = 0.55 s  ClockTime = 1 s

Time = 0.007

Courant Number mean: 0.0308442 max: 0.197909
DILUPBiCGStab:  Solving for Ux, Initial residual = 0.0203441, Final residual = 3.52261e-11, No Iterations 5
DILUPBiCGStab:  Solving for Uy, Initial residual = 0.0299989, Final residual = 5.18561e-11, No Iterations 5
DILUPBiCGStab:  Solving for Uz, Initial residual = 0.056988, Final residual = 1.2839e-10, No Iterations 5
linear solve U 9910
nonePBiCGStab:  Solving for p, Initial residual = 0.0186527, Final residual = 7.92787e-05, No Iterations 56
linear solve p 16707
time step continuity errors : sum local = 7.54175e-08, global = 8.00442e-21, cumulative = -3.07446e-20
nonePBiCGStab:  Solving for p, Initial residual = 0.0126217, Final residual = 6.45715e-05, No Iterations 47
linear solve p 14046
time step continuity errors : sum local = 7.35323e-08, global = 1.34176e-20, cumulative = -1.7327e-20
ExecutionTime = 0.6 s  ClockTime = 1 s

Time = 0.008

Courant Number mean: 0.0324893 max: 0.201188
DILUPBiCGStab:  Solving for Ux, Initial residual = 0.0165245, Final residual = 1.96407e-11, No Iterations 5
DILUPBiCGStab:  Solving for Uy, Initial residual = 0.0245702, Final residual = 3.95257e-11, No Iterations 5
DILUPBiCGStab:  Solving for Uz, Initial residual = 0.0476119, Final residual = 9.56474e-11, No Iterations 5
linear solve U 9918
nonePBiCGStab:  Solving for p, Initial residual = 0.0149422, Final residual = 9.80486e-05, No Iterations 52
linear solve p 15499
time step continuity errors : sum local = 8.78261e-08, global = 4.16571e-20, cumulative = 2.43301e-20
nonePBiCGStab:  Solving for p, Initial residual = 0.0102113, Final residual = 8.81611e-05, No Iterations 48
linear solve p 14345
time step continuity errors : sum local = 8.79559e-08, global = 1.72421e-21, cumulative = 2.60544e-20
ExecutionTime = 0.64 s  ClockTime = 1 s

Time = 0.009

Courant Number mean: 0.0338928 max: 0.203683
DILUPBiCGStab:  Solving for Ux, Initial residual = 0.0137806, Final residual = 1.28162e-11, No Iterations 5
DILUPBiCGStab:  Solving for Uy, Initial residual = 0.0206631, Final residual = 3.02423e-11, No Iterations 5
DILUPBiCGStab:  Solving for Uz, Initial residual = 0.040775, Final residual = 7.36383e-11, No Iterations 5
linear solve U 10613
nonePBiCGStab:  Solving for p, Initial residual = 0.0125269, Final residual = 8.51359e-05, No Iterations 52
linear solve p 15416
time step continuity errors : sum local = 7.46398e-08, global = 1.54134e-20, cumulative = 4.14678e-20
nonePBiCGStab:  Solving for p, Initial residual = 0.00861937, Final residual = 7.50832e-05, No Iterations 46
linear solve p 13670
time step continuity errors : sum local = 7.24345e-08, global = -3.20651e-21, cumulative = 3.82613e-20
ExecutionTime = 0.69 s  ClockTime = 1 s

Time = 0.01

Courant Number mean: 0.0351032 max: 0.205656
DILUPBiCGStab:  Solving for Ux, Initial residual = 0.0117157, Final residual = 9.29798e-12, No Iterations 5
DILUPBiCGStab:  Solving for Uy, Initial residual = 0.0176851, Final residual = 2.34005e-11, No Iterations 5
DILUPBiCGStab:  Solving for Uz, Initial residual = 0.0351709, Final residual = 5.75714e-11, No Iterations 5
linear solve U 9933
nonePBiCGStab:  Solving for p, Initial residual = 0.0104489, Final residual = 9.04133e-05, No Iterations 51
linear solve p 15236
time step continuity errors : sum local = 7.84032e-08, global = 1.14683e-21, cumulative = 3.94081e-20
nonePBiCGStab:  Solving for p, Initial residual = 0.00722149, Final residual = 6.37037e-05, No Iterations 47
linear solve p 14173
time step continuity errors : sum local = 5.89751e-08, global = 1.89283e-20, cumulative = 5.83364e-20
ExecutionTime = 0.73 s  ClockTime = 1 s

End

