/*---------------------------------------------------------------------------*\
  =========                 |
  \\      /  F ield         | OpenFOAM: The Open Source CFD Toolbox
   \\    /   O peration     | Website:  https://openfoam.org
    \\  /    A nd           | Version:  8
     \\/     M anipulation  |
\*---------------------------------------------------------------------------*/
Build  : 8-14d69e1ee166
Exec   : icoFoam
Date   : Jul 28 2021
Time   : 18:05:41
Host   : "guyot.icl.utk.edu"
PID    : 225208
I/O    : uncollated
Case   : /home/greole/code/OBR/lidDrivenCavity3D/Variation_mesh/40/Variation_matrix_solver/CG_DIC_Serial/base
nProcs : 1
sigFpe : Enabling floating point exception trapping (FOAM_SIGFPE).
fileModificationChecking : Monitoring run-time modified files using timeStampMaster (fileModificationSkew 10)
allowSystemOperations : Allowing user-supplied system call operations

// * * * * * * * * * * * * * * * * * * * * * * * * * * * * * * * * * * * * * //
Create time

Create mesh for time = 0

Reading transportProperties

Reading field p

Reading field U

Reading/calculating face flux field phi


Starting time loop

Time = 0.001

Courant Number mean: 0 max: 0
DILUPBiCGStab:  Solving for Ux, Initial residual = 1, Final residual = 1.19415e-05, No Iterations 5
DILUPBiCGStab:  Solving for Uy:  solution singularity
DILUPBiCGStab:  Solving for Uz:  solution singularity
linear solve U 24350
DICPCG:  Solving for p, Initial residual = 1, Final residual = 6.37091e-05, No Iterations 100
linear solve p 115909
time step continuity errors : sum local = 3.59804e-08, global = 5.95027e-22, cumulative = 5.95027e-22
DICPCG:  Solving for p, Initial residual = 0.60745, Final residual = 8.03266e-05, No Iterations 98
linear solve p 116804
time step continuity errors : sum local = 6.70511e-08, global = 7.27213e-21, cumulative = 7.86715e-21
ExecutionTime = 0.59 s  ClockTime = 0 s

Time = 0.002

Courant Number mean: 0.0213818 max: 0.237104
DILUPBiCGStab:  Solving for Ux, Initial residual = 0.179109, Final residual = 2.29028e-06, No Iterations 5
DILUPBiCGStab:  Solving for Uy, Initial residual = 0.29084, Final residual = 3.2316e-06, No Iterations 5
DILUPBiCGStab:  Solving for Uz, Initial residual = 0.958361, Final residual = 1.25306e-05, No Iterations 5
linear solve U 45091
DICPCG:  Solving for p, Initial residual = 0.459145, Final residual = 9.91538e-05, No Iterations 95
linear solve p 110356
time step continuity errors : sum local = 7.89145e-08, global = -1.50402e-21, cumulative = 6.36313e-21
DICPCG:  Solving for p, Initial residual = 0.363694, Final residual = 7.09247e-05, No Iterations 95
linear solve p 110415
time step continuity errors : sum local = 5.87812e-08, global = 1.07171e-21, cumulative = 7.43484e-21
ExecutionTime = 0.88 s  ClockTime = 1 s

Time = 0.003

Courant Number mean: 0.032521 max: 0.306671
DILUPBiCGStab:  Solving for Ux, Initial residual = 0.0649079, Final residual = 7.63595e-07, No Iterations 5
DILUPBiCGStab:  Solving for Uy, Initial residual = 0.105097, Final residual = 6.0528e-07, No Iterations 5
DILUPBiCGStab:  Solving for Uz, Initial residual = 0.144629, Final residual = 1.64961e-06, No Iterations 5
linear solve U 43387
DICPCG:  Solving for p, Initial residual = 0.164526, Final residual = 8.58481e-05, No Iterations 90
linear solve p 104806
time step continuity errors : sum local = 5.51927e-08, global = -1.06609e-20, cumulative = -3.22611e-21
DICPCG:  Solving for p, Initial residual = 0.129781, Final residual = 8.57149e-05, No Iterations 89
linear solve p 103692
time step continuity errors : sum local = 5.4944e-08, global = 1.78448e-22, cumulative = -3.04766e-21
ExecutionTime = 1.16 s  ClockTime = 1 s

Time = 0.004

Courant Number mean: 0.0391011 max: 0.328163
DILUPBiCGStab:  Solving for Ux, Initial residual = 0.0380605, Final residual = 2.89173e-07, No Iterations 5
DILUPBiCGStab:  Solving for Uy, Initial residual = 0.0656692, Final residual = 3.02528e-07, No Iterations 5
DILUPBiCGStab:  Solving for Uz, Initial residual = 0.10551, Final residual = 6.75063e-07, No Iterations 5
linear solve U 44796
DICPCG:  Solving for p, Initial residual = 0.0833278, Final residual = 9.75619e-05, No Iterations 87
linear solve p 101611
time step continuity errors : sum local = 6.05607e-08, global = 1.06869e-20, cumulative = 7.63929e-21
DICPCG:  Solving for p, Initial residual = 0.0648752, Final residual = 7.97783e-05, No Iterations 87
linear solve p 105974
time step continuity errors : sum local = 5.01688e-08, global = -1.17455e-20, cumulative = -4.1062e-21
ExecutionTime = 1.43 s  ClockTime = 1 s

Time = 0.005

Courant Number mean: 0.0438791 max: 0.338387
DILUPBiCGStab:  Solving for Ux, Initial residual = 0.0264322, Final residual = 7.82407e-08, No Iterations 5
DILUPBiCGStab:  Solving for Uy, Initial residual = 0.0455729, Final residual = 1.71047e-07, No Iterations 5
DILUPBiCGStab:  Solving for Uz, Initial residual = 0.0750186, Final residual = 2.93383e-07, No Iterations 5
linear solve U 42471
DICPCG:  Solving for p, Initial residual = 0.0439748, Final residual = 7.87246e-05, No Iterations 86
linear solve p 112205
time step continuity errors : sum local = 4.88665e-08, global = -3.45586e-21, cumulative = -7.56206e-21
DICPCG:  Solving for p, Initial residual = 0.0355797, Final residual = 9.25702e-05, No Iterations 85
linear solve p 98731
time step continuity errors : sum local = 5.76926e-08, global = 7.61267e-21, cumulative = 5.06107e-23
ExecutionTime = 1.71 s  ClockTime = 2 s

Time = 0.006

Courant Number mean: 0.0475595 max: 0.344477
DILUPBiCGStab:  Solving for Ux, Initial residual = 0.020011, Final residual = 3.54988e-08, No Iterations 5
DILUPBiCGStab:  Solving for Uy, Initial residual = 0.0348389, Final residual = 8.01857e-08, No Iterations 5
DILUPBiCGStab:  Solving for Uz, Initial residual = 0.0588493, Final residual = 1.91682e-07, No Iterations 5
linear solve U 42470
DICPCG:  Solving for p, Initial residual = 0.0292819, Final residual = 9.59282e-05, No Iterations 41
linear solve p 54432
time step continuity errors : sum local = 7.53146e-08, global = 2.44091e-20, cumulative = 2.44597e-20
DICPCG:  Solving for p, Initial residual = 0.0240357, Final residual = 8.25157e-05, No Iterations 39
linear solve p 46220
time step continuity errors : sum local = 5.69047e-08, global = -5.06792e-21, cumulative = 1.93918e-20
ExecutionTime = 1.88 s  ClockTime = 2 s

Time = 0.007

Courant Number mean: 0.0505738 max: 0.348643
DILUPBiCGStab:  Solving for Ux, Initial residual = 0.0159075, Final residual = 2.12576e-08, No Iterations 5
DILUPBiCGStab:  Solving for Uy, Initial residual = 0.0278943, Final residual = 5.93742e-08, No Iterations 5
DILUPBiCGStab:  Solving for Uz, Initial residual = 0.0487355, Final residual = 1.34161e-07, No Iterations 5
linear solve U 42482
DICPCG:  Solving for p, Initial residual = 0.0229674, Final residual = 8.16439e-05, No Iterations 39
linear solve p 51854
time step continuity errors : sum local = 6.05001e-08, global = 2.33879e-20, cumulative = 4.27797e-20
DICPCG:  Solving for p, Initial residual = 0.0192475, Final residual = 9.60687e-05, No Iterations 37
linear solve p 43854
time step continuity errors : sum local = 6.54266e-08, global = -1.15331e-21, cumulative = 4.16264e-20
ExecutionTime = 2.04 s  ClockTime = 2 s

Time = 0.008

Courant Number mean: 0.0531131 max: 0.351704
DILUPBiCGStab:  Solving for Ux, Initial residual = 0.0130685, Final residual = 1.51328e-08, No Iterations 5
DILUPBiCGStab:  Solving for Uy, Initial residual = 0.0230554, Final residual = 3.85092e-08, No Iterations 5
DILUPBiCGStab:  Solving for Uz, Initial residual = 0.0412024, Final residual = 1.09309e-07, No Iterations 5
linear solve U 42512
DICPCG:  Solving for p, Initial residual = 0.0180431, Final residual = 8.65726e-05, No Iterations 38
linear solve p 50458
time step continuity errors : sum local = 6.64386e-08, global = -2.99413e-20, cumulative = 1.16851e-20
DICPCG:  Solving for p, Initial residual = 0.0152641, Final residual = 7.85255e-05, No Iterations 37
linear solve p 43992
time step continuity errors : sum local = 5.63176e-08, global = 2.63961e-22, cumulative = 1.19491e-20
ExecutionTime = 2.2 s  ClockTime = 2 s

Time = 0.009

Courant Number mean: 0.0552705 max: 0.354072
DILUPBiCGStab:  Solving for Ux, Initial residual = 0.0109768, Final residual = 1.14467e-08, No Iterations 5
DILUPBiCGStab:  Solving for Uy, Initial residual = 0.0194908, Final residual = 2.95164e-08, No Iterations 5
DILUPBiCGStab:  Solving for Uz, Initial residual = 0.0355761, Final residual = 9.09942e-08, No Iterations 5
linear solve U 42463
DICPCG:  Solving for p, Initial residual = 0.0151777, Final residual = 8.48769e-05, No Iterations 37
linear solve p 49177
time step continuity errors : sum local = 6.41948e-08, global = 1.33246e-21, cumulative = 1.32816e-20
DICPCG:  Solving for p, Initial residual = 0.0128946, Final residual = 9.31204e-05, No Iterations 36
linear solve p 42780
time step continuity errors : sum local = 6.61948e-08, global = 1.59652e-21, cumulative = 1.48781e-20
ExecutionTime = 2.35 s  ClockTime = 2 s

Time = 0.01

Courant Number mean: 0.0571261 max: 0.355962
DILUPBiCGStab:  Solving for Ux, Initial residual = 0.00937352, Final residual = 9.19748e-09, No Iterations 5
DILUPBiCGStab:  Solving for Uy, Initial residual = 0.016754, Final residual = 2.21467e-08, No Iterations 5
DILUPBiCGStab:  Solving for Uz, Initial residual = 0.0310633, Final residual = 7.82448e-08, No Iterations 5
linear solve U 42503
DICPCG:  Solving for p, Initial residual = 0.0128928, Final residual = 7.64642e-05, No Iterations 37
linear solve p 49228
time step continuity errors : sum local = 5.97986e-08, global = 4.22839e-21, cumulative = 1.91065e-20
DICPCG:  Solving for p, Initial residual = 0.0109793, Final residual = 8.22212e-05, No Iterations 36
linear solve p 42793
time step continuity errors : sum local = 6.03161e-08, global = 1.71995e-20, cumulative = 3.6306e-20
ExecutionTime = 2.51 s  ClockTime = 2 s

End

