/*---------------------------------------------------------------------------*\
  =========                 |
  \\      /  F ield         | OpenFOAM: The Open Source CFD Toolbox
   \\    /   O peration     | Website:  https://openfoam.org
    \\  /    A nd           | Version:  8
     \\/     M anipulation  |
\*---------------------------------------------------------------------------*/
Build  : 8-ef60d22ea792
Exec   : icoFoam
Date   : Jul 28 2021
Time   : 17:27:30
Host   : "nla-gpu2.ianm.kit.edu"
PID    : 1561559
I/O    : uncollated
Case   : /home/greole/code/OBR/lidDrivenCavity3D/Variation_mesh/90/Variation_matrix_solver/BiCGStab_NoPrecond_Serial/base
nProcs : 1
sigFpe : Enabling floating point exception trapping (FOAM_SIGFPE).
fileModificationChecking : Monitoring run-time modified files using timeStampMaster (fileModificationSkew 10)
allowSystemOperations : Allowing user-supplied system call operations

// * * * * * * * * * * * * * * * * * * * * * * * * * * * * * * * * * * * * * //
Create time

Create mesh for time = 0

Reading transportProperties

Reading field p

Reading field U

Reading/calculating face flux field phi


Starting time loop

Time = 0.001

Courant Number mean: 0 max: 0
DILUPBiCGStab:  Solving for Ux, Initial residual = 1, Final residual = 0.00485432, No Iterations 5
DILUPBiCGStab:  Solving for Uy:  solution singularity
DILUPBiCGStab:  Solving for Uz:  solution singularity
linear solve U 301656
nonePBiCGStab:  Solving for p, Initial residual = 1, Final residual = 6.76433e-05, No Iterations 565
linear solve p 10099825
time step continuity errors : sum local = 5.89219e-08, global = 1.18445e-20, cumulative = 1.18445e-20
nonePBiCGStab:  Solving for p, Initial residual = 0.763414, Final residual = 8.60678e-05, No Iterations 559
linear solve p 9907986
time step continuity errors : sum local = 1.27962e-07, global = -1.55981e-20, cumulative = -3.75358e-21
ExecutionTime = 23.77 s  ClockTime = 24 s

Time = 0.002

Courant Number mean: 0.0507386 max: 0.709498
DILUPBiCGStab:  Solving for Ux, Initial residual = 0.142285, Final residual = 0.00198168, No Iterations 5
DILUPBiCGStab:  Solving for Uy, Initial residual = 0.408377, Final residual = 0.00514183, No Iterations 5
DILUPBiCGStab:  Solving for Uz, Initial residual = 0.983725, Final residual = 0.0139059, No Iterations 5
linear solve U 583216
nonePBiCGStab:  Solving for p, Initial residual = 0.765954, Final residual = 9.05206e-05, No Iterations 528
linear solve p 9445813
time step continuity errors : sum local = 1.74124e-07, global = 2.424e-21, cumulative = -1.32958e-21
nonePBiCGStab:  Solving for p, Initial residual = 0.702759, Final residual = 7.94071e-05, No Iterations 518
linear solve p 9205080
time step continuity errors : sum local = 1.55857e-07, global = -3.62803e-22, cumulative = -1.69238e-21
ExecutionTime = 43.27 s  ClockTime = 43 s

Time = 0.003

Courant Number mean: 0.0767259 max: 0.830951
DILUPBiCGStab:  Solving for Ux, Initial residual = 0.0602244, Final residual = 0.000654434, No Iterations 5
DILUPBiCGStab:  Solving for Uy, Initial residual = 0.183526, Final residual = 0.0019298, No Iterations 5
DILUPBiCGStab:  Solving for Uz, Initial residual = 0.758093, Final residual = 0.0110435, No Iterations 5
linear solve U 583273
nonePBiCGStab:  Solving for p, Initial residual = 0.782012, Final residual = 9.70577e-05, No Iterations 546
linear solve p 9690790
time step continuity errors : sum local = 1.03908e-07, global = -7.15001e-22, cumulative = -2.40738e-21
nonePBiCGStab:  Solving for p, Initial residual = 0.743379, Final residual = 6.72895e-05, No Iterations 520
linear solve p 9221597
time step continuity errors : sum local = 1.08146e-07, global = 2.70602e-21, cumulative = 2.9864e-22
ExecutionTime = 63.02 s  ClockTime = 63 s

Time = 0.004

Courant Number mean: 0.0889869 max: 0.827821
DILUPBiCGStab:  Solving for Ux, Initial residual = 0.0335038, Final residual = 0.000443392, No Iterations 5
DILUPBiCGStab:  Solving for Uy, Initial residual = 0.130978, Final residual = 0.00153, No Iterations 5
DILUPBiCGStab:  Solving for Uz, Initial residual = 0.548393, Final residual = 0.00604539, No Iterations 5
linear solve U 580884
nonePBiCGStab:  Solving for p, Initial residual = 0.6548, Final residual = 9.48019e-05, No Iterations 545
linear solve p 9667170
time step continuity errors : sum local = 1.16759e-07, global = -8.69316e-21, cumulative = -8.39452e-21
nonePBiCGStab:  Solving for p, Initial residual = 0.588872, Final residual = 9.96153e-05, No Iterations 561
linear solve p 9979273
time step continuity errors : sum local = 1.45603e-07, global = -1.61224e-20, cumulative = -2.45169e-20
ExecutionTime = 83.49 s  ClockTime = 84 s

Time = 0.005

Courant Number mean: 0.0998693 max: 0.839567
DILUPBiCGStab:  Solving for Ux, Initial residual = 0.0251329, Final residual = 0.000289947, No Iterations 5
DILUPBiCGStab:  Solving for Uy, Initial residual = 0.0705156, Final residual = 0.000881846, No Iterations 5
DILUPBiCGStab:  Solving for Uz, Initial residual = 0.434115, Final residual = 0.00585722, No Iterations 5
linear solve U 582074
nonePBiCGStab:  Solving for p, Initial residual = 0.632476, Final residual = 7.77678e-05, No Iterations 552
linear solve p 9805112
time step continuity errors : sum local = 4.80471e-08, global = 3.7748e-21, cumulative = -2.07421e-20
nonePBiCGStab:  Solving for p, Initial residual = 0.57881, Final residual = 1.6691e-05, No Iterations 594
linear solve p 10536408
time step continuity errors : sum local = 1.03705e-08, global = 1.02873e-22, cumulative = -2.06392e-20
ExecutionTime = 104.65 s  ClockTime = 105 s

Time = 0.006

Courant Number mean: 0.107747 max: 0.845167
DILUPBiCGStab:  Solving for Ux, Initial residual = 0.0164816, Final residual = 0.000186393, No Iterations 5
DILUPBiCGStab:  Solving for Uy, Initial residual = 0.057172, Final residual = 0.000630894, No Iterations 5
DILUPBiCGStab:  Solving for Uz, Initial residual = 0.316001, Final residual = 0.00362966, No Iterations 5
linear solve U 579954
nonePBiCGStab:  Solving for p, Initial residual = 0.500494, Final residual = 6.92434e-05, No Iterations 533
linear solve p 9505175
time step continuity errors : sum local = 4.77682e-08, global = 1.91562e-21, cumulative = -1.87236e-20
nonePBiCGStab:  Solving for p, Initial residual = 0.443681, Final residual = 8.88094e-05, No Iterations 477
linear solve p 8410904
time step continuity errors : sum local = 9.49032e-08, global = 1.66007e-20, cumulative = -2.12288e-21
ExecutionTime = 123.4 s  ClockTime = 124 s

Time = 0.007

Courant Number mean: 0.114504 max: 0.848563
DILUPBiCGStab:  Solving for Ux, Initial residual = 0.0137824, Final residual = 0.000135936, No Iterations 5
DILUPBiCGStab:  Solving for Uy, Initial residual = 0.0378256, Final residual = 0.000329877, No Iterations 5
DILUPBiCGStab:  Solving for Uz, Initial residual = 0.225153, Final residual = 0.00301359, No Iterations 5
linear solve U 580103
nonePBiCGStab:  Solving for p, Initial residual = 0.462848, Final residual = 9.71745e-05, No Iterations 544
linear solve p 9732775
time step continuity errors : sum local = 4.37431e-08, global = -6.92275e-21, cumulative = -9.04563e-21
nonePBiCGStab:  Solving for p, Initial residual = 0.408583, Final residual = 9.88163e-05, No Iterations 493
linear solve p 8700726
time step continuity errors : sum local = 4.63498e-08, global = -5.59304e-21, cumulative = -1.46387e-20
ExecutionTime = 142.65 s  ClockTime = 143 s

Time = 0.008

Courant Number mean: 0.120077 max: 0.852107
DILUPBiCGStab:  Solving for Ux, Initial residual = 0.0103931, Final residual = 9.37914e-05, No Iterations 5
DILUPBiCGStab:  Solving for Uy, Initial residual = 0.0317509, Final residual = 0.000278216, No Iterations 5
DILUPBiCGStab:  Solving for Uz, Initial residual = 0.167339, Final residual = 0.00189468, No Iterations 5
linear solve U 579505
nonePBiCGStab:  Solving for p, Initial residual = 0.359868, Final residual = 7.72897e-05, No Iterations 524
linear solve p 9355859
time step continuity errors : sum local = 3.89635e-08, global = -1.55629e-21, cumulative = -1.6195e-20
nonePBiCGStab:  Solving for p, Initial residual = 0.314233, Final residual = 9.02777e-05, No Iterations 497
linear solve p 8771368
time step continuity errors : sum local = 5.79037e-08, global = -2.71108e-21, cumulative = -1.8906e-20
ExecutionTime = 161.62 s  ClockTime = 162 s

Time = 0.009

Courant Number mean: 0.124923 max: 0.853997
DILUPBiCGStab:  Solving for Ux, Initial residual = 0.00876757, Final residual = 6.97958e-05, No Iterations 5
DILUPBiCGStab:  Solving for Uy, Initial residual = 0.0236766, Final residual = 0.000143615, No Iterations 5
DILUPBiCGStab:  Solving for Uz, Initial residual = 0.121072, Final residual = 0.00173995, No Iterations 5
linear solve U 580114
nonePBiCGStab:  Solving for p, Initial residual = 0.31613, Final residual = 5.95998e-05, No Iterations 446
linear solve p 7964273
time step continuity errors : sum local = 4.67178e-08, global = -1.78456e-20, cumulative = -3.67517e-20
nonePBiCGStab:  Solving for p, Initial residual = 0.27379, Final residual = 9.62259e-05, No Iterations 442
linear solve p 7793880
time step continuity errors : sum local = 6.8666e-08, global = -9.35597e-21, cumulative = -4.61076e-20
ExecutionTime = 178.21 s  ClockTime = 179 s

Time = 0.01

Courant Number mean: 0.129104 max: 0.856158
DILUPBiCGStab:  Solving for Ux, Initial residual = 0.00727206, Final residual = 5.30399e-05, No Iterations 5
DILUPBiCGStab:  Solving for Uy, Initial residual = 0.0204687, Final residual = 0.000133686, No Iterations 5
DILUPBiCGStab:  Solving for Uz, Initial residual = 0.108818, Final residual = 0.00148881, No Iterations 5
linear solve U 580892
nonePBiCGStab:  Solving for p, Initial residual = 0.251985, Final residual = 8.70661e-05, No Iterations 514
linear solve p 9178302
time step continuity errors : sum local = 3.93643e-08, global = 1.45036e-20, cumulative = -3.16041e-20
nonePBiCGStab:  Solving for p, Initial residual = 0.21779, Final residual = 9.84381e-05, No Iterations 526
linear solve p 9280436
time step continuity errors : sum local = 4.93509e-08, global = 2.33163e-21, cumulative = -2.92724e-20
ExecutionTime = 197.5 s  ClockTime = 198 s

End

