/*---------------------------------------------------------------------------*\
  =========                 |
  \\      /  F ield         | OpenFOAM: The Open Source CFD Toolbox
   \\    /   O peration     | Website:  https://openfoam.org
    \\  /    A nd           | Version:  8
     \\/     M anipulation  |
\*---------------------------------------------------------------------------*/
Build  : 8-14d69e1ee166
Exec   : icoFoam
Date   : Jul 29 2021
Time   : 03:53:53
Host   : "guyot.icl.utk.edu"
PID    : 95797
I/O    : uncollated
Case   : /home/greole/code/OBR/lidDrivenCavity3D/Variation_mesh/45/Variation_matrix_solver/BiCGStab_BJ_CUDA/base
nProcs : 1
sigFpe : Enabling floating point exception trapping (FOAM_SIGFPE).
fileModificationChecking : Monitoring run-time modified files using timeStampMaster (fileModificationSkew 10)
allowSystemOperations : Allowing user-supplied system call operations

// * * * * * * * * * * * * * * * * * * * * * * * * * * * * * * * * * * * * * //
Create time

Create mesh for time = 0

Reading transportProperties

Reading field p

Reading field U

Reading/calculating face flux field phi


Starting time loop

Time = 0.001

Courant Number mean: 0 max: 0
DILUPBiCGStab:  Solving for Ux, Initial residual = 1, Final residual = 4.36896e-05, No Iterations 5
DILUPBiCGStab:  Solving for Uy:  solution singularity
DILUPBiCGStab:  Solving for Uz:  solution singularity
linear solve U 33623
[OGL LOG] init_host_sparsity_pattern : 40 ms
[OGL LOG] matrix not stored update host matrix
[OGL LOG] update_host_mtx : 20 ms
[OGL LOG] matrix is not yet sorted, compute sorting idxs
[OGL LOG] compute_sort : 827 ms
[OGL LOG] matrix is not yet sorted, sorting host matrix
[OGL LOG] sort_host_mtx_sparsity_pattern : 17 ms
[OGL LOG] sort_host_mtx : 10 ms
[OGL LOG] init_preconditioner : 14 ms
[OGL LOG] solve : 102 ms
BJcudaGKOBiCGStab:  Solving for p, Initial residual = 1, Final residual = 1.50136e-05, No Iterations 235
linear solve p 2649259
time step continuity errors : sum local = 1.67505e-08, global = -2.28302e-21, cumulative = -2.28302e-21
[OGL LOG] init_host_sparsity_pattern : 39 ms
[OGL LOG] matrix not stored update host matrix
[OGL LOG] update_host_mtx : 20 ms
[OGL LOG] matrix is not yet sorted, sorting host matrix
[OGL LOG] sort_host_mtx_sparsity_pattern : 17 ms
[OGL LOG] sort_host_mtx : 9 ms
[OGL LOG] init_preconditioner : 0 ms
[OGL LOG] solve : 93 ms
BJcudaGKOBiCGStab:  Solving for p, Initial residual = 0.63495, Final residual = 9.58037e-05, No Iterations 219
linear solve p 188362
time step continuity errors : sum local = 1.58431e-07, global = 3.45389e-21, cumulative = 1.17087e-21
ExecutionTime = 3.3 s  ClockTime = 3 s

Time = 0.002

Courant Number mean: 0.0244633 max: 0.283008
DILUPBiCGStab:  Solving for Ux, Initial residual = 0.172668, Final residual = 9.21256e-06, No Iterations 5
DILUPBiCGStab:  Solving for Uy, Initial residual = 0.302952, Final residual = 1.3477e-05, No Iterations 5
DILUPBiCGStab:  Solving for Uz, Initial residual = 0.958774, Final residual = 5.43504e-05, No Iterations 5
linear solve U 65225
[OGL LOG] init_host_sparsity_pattern : 39 ms
[OGL LOG] matrix not stored update host matrix
[OGL LOG] update_host_mtx : 20 ms
[OGL LOG] matrix is not yet sorted, sorting host matrix
[OGL LOG] sort_host_mtx_sparsity_pattern : 16 ms
[OGL LOG] sort_host_mtx : 10 ms
[OGL LOG] init_preconditioner : 0 ms
[OGL LOG] solve : 85 ms
BJcudaGKOBiCGStab:  Solving for p, Initial residual = 0.502604, Final residual = 9.14453e-05, No Iterations 198
linear solve p 178396
time step continuity errors : sum local = 1.11607e-07, global = -1.87183e-21, cumulative = -7.00964e-22
[OGL LOG] init_host_sparsity_pattern : 39 ms
[OGL LOG] matrix not stored update host matrix
[OGL LOG] update_host_mtx : 20 ms
[OGL LOG] matrix is not yet sorted, sorting host matrix
[OGL LOG] sort_host_mtx_sparsity_pattern : 16 ms
[OGL LOG] sort_host_mtx : 9 ms
[OGL LOG] init_preconditioner : 0 ms
[OGL LOG] solve : 83 ms
BJcudaGKOBiCGStab:  Solving for p, Initial residual = 0.412026, Final residual = 3.58956e-05, No Iterations 194
linear solve p 176604
time step continuity errors : sum local = 5.95444e-08, global = -1.03405e-20, cumulative = -1.10415e-20
ExecutionTime = 3.76 s  ClockTime = 4 s

Time = 0.003

Courant Number mean: 0.0369622 max: 0.358128
DILUPBiCGStab:  Solving for Ux, Initial residual = 0.0597366, Final residual = 3.42793e-06, No Iterations 5
DILUPBiCGStab:  Solving for Uy, Initial residual = 0.101569, Final residual = 2.38925e-06, No Iterations 5
DILUPBiCGStab:  Solving for Uz, Initial residual = 0.14679, Final residual = 7.68744e-06, No Iterations 5
linear solve U 65487
[OGL LOG] init_host_sparsity_pattern : 39 ms
[OGL LOG] matrix not stored update host matrix
[OGL LOG] update_host_mtx : 20 ms
[OGL LOG] matrix is not yet sorted, sorting host matrix
[OGL LOG] sort_host_mtx_sparsity_pattern : 16 ms
[OGL LOG] sort_host_mtx : 9 ms
[OGL LOG] init_preconditioner : 0 ms
[OGL LOG] solve : 81 ms
BJcudaGKOBiCGStab:  Solving for p, Initial residual = 0.230583, Final residual = 9.66185e-05, No Iterations 191
linear solve p 175113
time step continuity errors : sum local = 6.18278e-08, global = -3.50562e-21, cumulative = -1.45471e-20
[OGL LOG] init_host_sparsity_pattern : 39 ms
[OGL LOG] matrix not stored update host matrix
[OGL LOG] update_host_mtx : 20 ms
[OGL LOG] matrix is not yet sorted, sorting host matrix
[OGL LOG] sort_host_mtx_sparsity_pattern : 16 ms
[OGL LOG] sort_host_mtx : 9 ms
[OGL LOG] init_preconditioner : 0 ms
[OGL LOG] solve : 77 ms
BJcudaGKOBiCGStab:  Solving for p, Initial residual = 0.186124, Final residual = 8.50744e-05, No Iterations 179
linear solve p 170146
time step continuity errors : sum local = 9.70646e-08, global = -1.04034e-20, cumulative = -2.49505e-20
ExecutionTime = 4.21 s  ClockTime = 4 s

Time = 0.004

Courant Number mean: 0.0442738 max: 0.378751
DILUPBiCGStab:  Solving for Ux, Initial residual = 0.0351718, Final residual = 8.31256e-07, No Iterations 5
DILUPBiCGStab:  Solving for Uy, Initial residual = 0.0649089, Final residual = 1.39892e-06, No Iterations 5
DILUPBiCGStab:  Solving for Uz, Initial residual = 0.120911, Final residual = 5.02438e-06, No Iterations 5
linear solve U 65332
[OGL LOG] init_host_sparsity_pattern : 39 ms
[OGL LOG] matrix not stored update host matrix
[OGL LOG] update_host_mtx : 20 ms
[OGL LOG] matrix is not yet sorted, sorting host matrix
[OGL LOG] sort_host_mtx_sparsity_pattern : 16 ms
[OGL LOG] sort_host_mtx : 9 ms
[OGL LOG] init_preconditioner : 0 ms
[OGL LOG] solve : 84 ms
BJcudaGKOBiCGStab:  Solving for p, Initial residual = 0.111972, Final residual = 8.33858e-05, No Iterations 197
linear solve p 178046
time step continuity errors : sum local = 6.70757e-08, global = -6.00965e-21, cumulative = -3.09602e-20
[OGL LOG] init_host_sparsity_pattern : 39 ms
[OGL LOG] matrix not stored update host matrix
[OGL LOG] update_host_mtx : 20 ms
[OGL LOG] matrix is not yet sorted, sorting host matrix
[OGL LOG] sort_host_mtx_sparsity_pattern : 16 ms
[OGL LOG] sort_host_mtx : 9 ms
[OGL LOG] init_preconditioner : 0 ms
[OGL LOG] solve : 82 ms
BJcudaGKOBiCGStab:  Solving for p, Initial residual = 0.0884285, Final residual = 7.76064e-05, No Iterations 192
linear solve p 176448
time step continuity errors : sum local = 5.80523e-08, global = -3.92235e-21, cumulative = -3.48825e-20
ExecutionTime = 4.66 s  ClockTime = 5 s

Time = 0.005

Courant Number mean: 0.0495669 max: 0.388679
DILUPBiCGStab:  Solving for Ux, Initial residual = 0.0246165, Final residual = 2.71686e-07, No Iterations 5
DILUPBiCGStab:  Solving for Uy, Initial residual = 0.0448836, Final residual = 7.89423e-07, No Iterations 5
DILUPBiCGStab:  Solving for Uz, Initial residual = 0.0813845, Final residual = 1.94035e-06, No Iterations 5
linear solve U 65193
[OGL LOG] init_host_sparsity_pattern : 39 ms
[OGL LOG] matrix not stored update host matrix
[OGL LOG] update_host_mtx : 20 ms
[OGL LOG] matrix is not yet sorted, sorting host matrix
[OGL LOG] sort_host_mtx_sparsity_pattern : 16 ms
[OGL LOG] sort_host_mtx : 9 ms
[OGL LOG] init_preconditioner : 0 ms
[OGL LOG] solve : 36 ms
BJcudaGKOBiCGStab:  Solving for p, Initial residual = 0.0548081, Final residual = 8.22599e-05, No Iterations 81
linear solve p 129224
time step continuity errors : sum local = 5.92823e-08, global = 1.50051e-20, cumulative = -1.98774e-20
[OGL LOG] init_host_sparsity_pattern : 39 ms
[OGL LOG] matrix not stored update host matrix
[OGL LOG] update_host_mtx : 20 ms
[OGL LOG] matrix is not yet sorted, sorting host matrix
[OGL LOG] sort_host_mtx_sparsity_pattern : 16 ms
[OGL LOG] sort_host_mtx : 10 ms
[OGL LOG] init_preconditioner : 0 ms
[OGL LOG] solve : 33 ms
BJcudaGKOBiCGStab:  Solving for p, Initial residual = 0.0450908, Final residual = 8.03621e-05, No Iterations 73
linear solve p 126238
time step continuity errors : sum local = 6.11739e-08, global = -2.08863e-23, cumulative = -1.98983e-20
ExecutionTime = 5.02 s  ClockTime = 5 s

Time = 0.006

Courant Number mean: 0.0537211 max: 0.394652
DILUPBiCGStab:  Solving for Ux, Initial residual = 0.0186823, Final residual = 1.47527e-07, No Iterations 5
DILUPBiCGStab:  Solving for Uy, Initial residual = 0.0343762, Final residual = 3.13018e-07, No Iterations 5
DILUPBiCGStab:  Solving for Uz, Initial residual = 0.0604103, Final residual = 9.7907e-07, No Iterations 5
linear solve U 65440
[OGL LOG] init_host_sparsity_pattern : 39 ms
[OGL LOG] matrix not stored update host matrix
[OGL LOG] update_host_mtx : 20 ms
[OGL LOG] matrix is not yet sorted, sorting host matrix
[OGL LOG] sort_host_mtx_sparsity_pattern : 16 ms
[OGL LOG] sort_host_mtx : 9 ms
[OGL LOG] init_preconditioner : 0 ms
[OGL LOG] solve : 32 ms
BJcudaGKOBiCGStab:  Solving for p, Initial residual = 0.0356078, Final residual = 8.33437e-05, No Iterations 72
linear solve p 125725
time step continuity errors : sum local = 4.80618e-08, global = -1.97148e-20, cumulative = -3.96132e-20
[OGL LOG] init_host_sparsity_pattern : 39 ms
[OGL LOG] matrix not stored update host matrix
[OGL LOG] update_host_mtx : 20 ms
[OGL LOG] matrix is not yet sorted, sorting host matrix
[OGL LOG] sort_host_mtx_sparsity_pattern : 16 ms
[OGL LOG] sort_host_mtx : 9 ms
[OGL LOG] init_preconditioner : 0 ms
[OGL LOG] solve : 30 ms
BJcudaGKOBiCGStab:  Solving for p, Initial residual = 0.0295808, Final residual = 9.85731e-05, No Iterations 67
linear solve p 123837
time step continuity errors : sum local = 6.66136e-08, global = -2.99464e-21, cumulative = -4.26078e-20
ExecutionTime = 5.37 s  ClockTime = 5 s

Time = 0.007

Courant Number mean: 0.0570779 max: 0.398759
DILUPBiCGStab:  Solving for Ux, Initial residual = 0.0148339, Final residual = 9.60689e-08, No Iterations 5
DILUPBiCGStab:  Solving for Uy, Initial residual = 0.0276006, Final residual = 2.1758e-07, No Iterations 5
DILUPBiCGStab:  Solving for Uz, Initial residual = 0.0487031, Final residual = 5.87634e-07, No Iterations 5
linear solve U 65348
[OGL LOG] init_host_sparsity_pattern : 39 ms
[OGL LOG] matrix not stored update host matrix
[OGL LOG] update_host_mtx : 20 ms
[OGL LOG] matrix is not yet sorted, sorting host matrix
[OGL LOG] sort_host_mtx_sparsity_pattern : 16 ms
[OGL LOG] sort_host_mtx : 9 ms
[OGL LOG] init_preconditioner : 0 ms
[OGL LOG] solve : 32 ms
BJcudaGKOBiCGStab:  Solving for p, Initial residual = 0.0263274, Final residual = 9.82327e-05, No Iterations 73
linear solve p 125996
time step continuity errors : sum local = 6.76928e-08, global = -3.07604e-21, cumulative = -4.56838e-20
[OGL LOG] init_host_sparsity_pattern : 39 ms
[OGL LOG] matrix not stored update host matrix
[OGL LOG] update_host_mtx : 20 ms
[OGL LOG] matrix is not yet sorted, sorting host matrix
[OGL LOG] sort_host_mtx_sparsity_pattern : 16 ms
[OGL LOG] sort_host_mtx : 9 ms
[OGL LOG] init_preconditioner : 0 ms
[OGL LOG] solve : 31 ms
BJcudaGKOBiCGStab:  Solving for p, Initial residual = 0.0225173, Final residual = 9.32884e-05, No Iterations 69
linear solve p 124756
time step continuity errors : sum local = 6.55048e-08, global = 1.49201e-20, cumulative = -3.07638e-20
ExecutionTime = 5.72 s  ClockTime = 6 s

Time = 0.008

Courant Number mean: 0.0599093 max: 0.401787
DILUPBiCGStab:  Solving for Ux, Initial residual = 0.0122312, Final residual = 7.63852e-08, No Iterations 5
DILUPBiCGStab:  Solving for Uy, Initial residual = 0.0228076, Final residual = 1.12015e-07, No Iterations 5
DILUPBiCGStab:  Solving for Uz, Initial residual = 0.0413557, Final residual = 4.00603e-07, No Iterations 5
linear solve U 66141
[OGL LOG] init_host_sparsity_pattern : 39 ms
[OGL LOG] matrix not stored update host matrix
[OGL LOG] update_host_mtx : 20 ms
[OGL LOG] matrix is not yet sorted, sorting host matrix
[OGL LOG] sort_host_mtx_sparsity_pattern : 16 ms
[OGL LOG] sort_host_mtx : 10 ms
[OGL LOG] init_preconditioner : 0 ms
[OGL LOG] solve : 32 ms
BJcudaGKOBiCGStab:  Solving for p, Initial residual = 0.0199782, Final residual = 9.74256e-05, No Iterations 72
linear solve p 125999
time step continuity errors : sum local = 6.00957e-08, global = -2.18258e-20, cumulative = -5.25896e-20
[OGL LOG] init_host_sparsity_pattern : 39 ms
[OGL LOG] matrix not stored update host matrix
[OGL LOG] update_host_mtx : 19 ms
[OGL LOG] matrix is not yet sorted, sorting host matrix
[OGL LOG] sort_host_mtx_sparsity_pattern : 16 ms
[OGL LOG] sort_host_mtx : 9 ms
[OGL LOG] init_preconditioner : 0 ms
[OGL LOG] solve : 30 ms
BJcudaGKOBiCGStab:  Solving for p, Initial residual = 0.0173608, Final residual = 9.26042e-05, No Iterations 67
linear solve p 123514
time step continuity errors : sum local = 6.22386e-08, global = 1.10944e-20, cumulative = -4.14952e-20
ExecutionTime = 6.07 s  ClockTime = 6 s

Time = 0.009

Courant Number mean: 0.0623364 max: 0.404135
DILUPBiCGStab:  Solving for Ux, Initial residual = 0.0102507, Final residual = 6.29907e-08, No Iterations 5
DILUPBiCGStab:  Solving for Uy, Initial residual = 0.0193501, Final residual = 8.95892e-08, No Iterations 5
DILUPBiCGStab:  Solving for Uz, Initial residual = 0.0354105, Final residual = 2.98204e-07, No Iterations 5
linear solve U 65452
[OGL LOG] init_host_sparsity_pattern : 39 ms
[OGL LOG] matrix not stored update host matrix
[OGL LOG] update_host_mtx : 20 ms
[OGL LOG] matrix is not yet sorted, sorting host matrix
[OGL LOG] sort_host_mtx_sparsity_pattern : 16 ms
[OGL LOG] sort_host_mtx : 9 ms
[OGL LOG] init_preconditioner : 0 ms
[OGL LOG] solve : 31 ms
BJcudaGKOBiCGStab:  Solving for p, Initial residual = 0.0167953, Final residual = 6.80568e-05, No Iterations 69
linear solve p 124638
time step continuity errors : sum local = 4.93091e-08, global = -1.54523e-20, cumulative = -5.69475e-20
[OGL LOG] init_host_sparsity_pattern : 39 ms
[OGL LOG] matrix not stored update host matrix
[OGL LOG] update_host_mtx : 20 ms
[OGL LOG] matrix is not yet sorted, sorting host matrix
[OGL LOG] sort_host_mtx_sparsity_pattern : 16 ms
[OGL LOG] sort_host_mtx : 9 ms
[OGL LOG] init_preconditioner : 0 ms
[OGL LOG] solve : 29 ms
BJcudaGKOBiCGStab:  Solving for p, Initial residual = 0.0146994, Final residual = 8.71197e-05, No Iterations 63
linear solve p 122164
time step continuity errors : sum local = 6.00794e-08, global = -4.35075e-21, cumulative = -6.12983e-20
ExecutionTime = 6.41 s  ClockTime = 7 s

Time = 0.01

Courant Number mean: 0.0644318 max: 0.40601
DILUPBiCGStab:  Solving for Ux, Initial residual = 0.00877189, Final residual = 5.46982e-08, No Iterations 5
DILUPBiCGStab:  Solving for Uy, Initial residual = 0.0166111, Final residual = 6.29837e-08, No Iterations 5
DILUPBiCGStab:  Solving for Uz, Initial residual = 0.0308083, Final residual = 2.24701e-07, No Iterations 5
linear solve U 65230
[OGL LOG] init_host_sparsity_pattern : 39 ms
[OGL LOG] matrix not stored update host matrix
[OGL LOG] update_host_mtx : 20 ms
[OGL LOG] matrix is not yet sorted, sorting host matrix
[OGL LOG] sort_host_mtx_sparsity_pattern : 17 ms
[OGL LOG] sort_host_mtx : 9 ms
[OGL LOG] init_preconditioner : 0 ms
[OGL LOG] solve : 31 ms
BJcudaGKOBiCGStab:  Solving for p, Initial residual = 0.0138844, Final residual = 8.70107e-05, No Iterations 68
linear solve p 125712
time step continuity errors : sum local = 5.60064e-08, global = -1.39961e-20, cumulative = -7.52944e-20
[OGL LOG] init_host_sparsity_pattern : 39 ms
[OGL LOG] matrix not stored update host matrix
[OGL LOG] update_host_mtx : 20 ms
[OGL LOG] matrix is not yet sorted, sorting host matrix
[OGL LOG] sort_host_mtx_sparsity_pattern : 16 ms
[OGL LOG] sort_host_mtx : 10 ms
[OGL LOG] init_preconditioner : 0 ms
[OGL LOG] solve : 30 ms
BJcudaGKOBiCGStab:  Solving for p, Initial residual = 0.0121986, Final residual = 8.73905e-05, No Iterations 66
linear solve p 123593
time step continuity errors : sum local = 5.85339e-08, global = 1.25583e-20, cumulative = -6.27361e-20
ExecutionTime = 6.76 s  ClockTime = 7 s

End

