/*---------------------------------------------------------------------------*\
  =========                 |
  \\      /  F ield         | OpenFOAM: The Open Source CFD Toolbox
   \\    /   O peration     | Website:  https://openfoam.org
    \\  /    A nd           | Version:  8
     \\/     M anipulation  |
\*---------------------------------------------------------------------------*/
Build  : 8-ef60d22ea792
Exec   : icoFoam
Date   : Jul 29 2021
Time   : 03:36:08
Host   : "uc2n414.localdomain"
PID    : 2863798
I/O    : uncollated
Case   : /pfs/data5/home/kit/scc/nq7776/code/OBR/lidDrivenCavity3D/Variation_mesh/70/Variation_matrix_solver/CG_NoPrecond_OMP/base
nProcs : 1
sigFpe : Enabling floating point exception trapping (FOAM_SIGFPE).
fileModificationChecking : Monitoring run-time modified files using timeStampMaster (fileModificationSkew 10)
allowSystemOperations : Allowing user-supplied system call operations

// * * * * * * * * * * * * * * * * * * * * * * * * * * * * * * * * * * * * * //
Create time

Create mesh for time = 0

Reading transportProperties

Reading field p

Reading field U

Reading/calculating face flux field phi


Starting time loop

Time = 0.001

Courant Number mean: 0 max: 0
DILUPBiCGStab:  Solving for Ux, Initial residual = 1, Final residual = 0.00143011, No Iterations 5
DILUPBiCGStab:  Solving for Uy:  solution singularity
DILUPBiCGStab:  Solving for Uz:  solution singularity
linear solve U 172821
[OGL LOG] init_host_sparsity_pattern : 97 ms
[OGL LOG] matrix not stored update host matrix
[OGL LOG] update_host_mtx : 50 ms
[OGL LOG] matrix is not yet sorted, compute sorting idxs
[OGL LOG] compute_sort : 2966 ms
[OGL LOG] matrix is not yet sorted, sorting host matrix
[OGL LOG] sort_host_mtx_sparsity_pattern : 70 ms
[OGL LOG] sort_host_mtx : 41 ms
[OGL LOG] init_preconditioner : 0 ms
[OGL LOG] solve : 5287 ms
noneompGKOCG:  Solving for p, Initial residual = 1, Final residual = 9.62007e-05, No Iterations 549
linear solve p 8617946
time step continuity errors : sum local = 5.6583e-08, global = -8.68178e-22, cumulative = -8.68178e-22
[OGL LOG] init_host_sparsity_pattern : 97 ms
[OGL LOG] matrix not stored update host matrix
[OGL LOG] update_host_mtx : 50 ms
[OGL LOG] matrix is not yet sorted, sorting host matrix
[OGL LOG] sort_host_mtx_sparsity_pattern : 69 ms
[OGL LOG] sort_host_mtx : 34 ms
[OGL LOG] init_preconditioner : 0 ms
[OGL LOG] solve : 5215 ms
noneompGKOCG:  Solving for p, Initial residual = 0.723818, Final residual = 9.7127e-05, No Iterations 542
linear solve p 5510913
time step continuity errors : sum local = 7.59419e-08, global = 2.50501e-21, cumulative = 1.63684e-21
ExecutionTime = 15.82 s  ClockTime = 16 s

Time = 0.002

Courant Number mean: 0.0394021 max: 0.518352
DILUPBiCGStab:  Solving for Ux, Initial residual = 0.151291, Final residual = 0.000459811, No Iterations 5
DILUPBiCGStab:  Solving for Uy, Initial residual = 0.361767, Final residual = 0.000929268, No Iterations 5
DILUPBiCGStab:  Solving for Uz, Initial residual = 0.984714, Final residual = 0.0030295, No Iterations 5
linear solve U 318619
[OGL LOG] init_host_sparsity_pattern : 93 ms
[OGL LOG] matrix not stored update host matrix
[OGL LOG] update_host_mtx : 50 ms
[OGL LOG] matrix is not yet sorted, sorting host matrix
[OGL LOG] sort_host_mtx_sparsity_pattern : 69 ms
[OGL LOG] sort_host_mtx : 34 ms
[OGL LOG] init_preconditioner : 0 ms
[OGL LOG] solve : 5170 ms
noneompGKOCG:  Solving for p, Initial residual = 0.674278, Final residual = 9.96266e-05, No Iterations 538
linear solve p 5461482
time step continuity errors : sum local = 8.52481e-08, global = 7.38957e-22, cumulative = 2.37579e-21
[OGL LOG] init_host_sparsity_pattern : 94 ms
[OGL LOG] matrix not stored update host matrix
[OGL LOG] update_host_mtx : 50 ms
[OGL LOG] matrix is not yet sorted, sorting host matrix
[OGL LOG] sort_host_mtx_sparsity_pattern : 70 ms
[OGL LOG] sort_host_mtx : 34 ms
[OGL LOG] init_preconditioner : 0 ms
[OGL LOG] solve : 5164 ms
noneompGKOCG:  Solving for p, Initial residual = 0.601596, Final residual = 9.53879e-05, No Iterations 537
linear solve p 5454239
time step continuity errors : sum local = 8.34677e-08, global = 9.15856e-21, cumulative = 1.15343e-20
ExecutionTime = 27.2 s  ClockTime = 27 s

Time = 0.003

Courant Number mean: 0.0591359 max: 0.616284
DILUPBiCGStab:  Solving for Ux, Initial residual = 0.0520841, Final residual = 0.00010812, No Iterations 5
DILUPBiCGStab:  Solving for Uy, Initial residual = 0.118681, Final residual = 0.000223844, No Iterations 5
DILUPBiCGStab:  Solving for Uz, Initial residual = 0.503947, Final residual = 0.00144608, No Iterations 5
linear solve U 312269
[OGL LOG] init_host_sparsity_pattern : 91 ms
[OGL LOG] matrix not stored update host matrix
[OGL LOG] update_host_mtx : 49 ms
[OGL LOG] matrix is not yet sorted, sorting host matrix
[OGL LOG] sort_host_mtx_sparsity_pattern : 69 ms
[OGL LOG] sort_host_mtx : 34 ms
[OGL LOG] init_preconditioner : 0 ms
[OGL LOG] solve : 5159 ms
noneompGKOCG:  Solving for p, Initial residual = 0.609277, Final residual = 9.44776e-05, No Iterations 535
linear solve p 5446538
time step continuity errors : sum local = 5.79283e-08, global = 7.80067e-22, cumulative = 1.23144e-20
[OGL LOG] init_host_sparsity_pattern : 97 ms
[OGL LOG] matrix not stored update host matrix
[OGL LOG] update_host_mtx : 50 ms
[OGL LOG] matrix is not yet sorted, sorting host matrix
[OGL LOG] sort_host_mtx_sparsity_pattern : 70 ms
[OGL LOG] sort_host_mtx : 35 ms
[OGL LOG] init_preconditioner : 0 ms
[OGL LOG] solve : 5158 ms
noneompGKOCG:  Solving for p, Initial residual = 0.557387, Final residual = 9.21644e-05, No Iterations 534
linear solve p 5454959
time step continuity errors : sum local = 5.48655e-08, global = -2.72402e-20, cumulative = -1.49258e-20
ExecutionTime = 38.57 s  ClockTime = 39 s

Time = 0.004

Courant Number mean: 0.0695969 max: 0.629494
DILUPBiCGStab:  Solving for Ux, Initial residual = 0.0286857, Final residual = 5.77661e-05, No Iterations 5
DILUPBiCGStab:  Solving for Uy, Initial residual = 0.0790585, Final residual = 0.000132076, No Iterations 5
DILUPBiCGStab:  Solving for Uz, Initial residual = 0.262004, Final residual = 0.000582518, No Iterations 5
linear solve U 316307
[OGL LOG] init_host_sparsity_pattern : 97 ms
[OGL LOG] matrix not stored update host matrix
[OGL LOG] update_host_mtx : 50 ms
[OGL LOG] matrix is not yet sorted, sorting host matrix
[OGL LOG] sort_host_mtx_sparsity_pattern : 70 ms
[OGL LOG] sort_host_mtx : 35 ms
[OGL LOG] init_preconditioner : 0 ms
[OGL LOG] solve : 5047 ms
noneompGKOCG:  Solving for p, Initial residual = 0.386005, Final residual = 9.90905e-05, No Iterations 524
linear solve p 5342566
time step continuity errors : sum local = 5.28395e-08, global = -5.95194e-21, cumulative = -2.08777e-20
[OGL LOG] init_host_sparsity_pattern : 97 ms
[OGL LOG] matrix not stored update host matrix
[OGL LOG] update_host_mtx : 50 ms
[OGL LOG] matrix is not yet sorted, sorting host matrix
[OGL LOG] sort_host_mtx_sparsity_pattern : 69 ms
[OGL LOG] sort_host_mtx : 34 ms
[OGL LOG] init_preconditioner : 0 ms
[OGL LOG] solve : 5033 ms
noneompGKOCG:  Solving for p, Initial residual = 0.325684, Final residual = 9.97181e-05, No Iterations 522
linear solve p 5328799
time step continuity errors : sum local = 5.38346e-08, global = -1.54443e-20, cumulative = -3.6322e-20
ExecutionTime = 49.71 s  ClockTime = 50 s

Time = 0.005

Courant Number mean: 0.0778345 max: 0.639336
DILUPBiCGStab:  Solving for Ux, Initial residual = 0.0206098, Final residual = 3.13998e-05, No Iterations 5
DILUPBiCGStab:  Solving for Uy, Initial residual = 0.0456757, Final residual = 6.10451e-05, No Iterations 5
DILUPBiCGStab:  Solving for Uz, Initial residual = 0.0899404, Final residual = 0.000190891, No Iterations 5
linear solve U 314145
[OGL LOG] init_host_sparsity_pattern : 90 ms
[OGL LOG] matrix not stored update host matrix
[OGL LOG] update_host_mtx : 51 ms
[OGL LOG] matrix is not yet sorted, sorting host matrix
[OGL LOG] sort_host_mtx_sparsity_pattern : 70 ms
[OGL LOG] sort_host_mtx : 34 ms
[OGL LOG] init_preconditioner : 0 ms
[OGL LOG] solve : 4705 ms
noneompGKOCG:  Solving for p, Initial residual = 0.289486, Final residual = 9.31847e-05, No Iterations 490
linear solve p 4993035
time step continuity errors : sum local = 4.1472e-08, global = 3.65199e-21, cumulative = -3.267e-20
[OGL LOG] init_host_sparsity_pattern : 92 ms
[OGL LOG] matrix not stored update host matrix
[OGL LOG] update_host_mtx : 47 ms
[OGL LOG] matrix is not yet sorted, sorting host matrix
[OGL LOG] sort_host_mtx_sparsity_pattern : 70 ms
[OGL LOG] sort_host_mtx : 34 ms
[OGL LOG] init_preconditioner : 0 ms
[OGL LOG] solve : 4709 ms
noneompGKOCG:  Solving for p, Initial residual = 0.247236, Final residual = 9.54412e-05, No Iterations 490
linear solve p 4996450
time step continuity errors : sum local = 4.21571e-08, global = -2.85266e-21, cumulative = -3.55226e-20
ExecutionTime = 60.17 s  ClockTime = 60 s

Time = 0.006

Courant Number mean: 0.0841384 max: 0.645082
DILUPBiCGStab:  Solving for Ux, Initial residual = 0.0148949, Final residual = 2.19775e-05, No Iterations 5
DILUPBiCGStab:  Solving for Uy, Initial residual = 0.0354602, Final residual = 3.66449e-05, No Iterations 5
DILUPBiCGStab:  Solving for Uz, Initial residual = 0.0796617, Final residual = 0.000157454, No Iterations 5
linear solve U 314685
[OGL LOG] init_host_sparsity_pattern : 90 ms
[OGL LOG] matrix not stored update host matrix
[OGL LOG] update_host_mtx : 49 ms
[OGL LOG] matrix is not yet sorted, sorting host matrix
[OGL LOG] sort_host_mtx_sparsity_pattern : 70 ms
[OGL LOG] sort_host_mtx : 35 ms
[OGL LOG] init_preconditioner : 0 ms
[OGL LOG] solve : 2333 ms
noneompGKOCG:  Solving for p, Initial residual = 0.177353, Final residual = 9.9927e-05, No Iterations 242
linear solve p 2618745
time step continuity errors : sum local = 5.12155e-08, global = 5.53311e-21, cumulative = -2.99895e-20
[OGL LOG] init_host_sparsity_pattern : 90 ms
[OGL LOG] matrix not stored update host matrix
[OGL LOG] update_host_mtx : 47 ms
[OGL LOG] matrix is not yet sorted, sorting host matrix
[OGL LOG] sort_host_mtx_sparsity_pattern : 70 ms
[OGL LOG] sort_host_mtx : 34 ms
[OGL LOG] init_preconditioner : 0 ms
[OGL LOG] solve : 2301 ms
noneompGKOCG:  Solving for p, Initial residual = 0.146703, Final residual = 9.7719e-05, No Iterations 239
linear solve p 2588362
time step continuity errors : sum local = 4.48742e-08, global = 7.44079e-21, cumulative = -2.25487e-20
ExecutionTime = 65.86 s  ClockTime = 66 s

Time = 0.007

Courant Number mean: 0.0893566 max: 0.648974
DILUPBiCGStab:  Solving for Ux, Initial residual = 0.0118841, Final residual = 1.23438e-05, No Iterations 5
DILUPBiCGStab:  Solving for Uy, Initial residual = 0.0272466, Final residual = 2.86798e-05, No Iterations 5
DILUPBiCGStab:  Solving for Uz, Initial residual = 0.0498466, Final residual = 7.73962e-05, No Iterations 5
linear solve U 314565
[OGL LOG] init_host_sparsity_pattern : 90 ms
[OGL LOG] matrix not stored update host matrix
[OGL LOG] update_host_mtx : 49 ms
[OGL LOG] matrix is not yet sorted, sorting host matrix
[OGL LOG] sort_host_mtx_sparsity_pattern : 69 ms
[OGL LOG] sort_host_mtx : 34 ms
[OGL LOG] init_preconditioner : 0 ms
[OGL LOG] solve : 2303 ms
noneompGKOCG:  Solving for p, Initial residual = 0.124164, Final residual = 9.5685e-05, No Iterations 239
linear solve p 2589074
time step continuity errors : sum local = 4.00627e-08, global = -1.53238e-20, cumulative = -3.78725e-20
[OGL LOG] init_host_sparsity_pattern : 90 ms
[OGL LOG] matrix not stored update host matrix
[OGL LOG] update_host_mtx : 47 ms
[OGL LOG] matrix is not yet sorted, sorting host matrix
[OGL LOG] sort_host_mtx_sparsity_pattern : 70 ms
[OGL LOG] sort_host_mtx : 35 ms
[OGL LOG] init_preconditioner : 0 ms
[OGL LOG] solve : 2270 ms
noneompGKOCG:  Solving for p, Initial residual = 0.103655, Final residual = 9.79977e-05, No Iterations 236
linear solve p 2556656
time step continuity errors : sum local = 4.08069e-08, global = -6.07839e-21, cumulative = -4.39509e-20
ExecutionTime = 71.49 s  ClockTime = 72 s

Time = 0.008

Courant Number mean: 0.0937058 max: 0.652003
DILUPBiCGStab:  Solving for Ux, Initial residual = 0.0096954, Final residual = 1.01182e-05, No Iterations 5
DILUPBiCGStab:  Solving for Uy, Initial residual = 0.0223547, Final residual = 1.32853e-05, No Iterations 5
DILUPBiCGStab:  Solving for Uz, Initial residual = 0.0442185, Final residual = 5.68443e-05, No Iterations 5
linear solve U 314192
[OGL LOG] init_host_sparsity_pattern : 90 ms
[OGL LOG] matrix not stored update host matrix
[OGL LOG] update_host_mtx : 49 ms
[OGL LOG] matrix is not yet sorted, sorting host matrix
[OGL LOG] sort_host_mtx_sparsity_pattern : 69 ms
[OGL LOG] sort_host_mtx : 34 ms
[OGL LOG] init_preconditioner : 0 ms
[OGL LOG] solve : 2272 ms
noneompGKOCG:  Solving for p, Initial residual = 0.0805386, Final residual = 9.75169e-05, No Iterations 236
linear solve p 2557660
time step continuity errors : sum local = 4.85953e-08, global = -3.03657e-21, cumulative = -4.69875e-20
[OGL LOG] init_host_sparsity_pattern : 91 ms
[OGL LOG] matrix not stored update host matrix
[OGL LOG] update_host_mtx : 47 ms
[OGL LOG] matrix is not yet sorted, sorting host matrix
[OGL LOG] sort_host_mtx_sparsity_pattern : 70 ms
[OGL LOG] sort_host_mtx : 34 ms
[OGL LOG] init_preconditioner : 0 ms
[OGL LOG] solve : 2176 ms
noneompGKOCG:  Solving for p, Initial residual = 0.0665077, Final residual = 9.74885e-05, No Iterations 226
linear solve p 2462348
time step continuity errors : sum local = 4.2964e-08, global = 2.40182e-21, cumulative = -4.45857e-20
ExecutionTime = 76.99 s  ClockTime = 77 s

Time = 0.009

Courant Number mean: 0.0974484 max: 0.654264
DILUPBiCGStab:  Solving for Ux, Initial residual = 0.00810261, Final residual = 5.39835e-06, No Iterations 5
DILUPBiCGStab:  Solving for Uy, Initial residual = 0.018858, Final residual = 1.31794e-05, No Iterations 5
DILUPBiCGStab:  Solving for Uz, Initial residual = 0.0361778, Final residual = 4.43573e-05, No Iterations 5
linear solve U 314212
[OGL LOG] init_host_sparsity_pattern : 90 ms
[OGL LOG] matrix not stored update host matrix
[OGL LOG] update_host_mtx : 49 ms
[OGL LOG] matrix is not yet sorted, sorting host matrix
[OGL LOG] sort_host_mtx_sparsity_pattern : 70 ms
[OGL LOG] sort_host_mtx : 34 ms
[OGL LOG] init_preconditioner : 0 ms
[OGL LOG] solve : 2192 ms
noneompGKOCG:  Solving for p, Initial residual = 0.0584465, Final residual = 9.67822e-05, No Iterations 227
linear solve p 2477826
time step continuity errors : sum local = 4.24387e-08, global = -1.30245e-20, cumulative = -5.76102e-20
[OGL LOG] init_host_sparsity_pattern : 90 ms
[OGL LOG] matrix not stored update host matrix
[OGL LOG] update_host_mtx : 47 ms
[OGL LOG] matrix is not yet sorted, sorting host matrix
[OGL LOG] sort_host_mtx_sparsity_pattern : 70 ms
[OGL LOG] sort_host_mtx : 34 ms
[OGL LOG] init_preconditioner : 0 ms
[OGL LOG] solve : 2158 ms
noneompGKOCG:  Solving for p, Initial residual = 0.0487491, Final residual = 9.40862e-05, No Iterations 224
linear solve p 2443917
time step continuity errors : sum local = 3.8243e-08, global = 4.28082e-21, cumulative = -5.33294e-20
ExecutionTime = 82.4 s  ClockTime = 83 s

Time = 0.01

Courant Number mean: 0.100691 max: 0.656135
DILUPBiCGStab:  Solving for Ux, Initial residual = 0.00695121, Final residual = 4.38257e-06, No Iterations 5
DILUPBiCGStab:  Solving for Uy, Initial residual = 0.016099, Final residual = 6.70758e-06, No Iterations 5
DILUPBiCGStab:  Solving for Uz, Initial residual = 0.0321088, Final residual = 3.3038e-05, No Iterations 5
linear solve U 315398
[OGL LOG] init_host_sparsity_pattern : 90 ms
[OGL LOG] matrix not stored update host matrix
[OGL LOG] update_host_mtx : 49 ms
[OGL LOG] matrix is not yet sorted, sorting host matrix
[OGL LOG] sort_host_mtx_sparsity_pattern : 69 ms
[OGL LOG] sort_host_mtx : 34 ms
[OGL LOG] init_preconditioner : 0 ms
[OGL LOG] solve : 4608 ms
noneompGKOCG:  Solving for p, Initial residual = 0.0396252, Final residual = 9.7911e-05, No Iterations 480
linear solve p 4893911
time step continuity errors : sum local = 3.91831e-08, global = 2.35619e-20, cumulative = -2.97675e-20
[OGL LOG] init_host_sparsity_pattern : 90 ms
[OGL LOG] matrix not stored update host matrix
[OGL LOG] update_host_mtx : 47 ms
[OGL LOG] matrix is not yet sorted, sorting host matrix
[OGL LOG] sort_host_mtx_sparsity_pattern : 69 ms
[OGL LOG] sort_host_mtx : 35 ms
[OGL LOG] init_preconditioner : 0 ms
[OGL LOG] solve : 4620 ms
noneompGKOCG:  Solving for p, Initial residual = 0.0333898, Final residual = 9.51646e-05, No Iterations 479
linear solve p 4906545
time step continuity errors : sum local = 3.8112e-08, global = -1.3665e-21, cumulative = -3.1134e-20
ExecutionTime = 92.68 s  ClockTime = 93 s

End

