/*---------------------------------------------------------------------------*\
  =========                 |
  \\      /  F ield         | OpenFOAM: The Open Source CFD Toolbox
   \\    /   O peration     | Website:  https://openfoam.org
    \\  /    A nd           | Version:  8
     \\/     M anipulation  |
\*---------------------------------------------------------------------------*/
Build  : 8-40a5a48f630f
Exec   : icoFoam
Date   : Jul 28 2021
Time   : 13:38:40
Host   : "uc2n449.localdomain"
PID    : 1434145
I/O    : uncollated
Case   : /pfs/data5/home/kit/scc/nq7776/code/OBR/lidDrivenCavity3D/Variation_mesh/100/Variation_matrix_solver/BiCGStab_NoPrecond_Serial/base
nProcs : 1
sigFpe : Enabling floating point exception trapping (FOAM_SIGFPE).
fileModificationChecking : Monitoring run-time modified files using timeStampMaster (fileModificationSkew 10)
allowSystemOperations : Allowing user-supplied system call operations

// * * * * * * * * * * * * * * * * * * * * * * * * * * * * * * * * * * * * * //
Create time

Create mesh for time = 0

Reading transportProperties

Reading field p

Reading field U

Reading/calculating face flux field phi


Starting time loop

Time = 0.001

Courant Number mean: 0 max: 0
nonePBiCGStab:  Solving for Ux, Initial residual = 1, Final residual = 0.0818707, No Iterations 5
nonePBiCGStab:  Solving for Uy, Initial residual = 0, Final residual = 0, No Iterations 0
nonePBiCGStab:  Solving for Uz, Initial residual = 0, Final residual = 0, No Iterations 0
linear solve U 257
nonePBiCGStab:  Solving for p, Initial residual = 1, Final residual = 5.83907e-05, No Iterations 619
linear solve p 16513
time step continuity errors : sum local = 4.42276e-08, global = -2.19758e-20, cumulative = -2.19758e-20
nonePBiCGStab:  Solving for p, Initial residual = 0.70731, Final residual = 6.53788e-05, No Iterations 618
linear solve p 16632
time step continuity errors : sum local = 6.09834e-08, global = -4.16478e-21, cumulative = -2.61405e-20
ExecutionTime = 37.24 s  ClockTime = 37 s

Time = 0.002

Courant Number mean: 0.0422158 max: 0.791726
nonePBiCGStab:  Solving for Ux, Initial residual = 0.137754, Final residual = 0.0399195, No Iterations 5
nonePBiCGStab:  Solving for Uy, Initial residual = 0.451977, Final residual = 0.130354, No Iterations 5
nonePBiCGStab:  Solving for Uz, Initial residual = 0.983979, Final residual = 0.323906, No Iterations 5
linear solve U 574
nonePBiCGStab:  Solving for p, Initial residual = 0.789775, Final residual = 9.83663e-05, No Iterations 583
linear solve p 15606
time step continuity errors : sum local = 1.79437e-07, global = 6.01976e-21, cumulative = -2.01208e-20
nonePBiCGStab:  Solving for p, Initial residual = 0.713504, Final residual = 9.89725e-05, No Iterations 273
linear solve p 7337
time step continuity errors : sum local = 1.1947e-07, global = 4.32222e-22, cumulative = -1.96886e-20
ExecutionTime = 61.26 s  ClockTime = 61 s

Time = 0.003

Courant Number mean: 0.067473 max: 0.899968
nonePBiCGStab:  Solving for Ux, Initial residual = 0.0613837, Final residual = 0.0154126, No Iterations 5
nonePBiCGStab:  Solving for Uy, Initial residual = 0.209057, Final residual = 0.0591072, No Iterations 5
nonePBiCGStab:  Solving for Uz, Initial residual = 0.720189, Final residual = 0.229744, No Iterations 5
linear solve U 564
nonePBiCGStab:  Solving for p, Initial residual = 0.797463, Final residual = 9.39726e-05, No Iterations 550
linear solve p 14686
time step continuity errors : sum local = 1.24342e-07, global = 1.1421e-20, cumulative = -8.26751e-21
nonePBiCGStab:  Solving for p, Initial residual = 0.724626, Final residual = 9.79774e-05, No Iterations 666
linear solve p 17805
time step continuity errors : sum local = 7.31014e-08, global = -4.7891e-21, cumulative = -1.30566e-20
ExecutionTime = 94.81 s  ClockTime = 95 s

Time = 0.004

Courant Number mean: 0.0814925 max: 0.912908
nonePBiCGStab:  Solving for Ux, Initial residual = 0.0388163, Final residual = 0.0106818, No Iterations 5
nonePBiCGStab:  Solving for Uy, Initial residual = 0.150389, Final residual = 0.0506431, No Iterations 5
nonePBiCGStab:  Solving for Uz, Initial residual = 0.522056, Final residual = 0.148147, No Iterations 5
linear solve U 570
nonePBiCGStab:  Solving for p, Initial residual = 0.720572, Final residual = 6.889e-05, No Iterations 571
linear solve p 15705
time step continuity errors : sum local = 5.37512e-08, global = 9.21544e-21, cumulative = -3.84117e-21
nonePBiCGStab:  Solving for p, Initial residual = 0.620142, Final residual = 9.42202e-05, No Iterations 554
linear solve p 15147
time step continuity errors : sum local = 9.05009e-08, global = 2.30821e-21, cumulative = -1.53296e-21
ExecutionTime = 126.99 s  ClockTime = 127 s

Time = 0.005

Courant Number mean: 0.0922917 max: 0.92556
nonePBiCGStab:  Solving for Ux, Initial residual = 0.0300861, Final residual = 0.00902944, No Iterations 5
nonePBiCGStab:  Solving for Uy, Initial residual = 0.0994167, Final residual = 0.0357634, No Iterations 5
nonePBiCGStab:  Solving for Uz, Initial residual = 0.358273, Final residual = 0.0986453, No Iterations 5
linear solve U 580
nonePBiCGStab:  Solving for p, Initial residual = 0.758053, Final residual = 9.08867e-05, No Iterations 493
linear solve p 13457
time step continuity errors : sum local = 1.24841e-07, global = -3.77005e-21, cumulative = -5.30301e-21
nonePBiCGStab:  Solving for p, Initial residual = 0.671451, Final residual = 9.89395e-05, No Iterations 467
linear solve p 12763
time step continuity errors : sum local = 1.33978e-07, global = 1.60156e-20, cumulative = 1.07126e-20
ExecutionTime = 154.32 s  ClockTime = 155 s

Time = 0.006

Courant Number mean: 0.100688 max: 0.932463
nonePBiCGStab:  Solving for Ux, Initial residual = 0.0235434, Final residual = 0.00718156, No Iterations 5
nonePBiCGStab:  Solving for Uy, Initial residual = 0.0818603, Final residual = 0.0301655, No Iterations 5
nonePBiCGStab:  Solving for Uz, Initial residual = 0.331009, Final residual = 0.113866, No Iterations 5
linear solve U 575
nonePBiCGStab:  Solving for p, Initial residual = 0.69253, Final residual = 5.17411e-05, No Iterations 512
linear solve p 13990
time step continuity errors : sum local = 5.83153e-08, global = 2.15756e-21, cumulative = 1.28702e-20
nonePBiCGStab:  Solving for p, Initial residual = 0.593959, Final residual = 8.37568e-05, No Iterations 552
linear solve p 14983
time step continuity errors : sum local = 7.59099e-08, global = -1.38284e-20, cumulative = -9.58239e-22
ExecutionTime = 184.34 s  ClockTime = 185 s

Time = 0.007

Courant Number mean: 0.107711 max: 0.937854
nonePBiCGStab:  Solving for Ux, Initial residual = 0.0208894, Final residual = 0.00621633, No Iterations 5
nonePBiCGStab:  Solving for Uy, Initial residual = 0.0638329, Final residual = 0.0234399, No Iterations 5
nonePBiCGStab:  Solving for Uz, Initial residual = 0.264382, Final residual = 0.0800398, No Iterations 5
linear solve U 576
nonePBiCGStab:  Solving for p, Initial residual = 0.733132, Final residual = 9.74967e-05, No Iterations 511
linear solve p 13945
time step continuity errors : sum local = 8.38715e-08, global = -1.67552e-20, cumulative = -1.77134e-20
nonePBiCGStab:  Solving for p, Initial residual = 0.635967, Final residual = 9.2797e-05, No Iterations 605
linear solve p 16583
time step continuity errors : sum local = 6.34159e-08, global = -1.62108e-23, cumulative = -1.77296e-20
ExecutionTime = 215.92 s  ClockTime = 217 s

Time = 0.008

Courant Number mean: 0.113779 max: 0.941776
nonePBiCGStab:  Solving for Ux, Initial residual = 0.0174376, Final residual = 0.00545515, No Iterations 5
nonePBiCGStab:  Solving for Uy, Initial residual = 0.0553733, Final residual = 0.0192238, No Iterations 5
nonePBiCGStab:  Solving for Uz, Initial residual = 0.230649, Final residual = 0.0783319, No Iterations 5
linear solve U 582
nonePBiCGStab:  Solving for p, Initial residual = 0.676816, Final residual = 9.71547e-05, No Iterations 494
linear solve p 13481
time step continuity errors : sum local = 1.29227e-07, global = 4.15005e-21, cumulative = -1.35796e-20
nonePBiCGStab:  Solving for p, Initial residual = 0.577528, Final residual = 9.59552e-05, No Iterations 477
linear solve p 12977
time step continuity errors : sum local = 1.3803e-07, global = 6.27268e-22, cumulative = -1.29523e-20
ExecutionTime = 243.42 s  ClockTime = 244 s

Time = 0.009

Courant Number mean: 0.119098 max: 0.94501
nonePBiCGStab:  Solving for Ux, Initial residual = 0.0163635, Final residual = 0.00496152, No Iterations 5
nonePBiCGStab:  Solving for Uy, Initial residual = 0.0472429, Final residual = 0.0172852, No Iterations 5
nonePBiCGStab:  Solving for Uz, Initial residual = 0.230204, Final residual = 0.0866331, No Iterations 5
linear solve U 576
nonePBiCGStab:  Solving for p, Initial residual = 0.7198, Final residual = 9.99559e-05, No Iterations 496
linear solve p 13499
time step continuity errors : sum local = 1.18491e-07, global = -1.02302e-20, cumulative = -2.31825e-20
nonePBiCGStab:  Solving for p, Initial residual = 0.616886, Final residual = 9.58585e-05, No Iterations 522
linear solve p 14246
time step continuity errors : sum local = 1.19727e-07, global = 1.2131e-20, cumulative = -1.10515e-20
ExecutionTime = 272.26 s  ClockTime = 273 s

Time = 0.01

Courant Number mean: 0.123827 max: 0.947478
nonePBiCGStab:  Solving for Ux, Initial residual = 0.0142847, Final residual = 0.00416104, No Iterations 5
nonePBiCGStab:  Solving for Uy, Initial residual = 0.0447149, Final residual = 0.0153554, No Iterations 5
nonePBiCGStab:  Solving for Uz, Initial residual = 0.237051, Final residual = 0.0834071, No Iterations 5
linear solve U 535
nonePBiCGStab:  Solving for p, Initial residual = 0.676437, Final residual = 9.90798e-05, No Iterations 541
linear solve p 14788
time step continuity errors : sum local = 7.68551e-08, global = -8.54861e-22, cumulative = -1.19063e-20
nonePBiCGStab:  Solving for p, Initial residual = 0.575206, Final residual = 9.4323e-05, No Iterations 598
linear solve p 16242
time step continuity errors : sum local = 7.14493e-08, global = -5.58453e-21, cumulative = -1.74909e-20
ExecutionTime = 304.26 s  ClockTime = 305 s

End

