/*---------------------------------------------------------------------------*\
  =========                 |
  \\      /  F ield         | OpenFOAM: The Open Source CFD Toolbox
   \\    /   O peration     | Website:  https://openfoam.org
    \\  /    A nd           | Version:  8
     \\/     M anipulation  |
\*---------------------------------------------------------------------------*/
Build  : 8-40a5a48f630f
Exec   : icoFoam
Date   : Jul 28 2021
Time   : 12:41:17
Host   : "uc2n374.localdomain"
PID    : 2728594
I/O    : uncollated
Case   : /pfs/data5/home/kit/scc/nq7776/code/OBR/lidDrivenCavity3D/Variation_mesh/25/Variation_matrix_solver/BiCGStab_BJ_OMP/base
nProcs : 1
sigFpe : Enabling floating point exception trapping (FOAM_SIGFPE).
fileModificationChecking : Monitoring run-time modified files using timeStampMaster (fileModificationSkew 10)
allowSystemOperations : Allowing user-supplied system call operations

// * * * * * * * * * * * * * * * * * * * * * * * * * * * * * * * * * * * * * //
Create time

Create mesh for time = 0

Reading transportProperties

Reading field p

Reading field U

Reading/calculating face flux field phi


Starting time loop

Time = 0.001

Courant Number mean: 0 max: 0
nonePBiCGStab:  Solving for Ux, Initial residual = 1, Final residual = 0.00310183, No Iterations 5
nonePBiCGStab:  Solving for Uy, Initial residual = 0, Final residual = 0, No Iterations 0
nonePBiCGStab:  Solving for Uz, Initial residual = 0, Final residual = 0, No Iterations 0
linear solve U 3
[OGL LOG] init_host_sparsity_pattern : 4 ms
[OGL LOG] matrix not stored update host matrix
[OGL LOG] update_host_mtx : 2 ms
[OGL LOG] matrix is not yet sorted, compute sorting idxs
[OGL LOG] compute_sort : 111 ms
[OGL LOG] matrix is not yet sorted, sorting host matrix
[OGL LOG] sort_host_mtx_sparsity_pattern : 3 ms
[OGL LOG] sort_host_mtx : 1 ms
[OGL LOG] init_preconditioner : 9 ms
[OGL LOG] solve : 195 ms
BJompGKOBiCGStab:  Solving for p, Initial residual = 1, Final residual = 3.01352e-05, No Iterations 136
linear solve p 348
time step continuity errors : sum local = 1.85147e-06, global = -1.95876e-20, cumulative = -1.95876e-20
[OGL LOG] init_host_sparsity_pattern : 4 ms
[OGL LOG] matrix not stored update host matrix
[OGL LOG] update_host_mtx : 2 ms
[OGL LOG] matrix is not yet sorted, sorting host matrix
[OGL LOG] sort_host_mtx_sparsity_pattern : 3 ms
[OGL LOG] sort_host_mtx : 1 ms
[OGL LOG] init_preconditioner : 0 ms
[OGL LOG] solve : 86 ms
BJompGKOBiCGStab:  Solving for p, Initial residual = 0.48167, Final residual = 8.88691e-05, No Iterations 123
linear solve p 100
time step continuity errors : sum local = 3.93589e-06, global = 2.67071e-21, cumulative = -1.69169e-20
ExecutionTime = 9.78 s  ClockTime = 1 s

Time = 0.002

Courant Number mean: 0.0119718 max: 0.106554
nonePBiCGStab:  Solving for Ux, Initial residual = 0.210845, Final residual = 0.000696337, No Iterations 5
nonePBiCGStab:  Solving for Uy, Initial residual = 0.284522, Final residual = 0.000677926, No Iterations 5
nonePBiCGStab:  Solving for Uz, Initial residual = 0.850695, Final residual = 0.00294689, No Iterations 5
linear solve U 5
[OGL LOG] init_host_sparsity_pattern : 4 ms
[OGL LOG] matrix not stored update host matrix
[OGL LOG] update_host_mtx : 2 ms
[OGL LOG] matrix is not yet sorted, sorting host matrix
[OGL LOG] sort_host_mtx_sparsity_pattern : 3 ms
[OGL LOG] sort_host_mtx : 1 ms
[OGL LOG] init_preconditioner : 0 ms
[OGL LOG] solve : 76 ms
BJompGKOBiCGStab:  Solving for p, Initial residual = 0.289719, Final residual = 7.89682e-05, No Iterations 110
linear solve p 89
time step continuity errors : sum local = 8.96341e-07, global = -1.2465e-20, cumulative = -2.93819e-20
[OGL LOG] init_host_sparsity_pattern : 4 ms
[OGL LOG] matrix not stored update host matrix
[OGL LOG] update_host_mtx : 2 ms
[OGL LOG] matrix is not yet sorted, sorting host matrix
[OGL LOG] sort_host_mtx_sparsity_pattern : 3 ms
[OGL LOG] sort_host_mtx : 1 ms
[OGL LOG] init_preconditioner : 0 ms
[OGL LOG] solve : 78 ms
BJompGKOBiCGStab:  Solving for p, Initial residual = 0.190478, Final residual = 9.15958e-05, No Iterations 112
linear solve p 92
time step continuity errors : sum local = 3.95944e-07, global = 1.00592e-20, cumulative = -1.93227e-20
ExecutionTime = 15.12 s  ClockTime = 1 s

Time = 0.003

Courant Number mean: 0.0188464 max: 0.153564
nonePBiCGStab:  Solving for Ux, Initial residual = 0.0900194, Final residual = 0.000292821, No Iterations 5
nonePBiCGStab:  Solving for Uy, Initial residual = 0.124854, Final residual = 0.000211897, No Iterations 5
nonePBiCGStab:  Solving for Uz, Initial residual = 0.277873, Final residual = 0.000957209, No Iterations 5
linear solve U 5
[OGL LOG] init_host_sparsity_pattern : 4 ms
[OGL LOG] matrix not stored update host matrix
[OGL LOG] update_host_mtx : 2 ms
[OGL LOG] matrix is not yet sorted, sorting host matrix
[OGL LOG] sort_host_mtx_sparsity_pattern : 2 ms
[OGL LOG] sort_host_mtx : 1 ms
[OGL LOG] init_preconditioner : 0 ms
[OGL LOG] solve : 39 ms
BJompGKOBiCGStab:  Solving for p, Initial residual = 0.103863, Final residual = 9.90558e-05, No Iterations 56
linear solve p 52
time step continuity errors : sum local = 1.4972e-07, global = -5.73278e-21, cumulative = -2.50555e-20
[OGL LOG] init_host_sparsity_pattern : 4 ms
[OGL LOG] matrix not stored update host matrix
[OGL LOG] update_host_mtx : 2 ms
[OGL LOG] matrix is not yet sorted, sorting host matrix
[OGL LOG] sort_host_mtx_sparsity_pattern : 3 ms
[OGL LOG] sort_host_mtx : 1 ms
[OGL LOG] init_preconditioner : 0 ms
[OGL LOG] solve : 65 ms
BJompGKOBiCGStab:  Solving for p, Initial residual = 0.0701703, Final residual = 9.79234e-05, No Iterations 94
linear solve p 78
time step continuity errors : sum local = 3.18053e-07, global = -5.7458e-21, cumulative = -3.08013e-20
ExecutionTime = 18.82 s  ClockTime = 1 s

Time = 0.004

Courant Number mean: 0.0233144 max: 0.175119
nonePBiCGStab:  Solving for Ux, Initial residual = 0.0521088, Final residual = 0.000103143, No Iterations 5
nonePBiCGStab:  Solving for Uy, Initial residual = 0.0742982, Final residual = 7.07847e-05, No Iterations 5
nonePBiCGStab:  Solving for Uz, Initial residual = 0.1315, Final residual = 0.00028443, No Iterations 5
linear solve U 5
[OGL LOG] init_host_sparsity_pattern : 4 ms
[OGL LOG] matrix not stored update host matrix
[OGL LOG] update_host_mtx : 2 ms
[OGL LOG] matrix is not yet sorted, sorting host matrix
[OGL LOG] sort_host_mtx_sparsity_pattern : 3 ms
[OGL LOG] sort_host_mtx : 1 ms
[OGL LOG] init_preconditioner : 0 ms
[OGL LOG] solve : 35 ms
BJompGKOBiCGStab:  Solving for p, Initial residual = 0.0553854, Final residual = 9.44243e-05, No Iterations 49
linear solve p 47
time step continuity errors : sum local = 1.13686e-07, global = 6.86394e-21, cumulative = -2.39373e-20
[OGL LOG] init_host_sparsity_pattern : 4 ms
[OGL LOG] matrix not stored update host matrix
[OGL LOG] update_host_mtx : 2 ms
[OGL LOG] matrix is not yet sorted, sorting host matrix
[OGL LOG] sort_host_mtx_sparsity_pattern : 3 ms
[OGL LOG] sort_host_mtx : 1 ms
[OGL LOG] init_preconditioner : 0 ms
[OGL LOG] solve : 24 ms
BJompGKOBiCGStab:  Solving for p, Initial residual = 0.037068, Final residual = 9.9142e-05, No Iterations 36
linear solve p 38
time step continuity errors : sum local = 9.32826e-08, global = 1.57432e-20, cumulative = -8.1941e-21
ExecutionTime = 21.1 s  ClockTime = 1 s

Time = 0.005

Courant Number mean: 0.0264935 max: 0.186505
nonePBiCGStab:  Solving for Ux, Initial residual = 0.0351265, Final residual = 3.78898e-05, No Iterations 5
nonePBiCGStab:  Solving for Uy, Initial residual = 0.0508418, Final residual = 2.76035e-05, No Iterations 5
nonePBiCGStab:  Solving for Uz, Initial residual = 0.0918609, Final residual = 0.000169617, No Iterations 5
linear solve U 5
[OGL LOG] init_host_sparsity_pattern : 4 ms
[OGL LOG] matrix not stored update host matrix
[OGL LOG] update_host_mtx : 2 ms
[OGL LOG] matrix is not yet sorted, sorting host matrix
[OGL LOG] sort_host_mtx_sparsity_pattern : 3 ms
[OGL LOG] sort_host_mtx : 1 ms
[OGL LOG] init_preconditioner : 0 ms
[OGL LOG] solve : 27 ms
BJompGKOBiCGStab:  Solving for p, Initial residual = 0.035131, Final residual = 8.63757e-05, No Iterations 38
linear solve p 40
time step continuity errors : sum local = 1.09205e-07, global = 5.87836e-21, cumulative = -2.31574e-21
[OGL LOG] init_host_sparsity_pattern : 4 ms
[OGL LOG] matrix not stored update host matrix
[OGL LOG] update_host_mtx : 2 ms
[OGL LOG] matrix is not yet sorted, sorting host matrix
[OGL LOG] sort_host_mtx_sparsity_pattern : 3 ms
[OGL LOG] sort_host_mtx : 1 ms
[OGL LOG] init_preconditioner : 0 ms
[OGL LOG] solve : 24 ms
BJompGKOBiCGStab:  Solving for p, Initial residual = 0.0232752, Final residual = 8.03293e-05, No Iterations 35
linear solve p 38
time step continuity errors : sum local = 1.42151e-07, global = 4.39646e-21, cumulative = 2.08072e-21
ExecutionTime = 23.11 s  ClockTime = 1 s

Time = 0.006

Courant Number mean: 0.0288948 max: 0.193336
nonePBiCGStab:  Solving for Ux, Initial residual = 0.0259016, Final residual = 1.39128e-05, No Iterations 5
nonePBiCGStab:  Solving for Uy, Initial residual = 0.038043, Final residual = 1.59316e-05, No Iterations 5
nonePBiCGStab:  Solving for Uz, Initial residual = 0.0708147, Final residual = 6.67751e-05, No Iterations 5
linear solve U 5
[OGL LOG] init_host_sparsity_pattern : 4 ms
[OGL LOG] matrix not stored update host matrix
[OGL LOG] update_host_mtx : 2 ms
[OGL LOG] matrix is not yet sorted, sorting host matrix
[OGL LOG] sort_host_mtx_sparsity_pattern : 3 ms
[OGL LOG] sort_host_mtx : 1 ms
[OGL LOG] init_preconditioner : 0 ms
[OGL LOG] solve : 28 ms
BJompGKOBiCGStab:  Solving for p, Initial residual = 0.0244425, Final residual = 7.21351e-05, No Iterations 41
linear solve p 41
time step continuity errors : sum local = 8.13971e-08, global = -1.86003e-20, cumulative = -1.65196e-20
[OGL LOG] init_host_sparsity_pattern : 4 ms
[OGL LOG] matrix not stored update host matrix
[OGL LOG] update_host_mtx : 1 ms
[OGL LOG] matrix is not yet sorted, sorting host matrix
[OGL LOG] sort_host_mtx_sparsity_pattern : 3 ms
[OGL LOG] sort_host_mtx : 1 ms
[OGL LOG] init_preconditioner : 0 ms
[OGL LOG] solve : 24 ms
BJompGKOBiCGStab:  Solving for p, Initial residual = 0.016365, Final residual = 9.99618e-05, No Iterations 35
linear solve p 37
time step continuity errors : sum local = 1.56856e-07, global = -4.55663e-21, cumulative = -2.10762e-20
ExecutionTime = 25.2 s  ClockTime = 2 s

Time = 0.007

Courant Number mean: 0.0308307 max: 0.19789
nonePBiCGStab:  Solving for Ux, Initial residual = 0.0203537, Final residual = 6.97087e-06, No Iterations 5
nonePBiCGStab:  Solving for Uy, Initial residual = 0.0300521, Final residual = 9.44659e-06, No Iterations 5
nonePBiCGStab:  Solving for Uz, Initial residual = 0.0575802, Final residual = 4.34221e-05, No Iterations 5
linear solve U 5
[OGL LOG] init_host_sparsity_pattern : 4 ms
[OGL LOG] matrix not stored update host matrix
[OGL LOG] update_host_mtx : 2 ms
[OGL LOG] matrix is not yet sorted, sorting host matrix
[OGL LOG] sort_host_mtx_sparsity_pattern : 3 ms
[OGL LOG] sort_host_mtx : 1 ms
[OGL LOG] init_preconditioner : 0 ms
[OGL LOG] solve : 29 ms
BJompGKOBiCGStab:  Solving for p, Initial residual = 0.018806, Final residual = 7.65571e-05, No Iterations 42
linear solve p 42
time step continuity errors : sum local = 1.37451e-07, global = 2.32576e-20, cumulative = 2.18139e-21
[OGL LOG] init_host_sparsity_pattern : 4 ms
[OGL LOG] matrix not stored update host matrix
[OGL LOG] update_host_mtx : 2 ms
[OGL LOG] matrix is not yet sorted, sorting host matrix
[OGL LOG] sort_host_mtx_sparsity_pattern : 2 ms
[OGL LOG] sort_host_mtx : 1 ms
[OGL LOG] init_preconditioner : 0 ms
[OGL LOG] solve : 27 ms
BJompGKOBiCGStab:  Solving for p, Initial residual = 0.012768, Final residual = 6.9623e-05, No Iterations 38
linear solve p 40
time step continuity errors : sum local = 1.1332e-07, global = 1.49522e-20, cumulative = 1.71336e-20
ExecutionTime = 27.38 s  ClockTime = 2 s

Time = 0.008

Courant Number mean: 0.0324765 max: 0.201171
nonePBiCGStab:  Solving for Ux, Initial residual = 0.0165372, Final residual = 4.98071e-06, No Iterations 5
nonePBiCGStab:  Solving for Uy, Initial residual = 0.0246115, Final residual = 6.17909e-06, No Iterations 5
nonePBiCGStab:  Solving for Uz, Initial residual = 0.0480614, Final residual = 3.21238e-05, No Iterations 5
linear solve U 5
[OGL LOG] init_host_sparsity_pattern : 4 ms
[OGL LOG] matrix not stored update host matrix
[OGL LOG] update_host_mtx : 2 ms
[OGL LOG] matrix is not yet sorted, sorting host matrix
[OGL LOG] sort_host_mtx_sparsity_pattern : 3 ms
[OGL LOG] sort_host_mtx : 1 ms
[OGL LOG] init_preconditioner : 0 ms
[OGL LOG] solve : 27 ms
BJompGKOBiCGStab:  Solving for p, Initial residual = 0.0151284, Final residual = 9.39125e-05, No Iterations 38
linear solve p 39
time step continuity errors : sum local = 1.15571e-07, global = 1.62624e-21, cumulative = 1.87598e-20
[OGL LOG] init_host_sparsity_pattern : 4 ms
[OGL LOG] matrix not stored update host matrix
[OGL LOG] update_host_mtx : 2 ms
[OGL LOG] matrix is not yet sorted, sorting host matrix
[OGL LOG] sort_host_mtx_sparsity_pattern : 3 ms
[OGL LOG] sort_host_mtx : 1 ms
[OGL LOG] init_preconditioner : 0 ms
[OGL LOG] solve : 25 ms
BJompGKOBiCGStab:  Solving for p, Initial residual = 0.0103222, Final residual = 8.70112e-05, No Iterations 36
linear solve p 38
time step continuity errors : sum local = 1.22773e-07, global = 7.41309e-21, cumulative = 2.61729e-20
ExecutionTime = 29.42 s  ClockTime = 2 s

Time = 0.009

Courant Number mean: 0.0338807 max: 0.203668
nonePBiCGStab:  Solving for Ux, Initial residual = 0.0137778, Final residual = 3.21339e-06, No Iterations 5
nonePBiCGStab:  Solving for Uy, Initial residual = 0.020711, Final residual = 4.12607e-06, No Iterations 5
nonePBiCGStab:  Solving for Uz, Initial residual = 0.0409197, Final residual = 2.10759e-05, No Iterations 5
linear solve U 5
[OGL LOG] init_host_sparsity_pattern : 4 ms
[OGL LOG] matrix not stored update host matrix
[OGL LOG] update_host_mtx : 2 ms
[OGL LOG] matrix is not yet sorted, sorting host matrix
[OGL LOG] sort_host_mtx_sparsity_pattern : 3 ms
[OGL LOG] sort_host_mtx : 1 ms
[OGL LOG] init_preconditioner : 0 ms
[OGL LOG] solve : 27 ms
BJompGKOBiCGStab:  Solving for p, Initial residual = 0.0124045, Final residual = 9.01969e-05, No Iterations 39
linear solve p 40
time step continuity errors : sum local = 1.68887e-07, global = 3.56894e-20, cumulative = 6.18624e-20
[OGL LOG] init_host_sparsity_pattern : 4 ms
[OGL LOG] matrix not stored update host matrix
[OGL LOG] update_host_mtx : 2 ms
[OGL LOG] matrix is not yet sorted, sorting host matrix
[OGL LOG] sort_host_mtx_sparsity_pattern : 3 ms
[OGL LOG] sort_host_mtx : 1 ms
[OGL LOG] init_preconditioner : 0 ms
[OGL LOG] solve : 27 ms
BJompGKOBiCGStab:  Solving for p, Initial residual = 0.0085487, Final residual = 8.56788e-05, No Iterations 39
linear solve p 40
time step continuity errors : sum local = 1.12954e-07, global = -2.13748e-20, cumulative = 4.04876e-20
ExecutionTime = 31.55 s  ClockTime = 2 s

Time = 0.01

Courant Number mean: 0.0350921 max: 0.205642
nonePBiCGStab:  Solving for Ux, Initial residual = 0.0117198, Final residual = 2.26693e-06, No Iterations 5
nonePBiCGStab:  Solving for Uy, Initial residual = 0.0177249, Final residual = 3.06402e-06, No Iterations 5
nonePBiCGStab:  Solving for Uz, Initial residual = 0.035451, Final residual = 1.61254e-05, No Iterations 5
linear solve U 5
[OGL LOG] init_host_sparsity_pattern : 4 ms
[OGL LOG] matrix not stored update host matrix
[OGL LOG] update_host_mtx : 2 ms
[OGL LOG] matrix is not yet sorted, sorting host matrix
[OGL LOG] sort_host_mtx_sparsity_pattern : 3 ms
[OGL LOG] sort_host_mtx : 1 ms
[OGL LOG] init_preconditioner : 0 ms
[OGL LOG] solve : 34 ms
BJompGKOBiCGStab:  Solving for p, Initial residual = 0.0105735, Final residual = 9.29305e-05, No Iterations 38
linear solve p 50
time step continuity errors : sum local = 1.13146e-07, global = -5.84137e-20, cumulative = -1.79261e-20
[OGL LOG] init_host_sparsity_pattern : 4 ms
[OGL LOG] matrix not stored update host matrix
[OGL LOG] update_host_mtx : 2 ms
[OGL LOG] matrix is not yet sorted, sorting host matrix
[OGL LOG] sort_host_mtx_sparsity_pattern : 3 ms
[OGL LOG] sort_host_mtx : 1 ms
[OGL LOG] init_preconditioner : 0 ms
[OGL LOG] solve : 24 ms
BJompGKOBiCGStab:  Solving for p, Initial residual = 0.00731881, Final residual = 8.37705e-05, No Iterations 34
linear solve p 39
time step continuity errors : sum local = 1.32629e-07, global = -2.15615e-20, cumulative = -3.94876e-20
ExecutionTime = 33.84 s  ClockTime = 2 s

End

